[H]c1c(OC([H])([H])C(F)(F)F)c(C(F)(F)F)c2nnc(C([H])([H])C3([H])C([H])([H])OC([H])([H])C3([H])[H])n2c1[H]


 25 27  0  0  0  0  0  0  0  0999 V2000
   26.4587    8.5256   54.6687 C   0  0  0  0  0  0  0  0  0  0  0  0
   26.4877    9.3090   55.7944 C   0  0  0  0  0  0  0  0  0  0  0  0
   25.3127    9.5441   56.4679 C   0  0  0  0  0  0  0  0  0  0  0  0
   24.1407    8.9692   55.9687 C   0  0  0  0  0  0  0  0  0  0  0  0
   24.1306    8.2050   54.8655 N   0  0  0  0  0  0  0  0  0  0  0  0
   23.1248    7.5733   54.2368 C   0  0  0  0  0  0  0  0  0  0  0  0
   23.6871    6.9555   53.1832 N   0  0  0  0  0  0  0  0  0  0  0  0
   24.9788    7.1803   53.1417 N   0  0  0  0  0  0  0  0  0  0  0  0
   25.2674    7.9652   54.1957 C   0  0  0  0  0  0  0  0  0  0  0  0
   28.7721    8.9693   54.5753 F   0  0  0  0  0  0  0  0  0  0  0  0
   27.7270    8.2870   53.9633 C   0  0  0  0  0  0  0  0  0  0  0  0
   27.6570    8.7496   52.6690 F   0  0  0  0  0  0  0  0  0  0  0  0
   28.0345    6.9511   54.0337 F   0  0  0  0  0  0  0  0  0  0  0  0
   27.6821    9.8472   56.2342 O   0  0  0  0  0  0  0  0  0  0  0  0
   27.8783   10.4391   57.4794 C   0  0  0  0  0  0  0  0  0  0  0  0
   28.3438    9.3280   58.4310 C   0  0  0  0  0  0  0  0  0  0  0  0
   29.0401    8.4220   57.6504 F   0  0  0  0  0  0  0  0  0  0  0  0
   27.2619    8.6515   58.9522 F   0  0  0  0  0  0  0  0  0  0  0  0
   29.0777    9.8414   59.4561 F   0  0  0  0  0  0  0  0  0  0  0  0
   21.6868    7.5473   54.6073 C   0  0  0  0  0  0  0  0  0  0  0  0
   20.9188    8.5012   53.7376 C   0  0  0  0  0  0  0  0  0  0  0  0
   20.2519    7.7560   52.6037 C   0  0  0  0  0  0  0  0  0  0  0  0
   21.0616    8.1497   51.4114 C   0  0  0  0  0  0  0  0  0  0  0  0
   21.4180    9.4548   51.6779 O   0  0  0  0  0  0  0  0  0  0  0  0
   21.7942    9.4966   53.0260 C   0  0  0  0  0  0  0  0  0  0  0  0
 10 11  1  0  0  0
 11 12  1  0  0  0
 11 13  1  0  0  0
 11  1  1  0  0  0
  1  2  2  0  0  0
  2 14  1  0  0  0
 14 15  1  0  0  0
 15 16  1  0  0  0
 16 17  1  0  0  0
 16 18  1  0  0  0
 16 19  1  0  0  0
  2  3  1  0  0  0
  3  4  2  0  0  0
  4  5  1  0  0  0
  5  6  1  0  0  0
  6 20  1  0  0  0
 20 21  1  0  0  0
 21 22  1  0  0  0
 22 23  1  0  0  0
 23 24  1  0  0  0
 24 25  1  0  0  0
  6  7  2  0  0  0
  7  8  1  0  0  0
  8  9  2  0  0  0
  9  1  1  0  0  0
  9  5  1  0  0  0
 25 21  1  0  0  0
M  END
> <minimizedAffinity>
2.31699

> <CNNscore>
0.6602020264

> <CNNaffinity>
5.9298825264

> <CNN_VS>
3.9149205685

> <CNNaffinity_variance>
0.0958874971

$$$$
[H]c1c(OC([H])([H])C(F)(F)F)c(C(F)(F)F)c2nnc(C([H])([H])C3([H])C([H])([H])OC([H])([H])C3([H])[H])n2c1[H]


 25 27  0  0  0  0  0  0  0  0999 V2000
   24.3613    8.3577   54.2483 C   0  0  0  0  0  0  0  0  0  0  0  0
   23.1961    8.5303   54.9514 C   0  0  0  0  0  0  0  0  0  0  0  0
   23.2673    8.9495   56.2585 C   0  0  0  0  0  0  0  0  0  0  0  0
   24.5313    9.1804   56.8085 C   0  0  0  0  0  0  0  0  0  0  0  0
   25.6615    9.0064   56.1059 N   0  0  0  0  0  0  0  0  0  0  0  0
   26.9502    9.1725   56.4490 C   0  0  0  0  0  0  0  0  0  0  0  0
   27.6609    8.8547   55.3526 N   0  0  0  0  0  0  0  0  0  0  0  0
   26.8706    8.5055   54.3657 N   0  0  0  0  0  0  0  0  0  0  0  0
   25.6110    8.5978   54.8296 C   0  0  0  0  0  0  0  0  0  0  0  0
   23.1712    8.4919   52.2178 F   0  0  0  0  0  0  0  0  0  0  0  0
   24.2623    7.9084   52.8514 C   0  0  0  0  0  0  0  0  0  0  0  0
   24.0725    6.5467   52.7918 F   0  0  0  0  0  0  0  0  0  0  0  0
   25.3798    8.3191   52.1684 F   0  0  0  0  0  0  0  0  0  0  0  0
   21.9782    8.2840   54.3466 O   0  0  0  0  0  0  0  0  0  0  0  0
   21.0662    9.2644   53.9641 C   0  0  0  0  0  0  0  0  0  0  0  0
   21.5673   10.5910   54.5521 C   0  0  0  0  0  0  0  0  0  0  0  0
   20.6826   10.9198   55.5642 F   0  0  0  0  0  0  0  0  0  0  0  0
   21.4872   11.5979   53.6142 F   0  0  0  0  0  0  0  0  0  0  0  0
   22.8578   10.4808   54.9707 F   0  0  0  0  0  0  0  0  0  0  0  0
   27.4996    9.6130   57.7565 C   0  0  0  0  0  0  0  0  0  0  0  0
   28.2938   10.8753   57.5766 C   0  0  0  0  0  0  0  0  0  0  0  0
   29.1342   11.1452   58.8040 C   0  0  0  0  0  0  0  0  0  0  0  0
   28.4395   12.3005   59.4482 C   0  0  0  0  0  0  0  0  0  0  0  0
   27.9665   13.0317   58.3792 O   0  0  0  0  0  0  0  0  0  0  0  0
   27.4383   12.1081   57.4688 C   0  0  0  0  0  0  0  0  0  0  0  0
 10 11  1  0  0  0
 11 12  1  0  0  0
 11 13  1  0  0  0
 11  1  1  0  0  0
  1  2  2  0  0  0
  2 14  1  0  0  0
 14 15  1  0  0  0
 15 16  1  0  0  0
 16 17  1  0  0  0
 16 18  1  0  0  0
 16 19  1  0  0  0
  2  3  1  0  0  0
  3  4  2  0  0  0
  4  5  1  0  0  0
  5  6  1  0  0  0
  6 20  1  0  0  0
 20 21  1  0  0  0
 21 22  1  0  0  0
 22 23  1  0  0  0
 23 24  1  0  0  0
 24 25  1  0  0  0
  6  7  2  0  0  0
  7  8  1  0  0  0
  8  9  2  0  0  0
  9  1  1  0  0  0
  9  5  1  0  0  0
 25 21  1  0  0  0
M  END
> <minimizedAffinity>
8.90422

> <CNNscore>
0.6180745959

> <CNNaffinity>
5.9598321915

> <CNN_VS>
3.6836209297

> <CNNaffinity_variance>
0.0613648593

$$$$
[H]c1c(OC([H])([H])C(F)(F)F)c(C(F)(F)F)c2nnc(C([H])([H])C3([H])C([H])([H])OC([H])([H])C3([H])[H])n2c1[H]


 25 27  0  0  0  0  0  0  0  0999 V2000
   24.2815    8.5781   55.3927 C   0  0  0  0  0  0  0  0  0  0  0  0
   25.1605    7.6238   54.9474 C   0  0  0  0  0  0  0  0  0  0  0  0
   24.6922    6.6210   54.1322 C   0  0  0  0  0  0  0  0  0  0  0  0
   23.3356    6.6245   53.7961 C   0  0  0  0  0  0  0  0  0  0  0  0
   22.4893    7.5663   54.2410 N   0  0  0  0  0  0  0  0  0  0  0  0
   21.1730    7.7410   54.0341 C   0  0  0  0  0  0  0  0  0  0  0  0
   20.8418    8.8477   54.7223 N   0  0  0  0  0  0  0  0  0  0  0  0
   21.8874    9.3509   55.3338 N   0  0  0  0  0  0  0  0  0  0  0  0
   22.9287    8.5520   55.0372 C   0  0  0  0  0  0  0  0  0  0  0  0
   24.4479    9.4179   57.5892 F   0  0  0  0  0  0  0  0  0  0  0  0
   24.8034    9.6418   56.2640 C   0  0  0  0  0  0  0  0  0  0  0  0
   24.2716   10.8615   55.9126 F   0  0  0  0  0  0  0  0  0  0  0  0
   26.1750    9.6271   56.2166 F   0  0  0  0  0  0  0  0  0  0  0  0
   26.4907    7.6793   55.3179 O   0  0  0  0  0  0  0  0  0  0  0  0
   27.3339    8.7657   55.0989 C   0  0  0  0  0  0  0  0  0  0  0  0
   27.8406    8.6506   53.6544 C   0  0  0  0  0  0  0  0  0  0  0  0
   28.3344    7.3645   53.5231 F   0  0  0  0  0  0  0  0  0  0  0  0
   28.9015    9.5050   53.4434 F   0  0  0  0  0  0  0  0  0  0  0  0
   26.8522    8.9482   52.7670 F   0  0  0  0  0  0  0  0  0  0  0  0
   20.2552    6.9028   53.2214 C   0  0  0  0  0  0  0  0  0  0  0  0
   20.3311    7.3150   51.7789 C   0  0  0  0  0  0  0  0  0  0  0  0
   21.7051    7.8594   51.4608 C   0  0  0  0  0  0  0  0  0  0  0  0
   21.4681    9.3278   51.3198 C   0  0  0  0  0  0  0  0  0  0  0  0
   20.2093    9.4010   50.7618 O   0  0  0  0  0  0  0  0  0  0  0  0
   19.4199    8.4625   51.4376 C   0  0  0  0  0  0  0  0  0  0  0  0
 10 11  1  0  0  0
 11 12  1  0  0  0
 11 13  1  0  0  0
 11  1  1  0  0  0
  1  2  2  0  0  0
  2 14  1  0  0  0
 14 15  1  0  0  0
 15 16  1  0  0  0
 16 17  1  0  0  0
 16 18  1  0  0  0
 16 19  1  0  0  0
  2  3  1  0  0  0
  3  4  2  0  0  0
  4  5  1  0  0  0
  5  6  1  0  0  0
  6 20  1  0  0  0
 20 21  1  0  0  0
 21 22  1  0  0  0
 22 23  1  0  0  0
 23 24  1  0  0  0
 24 25  1  0  0  0
  6  7  2  0  0  0
  7  8  1  0  0  0
  8  9  2  0  0  0
  9  1  1  0  0  0
  9  5  1  0  0  0
 25 21  1  0  0  0
M  END
> <minimizedAffinity>
12.80232

> <CNNscore>
0.5650442839

> <CNNaffinity>
5.8773841858

> <CNN_VS>
3.3209824562

> <CNNaffinity_variance>
0.1339443475

$$$$
[H]c1c(OC([H])([H])C(F)(F)F)c(C(F)(F)F)c2nnc(C([H])([H])C3([H])C([H])([H])OC([H])([H])C3([H])[H])n2c1[H]


 25 27  0  0  0  0  0  0  0  0999 V2000
   24.2591    9.1340   54.9346 C   0  0  0  0  0  0  0  0  0  0  0  0
   25.1165    8.2759   54.2941 C   0  0  0  0  0  0  0  0  0  0  0  0
   24.6986    7.6639   53.1365 C   0  0  0  0  0  0  0  0  0  0  0  0
   23.4132    7.9488   52.6675 C   0  0  0  0  0  0  0  0  0  0  0  0
   22.5872    8.7913   53.3070 N   0  0  0  0  0  0  0  0  0  0  0  0
   21.3355    9.1890   53.0218 C   0  0  0  0  0  0  0  0  0  0  0  0
   20.9933   10.0409   54.0042 N   0  0  0  0  0  0  0  0  0  0  0  0
   21.9710   10.1792   54.8676 N   0  0  0  0  0  0  0  0  0  0  0  0
   22.9781    9.3972   54.4378 C   0  0  0  0  0  0  0  0  0  0  0  0
   23.8737    9.4937   57.2323 F   0  0  0  0  0  0  0  0  0  0  0  0
   24.7262    9.7779   56.1716 C   0  0  0  0  0  0  0  0  0  0  0  0
   24.7397   11.1469   56.0310 F   0  0  0  0  0  0  0  0  0  0  0  0
   25.9551    9.2664   56.5065 F   0  0  0  0  0  0  0  0  0  0  0  0
   26.3753    8.0382   54.8124 O   0  0  0  0  0  0  0  0  0  0  0  0
   27.5691    8.2141   54.1172 C   0  0  0  0  0  0  0  0  0  0  0  0
   28.5504    8.8916   55.0839 C   0  0  0  0  0  0  0  0  0  0  0  0
   29.3791    7.8880   55.5542 F   0  0  0  0  0  0  0  0  0  0  0  0
   27.8817    9.3975   56.1779 F   0  0  0  0  0  0  0  0  0  0  0  0
   29.2179    9.9056   54.4681 F   0  0  0  0  0  0  0  0  0  0  0  0
   20.4875    8.7870   51.8708 C   0  0  0  0  0  0  0  0  0  0  0  0
   20.0907    7.3449   52.0087 C   0  0  0  0  0  0  0  0  0  0  0  0
   19.4993    7.0924   53.3770 C   0  0  0  0  0  0  0  0  0  0  0  0
   20.5685    6.3168   54.0751 C   0  0  0  0  0  0  0  0  0  0  0  0
   21.1252    5.5547   53.0699 O   0  0  0  0  0  0  0  0  0  0  0  0
   21.2585    6.3975   51.9597 C   0  0  0  0  0  0  0  0  0  0  0  0
 10 11  1  0  0  0
 11 12  1  0  0  0
 11 13  1  0  0  0
 11  1  1  0  0  0
  1  2  2  0  0  0
  2 14  1  0  0  0
 14 15  1  0  0  0
 15 16  1  0  0  0
 16 17  1  0  0  0
 16 18  1  0  0  0
 16 19  1  0  0  0
  2  3  1  0  0  0
  3  4  2  0  0  0
  4  5  1  0  0  0
  5  6  1  0  0  0
  6 20  1  0  0  0
 20 21  1  0  0  0
 21 22  1  0  0  0
 22 23  1  0  0  0
 23 24  1  0  0  0
 24 25  1  0  0  0
  6  7  2  0  0  0
  7  8  1  0  0  0
  8  9  2  0  0  0
  9  1  1  0  0  0
  9  5  1  0  0  0
 25 21  1  0  0  0
M  END
> <minimizedAffinity>
10.85044

> <CNNscore>
0.4964115918

> <CNNaffinity>
5.7200012207

> <CNN_VS>
2.8394749165

> <CNNaffinity_variance>
0.0762901455

$$$$
[H]c1c(OC([H])([H])C(F)(F)F)c(C(F)(F)F)c2nnc(C([H])([H])C3([H])C([H])([H])OC([H])([H])C3([H])[H])n2c1[H]


 25 27  0  0  0  0  0  0  0  0999 V2000
   23.3579    7.0524   53.9490 C   0  0  0  0  0  0  0  0  0  0  0  0
   22.7685    7.9558   53.1016 C   0  0  0  0  0  0  0  0  0  0  0  0
   23.5424    8.9495   52.5509 C   0  0  0  0  0  0  0  0  0  0  0  0
   24.8991    8.9892   52.8843 C   0  0  0  0  0  0  0  0  0  0  0  0
   25.4594    8.0968   53.7154 N   0  0  0  0  0  0  0  0  0  0  0  0
   26.7237    7.9681   54.1525 C   0  0  0  0  0  0  0  0  0  0  0  0
   26.7184    6.8985   54.9673 N   0  0  0  0  0  0  0  0  0  0  0  0
   25.5187    6.3741   55.0459 N   0  0  0  0  0  0  0  0  0  0  0  0
   24.7197    7.1208   54.2620 C   0  0  0  0  0  0  0  0  0  0  0  0
   21.8557    6.4543   55.6645 F   0  0  0  0  0  0  0  0  0  0  0  0
   22.5117    5.9975   54.5272 C   0  0  0  0  0  0  0  0  0  0  0  0
   23.2760    4.9214   54.9169 F   0  0  0  0  0  0  0  0  0  0  0  0
   21.5383    5.6572   53.6214 F   0  0  0  0  0  0  0  0  0  0  0  0
   21.4204    7.8594   52.8137 O   0  0  0  0  0  0  0  0  0  0  0  0
   20.4553    8.7863   53.1997 C   0  0  0  0  0  0  0  0  0  0  0  0
   20.8821    9.3270   54.5716 C   0  0  0  0  0  0  0  0  0  0  0  0
   20.1192    8.6476   55.5052 F   0  0  0  0  0  0  0  0  0  0  0  0
   20.5560   10.6610   54.6896 F   0  0  0  0  0  0  0  0  0  0  0  0
   22.2232    9.1835   54.7551 F   0  0  0  0  0  0  0  0  0  0  0  0
   27.8974    8.8154   53.8206 C   0  0  0  0  0  0  0  0  0  0  0  0
   28.7005    9.0828   55.0615 C   0  0  0  0  0  0  0  0  0  0  0  0
   27.9157    8.6827   56.2902 C   0  0  0  0  0  0  0  0  0  0  0  0
   27.5311    9.9943   56.8937 C   0  0  0  0  0  0  0  0  0  0  0  0
   28.6095   10.8076   56.6165 O   0  0  0  0  0  0  0  0  0  0  0  0
   28.9755   10.5441   55.2908 C   0  0  0  0  0  0  0  0  0  0  0  0
 10 11  1  0  0  0
 11 12  1  0  0  0
 11 13  1  0  0  0
 11  1  1  0  0  0
  1  2  2  0  0  0
  2 14  1  0  0  0
 14 15  1  0  0  0
 15 16  1  0  0  0
 16 17  1  0  0  0
 16 18  1  0  0  0
 16 19  1  0  0  0
  2  3  1  0  0  0
  3  4  2  0  0  0
  4  5  1  0  0  0
  5  6  1  0  0  0
  6 20  1  0  0  0
 20 21  1  0  0  0
 21 22  1  0  0  0
 22 23  1  0  0  0
 23 24  1  0  0  0
 24 25  1  0  0  0
  6  7  2  0  0  0
  7  8  1  0  0  0
  8  9  2  0  0  0
  9  1  1  0  0  0
  9  5  1  0  0  0
 25 21  1  0  0  0
M  END
> <minimizedAffinity>
10.53807

> <CNNscore>
0.4863498509

> <CNNaffinity>
5.9223489761

> <CNN_VS>
2.8803334236

> <CNNaffinity_variance>
0.3027213216

$$$$
[H]c1c(OC([H])([H])C(F)(F)F)c(C(F)(F)F)c2nnc(C([H])([H])C3([H])C([H])([H])OC([H])([H])C3([H])[H])n2c1[H]


 25 27  0  0  0  0  0  0  0  0999 V2000
   22.7019    9.1152   54.1307 C   0  0  0  0  0  0  0  0  0  0  0  0
   22.6044    8.3051   53.0281 C   0  0  0  0  0  0  0  0  0  0  0  0
   23.7087    7.5879   52.6336 C   0  0  0  0  0  0  0  0  0  0  0  0
   24.8823    7.7210   53.3808 C   0  0  0  0  0  0  0  0  0  0  0  0
   24.9601    8.5185   54.4574 N   0  0  0  0  0  0  0  0  0  0  0  0
   25.9795    8.7780   55.2937 C   0  0  0  0  0  0  0  0  0  0  0  0
   25.4960    9.6512   56.1947 N   0  0  0  0  0  0  0  0  0  0  0  0
   24.2390    9.9333   55.9474 N   0  0  0  0  0  0  0  0  0  0  0  0
   23.8928    9.2257   54.8566 C   0  0  0  0  0  0  0  0  0  0  0  0
   21.7801   10.6766   55.6373 F   0  0  0  0  0  0  0  0  0  0  0  0
   21.5087    9.8739   54.5353 C   0  0  0  0  0  0  0  0  0  0  0  0
   20.4945    9.0212   54.9074 F   0  0  0  0  0  0  0  0  0  0  0  0
   21.1461   10.7166   53.5143 F   0  0  0  0  0  0  0  0  0  0  0  0
   21.4127    8.2193   52.3337 O   0  0  0  0  0  0  0  0  0  0  0  0
   20.7898    7.0297   51.9646 C   0  0  0  0  0  0  0  0  0  0  0  0
   20.3417    6.3418   53.2618 C   0  0  0  0  0  0  0  0  0  0  0  0
   19.4225    7.1935   53.8490 F   0  0  0  0  0  0  0  0  0  0  0  0
   21.3971    6.2315   54.1415 F   0  0  0  0  0  0  0  0  0  0  0  0
   19.8484    5.0988   53.0077 F   0  0  0  0  0  0  0  0  0  0  0  0
   27.3588    8.2290   55.2532 C   0  0  0  0  0  0  0  0  0  0  0  0
   28.3014    9.1659   55.9534 C   0  0  0  0  0  0  0  0  0  0  0  0
   28.8547    8.5167   57.2016 C   0  0  0  0  0  0  0  0  0  0  0  0
   28.1541    9.2412   58.3045 C   0  0  0  0  0  0  0  0  0  0  0  0
   28.0242   10.5249   57.8181 O   0  0  0  0  0  0  0  0  0  0  0  0
   27.6295   10.4047   56.4800 C   0  0  0  0  0  0  0  0  0  0  0  0
 10 11  1  0  0  0
 11 12  1  0  0  0
 11 13  1  0  0  0
 11  1  1  0  0  0
  1  2  2  0  0  0
  2 14  1  0  0  0
 14 15  1  0  0  0
 15 16  1  0  0  0
 16 17  1  0  0  0
 16 18  1  0  0  0
 16 19  1  0  0  0
  2  3  1  0  0  0
  3  4  2  0  0  0
  4  5  1  0  0  0
  5  6  1  0  0  0
  6 20  1  0  0  0
 20 21  1  0  0  0
 21 22  1  0  0  0
 22 23  1  0  0  0
 23 24  1  0  0  0
 24 25  1  0  0  0
  6  7  2  0  0  0
  7  8  1  0  0  0
  8  9  2  0  0  0
  9  1  1  0  0  0
  9  5  1  0  0  0
 25 21  1  0  0  0
M  END
> <minimizedAffinity>
5.35066

> <CNNscore>
0.4856551290

> <CNNaffinity>
5.9436545372

> <CNN_VS>
2.8865664005

> <CNNaffinity_variance>
0.0466287509

$$$$
[H]c1c(OC([H])([H])C(F)(F)F)c(C(F)(F)F)c2nnc(C([H])([H])C3([H])C([H])([H])OC([H])([H])C3([H])[H])n2c1[H]


 25 27  0  0  0  0  0  0  0  0999 V2000
   24.5328    9.1559   55.3958 C   0  0  0  0  0  0  0  0  0  0  0  0
   25.7117    8.6488   54.9113 C   0  0  0  0  0  0  0  0  0  0  0  0
   25.6718    7.5402   54.0995 C   0  0  0  0  0  0  0  0  0  0  0  0
   24.4241    6.9825   53.8069 C   0  0  0  0  0  0  0  0  0  0  0  0
   23.2801    7.4918   54.2896 N   0  0  0  0  0  0  0  0  0  0  0  0
   22.0029    7.1069   54.1269 C   0  0  0  0  0  0  0  0  0  0  0  0
   21.2679    7.9796   54.8385 N   0  0  0  0  0  0  0  0  0  0  0  0
   22.0327    8.8711   55.4223 N   0  0  0  0  0  0  0  0  0  0  0  0
   23.3002    8.5728   55.0832 C   0  0  0  0  0  0  0  0  0  0  0  0
   23.9804   10.0999   57.4841 F   0  0  0  0  0  0  0  0  0  0  0  0
   24.5983   10.3422   56.2626 C   0  0  0  0  0  0  0  0  0  0  0  0
   23.9344   11.4013   55.6868 F   0  0  0  0  0  0  0  0  0  0  0  0
   25.9133   10.6252   56.5361 F   0  0  0  0  0  0  0  0  0  0  0  0
   26.9121    9.2494   55.2399 O   0  0  0  0  0  0  0  0  0  0  0  0
   27.9718    8.6131   55.8816 C   0  0  0  0  0  0  0  0  0  0  0  0
   27.9750    9.1107   57.3338 C   0  0  0  0  0  0  0  0  0  0  0  0
   28.2729   10.4608   57.2753 F   0  0  0  0  0  0  0  0  0  0  0  0
   28.9902    8.5123   58.0489 F   0  0  0  0  0  0  0  0  0  0  0  0
   26.7883    8.8402   57.9433 F   0  0  0  0  0  0  0  0  0  0  0  0
   21.4859    5.9627   53.3338 C   0  0  0  0  0  0  0  0  0  0  0  0
   20.9711    6.4511   52.0099 C   0  0  0  0  0  0  0  0  0  0  0  0
   21.8842    7.5205   51.4546 C   0  0  0  0  0  0  0  0  0  0  0  0
   21.0899    8.7739   51.6286 C   0  0  0  0  0  0  0  0  0  0  0  0
   19.7891    8.3646   51.4248 O   0  0  0  0  0  0  0  0  0  0  0  0
   19.6429    7.1509   52.1076 C   0  0  0  0  0  0  0  0  0  0  0  0
 10 11  1  0  0  0
 11 12  1  0  0  0
 11 13  1  0  0  0
 11  1  1  0  0  0
  1  2  2  0  0  0
  2 14  1  0  0  0
 14 15  1  0  0  0
 15 16  1  0  0  0
 16 17  1  0  0  0
 16 18  1  0  0  0
 16 19  1  0  0  0
  2  3  1  0  0  0
  3  4  2  0  0  0
  4  5  1  0  0  0
  5  6  1  0  0  0
  6 20  1  0  0  0
 20 21  1  0  0  0
 21 22  1  0  0  0
 22 23  1  0  0  0
 23 24  1  0  0  0
 24 25  1  0  0  0
  6  7  2  0  0  0
  7  8  1  0  0  0
  8  9  2  0  0  0
  9  1  1  0  0  0
  9  5  1  0  0  0
 25 21  1  0  0  0
M  END
> <minimizedAffinity>
14.18803

> <CNNscore>
0.4784384072

> <CNNaffinity>
5.6300659180

> <CNN_VS>
2.6936397552

> <CNNaffinity_variance>
0.0876088962

$$$$
[H]c1c(OC([H])([H])C(F)(F)F)c(C(F)(F)F)c2nnc(C([H])([H])C3([H])C([H])([H])OC([H])([H])C3([H])[H])n2c1[H]


 25 27  0  0  0  0  0  0  0  0999 V2000
   22.4772    8.5224   54.5949 C   0  0  0  0  0  0  0  0  0  0  0  0
   22.2345    7.3990   53.8461 C   0  0  0  0  0  0  0  0  0  0  0  0
   23.2962    6.6093   53.4736 C   0  0  0  0  0  0  0  0  0  0  0  0
   24.5773    6.9933   53.8794 C   0  0  0  0  0  0  0  0  0  0  0  0
   24.7967    8.0960   54.6122 N   0  0  0  0  0  0  0  0  0  0  0  0
   25.9341    8.6259   55.0934 C   0  0  0  0  0  0  0  0  0  0  0  0
   25.5646    9.7355   55.7570 N   0  0  0  0  0  0  0  0  0  0  0  0
   24.2650    9.9044   55.7024 N   0  0  0  0  0  0  0  0  0  0  0  0
   23.7729    8.8783   54.9845 C   0  0  0  0  0  0  0  0  0  0  0  0
   21.0383   10.2920   53.9987 F   0  0  0  0  0  0  0  0  0  0  0  0
   21.3272    9.3532   54.9825 C   0  0  0  0  0  0  0  0  0  0  0  0
   21.6027   10.0573   56.1324 F   0  0  0  0  0  0  0  0  0  0  0  0
   20.2174    8.5543   55.1021 F   0  0  0  0  0  0  0  0  0  0  0  0
   20.9421    7.0766   53.4782 O   0  0  0  0  0  0  0  0  0  0  0  0
   20.4874    6.9830   52.1652 C   0  0  0  0  0  0  0  0  0  0  0  0
   21.0157    8.2187   51.4231 C   0  0  0  0  0  0  0  0  0  0  0  0
   21.0921    7.8602   50.0886 F   0  0  0  0  0  0  0  0  0  0  0  0
   22.2998    8.5146   51.8273 F   0  0  0  0  0  0  0  0  0  0  0  0
   20.2215    9.3001   51.6523 F   0  0  0  0  0  0  0  0  0  0  0  0
   27.3194    8.1136   54.9389 C   0  0  0  0  0  0  0  0  0  0  0  0
   28.2809    9.0195   55.6539 C   0  0  0  0  0  0  0  0  0  0  0  0
   28.7935    8.3530   56.9103 C   0  0  0  0  0  0  0  0  0  0  0  0
   28.0997    9.1000   58.0025 C   0  0  0  0  0  0  0  0  0  0  0  0
   28.0191   10.3872   57.5145 O   0  0  0  0  0  0  0  0  0  0  0  0
   27.6415   10.2796   56.1704 C   0  0  0  0  0  0  0  0  0  0  0  0
 10 11  1  0  0  0
 11 12  1  0  0  0
 11 13  1  0  0  0
 11  1  1  0  0  0
  1  2  2  0  0  0
  2 14  1  0  0  0
 14 15  1  0  0  0
 15 16  1  0  0  0
 16 17  1  0  0  0
 16 18  1  0  0  0
 16 19  1  0  0  0
  2  3  1  0  0  0
  3  4  2  0  0  0
  4  5  1  0  0  0
  5  6  1  0  0  0
  6 20  1  0  0  0
 20 21  1  0  0  0
 21 22  1  0  0  0
 22 23  1  0  0  0
 23 24  1  0  0  0
 24 25  1  0  0  0
  6  7  2  0  0  0
  7  8  1  0  0  0
  8  9  2  0  0  0
  9  1  1  0  0  0
  9  5  1  0  0  0
 25 21  1  0  0  0
M  END
> <minimizedAffinity>
3.86111

> <CNNscore>
0.4509152770

> <CNNaffinity>
5.8933730125

> <CNN_VS>
2.6574118137

> <CNNaffinity_variance>
0.0528258756

$$$$
[H]c1c(OC([H])([H])C(F)(F)F)c(C(F)(F)F)c2nnc(C([H])([H])C3([H])C([H])([H])OC([H])([H])C3([H])[H])n2c1[H]


 25 27  0  0  0  0  0  0  0  0999 V2000
   22.7404    8.6761   54.5232 C   0  0  0  0  0  0  0  0  0  0  0  0
   23.9934    8.1272   54.4212 C   0  0  0  0  0  0  0  0  0  0  0  0
   24.1228    6.8669   53.8880 C   0  0  0  0  0  0  0  0  0  0  0  0
   22.9639    6.2044   53.4739 C   0  0  0  0  0  0  0  0  0  0  0  0
   21.7454    6.7567   53.5810 N   0  0  0  0  0  0  0  0  0  0  0  0
   20.5306    6.2899   53.2458 C   0  0  0  0  0  0  0  0  0  0  0  0
   19.6645    7.2644   53.5747 N   0  0  0  0  0  0  0  0  0  0  0  0
   20.2910    8.2949   54.0907 N   0  0  0  0  0  0  0  0  0  0  0  0
   21.6003    7.9852   54.0989 C   0  0  0  0  0  0  0  0  0  0  0  0
   21.7105   10.0435   56.1440 F   0  0  0  0  0  0  0  0  0  0  0  0
   22.6246   10.0254   55.0968 C   0  0  0  0  0  0  0  0  0  0  0  0
   22.1634   10.9156   54.1540 F   0  0  0  0  0  0  0  0  0  0  0  0
   23.8366   10.3929   55.6259 F   0  0  0  0  0  0  0  0  0  0  0  0
   25.0986    8.8372   54.8501 O   0  0  0  0  0  0  0  0  0  0  0  0
   26.2813    8.2664   55.3136 C   0  0  0  0  0  0  0  0  0  0  0  0
   27.3199    8.4257   54.1944 C   0  0  0  0  0  0  0  0  0  0  0  0
   27.9793    7.2121   54.1083 F   0  0  0  0  0  0  0  0  0  0  0  0
   28.2660    9.3661   54.5413 F   0  0  0  0  0  0  0  0  0  0  0  0
   26.7260    8.8071   53.0305 F   0  0  0  0  0  0  0  0  0  0  0  0
   20.1898    4.9781   52.6388 C   0  0  0  0  0  0  0  0  0  0  0  0
   19.5290    4.0990   53.6620 C   0  0  0  0  0  0  0  0  0  0  0  0
   19.1973    2.7523   53.0604 C   0  0  0  0  0  0  0  0  0  0  0  0
   17.7112    2.7989   52.9134 C   0  0  0  0  0  0  0  0  0  0  0  0
   17.3004    3.5358   54.0040 O   0  0  0  0  0  0  0  0  0  0  0  0
   18.1889    4.6125   54.1136 C   0  0  0  0  0  0  0  0  0  0  0  0
 10 11  1  0  0  0
 11 12  1  0  0  0
 11 13  1  0  0  0
 11  1  1  0  0  0
  1  2  2  0  0  0
  2 14  1  0  0  0
 14 15  1  0  0  0
 15 16  1  0  0  0
 16 17  1  0  0  0
 16 18  1  0  0  0
 16 19  1  0  0  0
  2  3  1  0  0  0
  3  4  2  0  0  0
  4  5  1  0  0  0
  5  6  1  0  0  0
  6 20  1  0  0  0
 20 21  1  0  0  0
 21 22  1  0  0  0
 22 23  1  0  0  0
 23 24  1  0  0  0
 24 25  1  0  0  0
  6  7  2  0  0  0
  7  8  1  0  0  0
  8  9  2  0  0  0
  9  1  1  0  0  0
  9  5  1  0  0  0
 25 21  1  0  0  0
M  END
> <minimizedAffinity>
7.99935

> <CNNscore>
0.4453347921

> <CNNaffinity>
6.2450127602

> <CNN_VS>
2.7811214924

> <CNNaffinity_variance>
0.3197740912

$$$$
[H]c1nc(C2([H])C([H])([H])C2([H])[H])c([H])c(-c2c([H])c(C(=O)N([H])[H])nc3c([H])c(-c4c([H])c([H])nc(C(F)(F)F)c4Cl)c([H])c([H])c23)c1[H]


 35 39  0  0  0  0  0  0  0  0999 V2000
   19.3547    6.0441   53.4785 C   0  0  0  0  0  0  0  0  0  0  0  0
   20.5400    5.5453   53.9749 C   0  0  0  0  0  0  0  0  0  0  0  0
   21.7198    6.2920   53.8805 C   0  0  0  0  0  0  0  0  0  0  0  0
   21.7386    7.5379   53.2944 C   0  0  0  0  0  0  0  0  0  0  0  0
   22.8544    8.3206   53.1792 C   0  0  0  0  0  0  0  0  0  0  0  0
   22.7474    9.5604   52.5822 C   0  0  0  0  0  0  0  0  0  0  0  0
   21.5301   10.0278   52.0951 C   0  0  0  0  0  0  0  0  0  0  0  0
   20.4483    9.2515   52.2132 N   0  0  0  0  0  0  0  0  0  0  0  0
   20.5265    8.0323   52.7950 C   0  0  0  0  0  0  0  0  0  0  0  0
   19.3830    7.2780   52.9010 C   0  0  0  0  0  0  0  0  0  0  0  0
   16.8867    3.1845   53.2418 C   0  0  0  0  0  0  0  0  0  0  0  0
   15.8500    3.7285   53.8998 N   0  0  0  0  0  0  0  0  0  0  0  0
   15.8981    4.9621   54.4132 C   0  0  0  0  0  0  0  0  0  0  0  0
   17.0319    5.6974   54.2688 C   0  0  0  0  0  0  0  0  0  0  0  0
   18.1636    5.2193   53.6007 C   0  0  0  0  0  0  0  0  0  0  0  0
   18.0501    3.9422   53.0948 C   0  0  0  0  0  0  0  0  0  0  0  0
   19.3769    3.2261   52.2349 Cl  0  0  0  0  0  0  0  0  0  0  0  0
   16.6418    1.9106   51.3123 F   0  0  0  0  0  0  0  0  0  0  0  0
   16.8070    1.8090   52.6799 C   0  0  0  0  0  0  0  0  0  0  0  0
   18.0028    1.1208   52.8771 F   0  0  0  0  0  0  0  0  0  0  0  0
   15.7428    1.1385   53.2578 F   0  0  0  0  0  0  0  0  0  0  0  0
   24.1460    7.8403   53.6448 C   0  0  0  0  0  0  0  0  0  0  0  0
   24.1994    6.5334   54.1465 C   0  0  0  0  0  0  0  0  0  0  0  0
   25.3790    6.0516   54.6310 C   0  0  0  0  0  0  0  0  0  0  0  0
   26.4876    6.8228   54.6296 N   0  0  0  0  0  0  0  0  0  0  0  0
   26.4497    8.0875   54.1477 C   0  0  0  0  0  0  0  0  0  0  0  0
   25.2844    8.6090   53.6519 C   0  0  0  0  0  0  0  0  0  0  0  0
   27.6782    8.8860   54.1670 C   0  0  0  0  0  0  0  0  0  0  0  0
   28.1300    9.2582   55.6098 C   0  0  0  0  0  0  0  0  0  0  0  0
   28.9390    8.3554   54.7434 C   0  0  0  0  0  0  0  0  0  0  0  0
   21.4074   11.3334   51.4642 C   0  0  0  0  0  0  0  0  0  0  0  0
   21.8646   12.5074   52.1194 N   0  0  0  0  0  0  0  0  0  0  0  0
   20.8857   11.3907   50.3250 O   0  0  0  0  0  0  0  0  0  0  0  0
   21.3401   13.4052   51.9062 H   0  0  0  0  0  0  0  0  0  0  0  0
   22.6647   12.5391   52.7806 H   0  0  0  0  0  0  0  0  0  0  0  0
 18 19  1  0  0  0
 19 20  1  0  0  0
 19 21  1  0  0  0
 19 11  1  0  0  0
 11 12  2  0  0  0
 12 13  1  0  0  0
 13 14  2  0  0  0
 14 15  1  0  0  0
 15 16  2  0  0  0
 16 17  1  0  0  0
 15  1  1  0  0  0
  1  2  2  0  0  0
  2  3  1  0  0  0
  3  4  2  0  0  0
  4  5  1  0  0  0
  5  6  2  0  0  0
  6  7  1  0  0  0
  7  8  2  0  0  0
  8  9  1  0  0  0
  9 10  2  0  0  0
  7 31  1  0  0  0
 31 32  1  0  0  0
 31 33  2  0  0  0
  5 22  1  0  0  0
 22 23  2  0  0  0
 23 24  1  0  0  0
 24 25  2  0  0  0
 25 26  1  0  0  0
 26 27  2  0  0  0
 26 28  1  0  0  0
 28 29  1  0  0  0
 29 30  1  0  0  0
 16 11  1  0  0  0
 10  1  1  0  0  0
 27 22  1  0  0  0
 30 28  1  0  0  0
  9  4  1  0  0  0
 32 34  1  0  0  0
 32 35  1  0  0  0
M  END
> <minimizedAffinity>
37.29985

> <CNNscore>
0.4940488935

> <CNNaffinity>
6.8791680336

> <CNN_VS>
3.3986454010

> <CNNaffinity_variance>
0.6383768916

$$$$
[H]c1nc(C2([H])C([H])([H])C2([H])[H])c([H])c(-c2c([H])c(C(=O)N([H])[H])nc3c([H])c(-c4c([H])c([H])nc(C(F)(F)F)c4Cl)c([H])c([H])c23)c1[H]


 35 39  0  0  0  0  0  0  0  0999 V2000
   20.5502    5.7519   53.3800 C   0  0  0  0  0  0  0  0  0  0  0  0
   21.6722    5.6638   54.1757 C   0  0  0  0  0  0  0  0  0  0  0  0
   22.5523    6.7464   54.2850 C   0  0  0  0  0  0  0  0  0  0  0  0
   22.3314    7.9251   53.6085 C   0  0  0  0  0  0  0  0  0  0  0  0
   23.1466    9.0212   53.6799 C   0  0  0  0  0  0  0  0  0  0  0  0
   22.8146   10.1539   52.9647 C   0  0  0  0  0  0  0  0  0  0  0  0
   21.6704   10.2023   52.1734 C   0  0  0  0  0  0  0  0  0  0  0  0
   20.8837    9.1232   52.1121 N   0  0  0  0  0  0  0  0  0  0  0  0
   21.1868    8.0005   52.8041 C   0  0  0  0  0  0  0  0  0  0  0  0
   20.3396    6.9225   52.7150 C   0  0  0  0  0  0  0  0  0  0  0  0
   17.5368    3.4671   53.5364 C   0  0  0  0  0  0  0  0  0  0  0  0
   18.0988    2.3258   53.1061 N   0  0  0  0  0  0  0  0  0  0  0  0
   19.3906    2.2481   52.7707 C   0  0  0  0  0  0  0  0  0  0  0  0
   20.1690    3.3582   52.8653 C   0  0  0  0  0  0  0  0  0  0  0  0
   19.6768    4.5921   53.3021 C   0  0  0  0  0  0  0  0  0  0  0  0
   18.3388    4.6059   53.6328 C   0  0  0  0  0  0  0  0  0  0  0  0
   17.5976    6.0700   54.1982 Cl  0  0  0  0  0  0  0  0  0  0  0  0
   15.5040    2.3387   53.5212 F   0  0  0  0  0  0  0  0  0  0  0  0
   16.0961    3.5266   53.9036 C   0  0  0  0  0  0  0  0  0  0  0  0
   15.9378    3.6128   55.2856 F   0  0  0  0  0  0  0  0  0  0  0  0
   15.5040    4.6022   53.2643 F   0  0  0  0  0  0  0  0  0  0  0  0
   24.3684    8.9841   54.4683 C   0  0  0  0  0  0  0  0  0  0  0  0
   24.3087    9.5099   55.7654 C   0  0  0  0  0  0  0  0  0  0  0  0
   25.4377    9.5335   56.5292 C   0  0  0  0  0  0  0  0  0  0  0  0
   26.6042    9.0559   56.0446 N   0  0  0  0  0  0  0  0  0  0  0  0
   26.6755    8.5450   54.7928 C   0  0  0  0  0  0  0  0  0  0  0  0
   25.5642    8.5031   53.9935 C   0  0  0  0  0  0  0  0  0  0  0  0
   27.9634    8.0387   54.3108 C   0  0  0  0  0  0  0  0  0  0  0  0
   28.9940    9.1751   54.0445 C   0  0  0  0  0  0  0  0  0  0  0  0
   29.1997    8.1668   55.1222 C   0  0  0  0  0  0  0  0  0  0  0  0
   21.3119   11.3919   51.4160 C   0  0  0  0  0  0  0  0  0  0  0  0
   21.6631   12.6872   51.8803 N   0  0  0  0  0  0  0  0  0  0  0  0
   20.6836   11.2392   50.3412 O   0  0  0  0  0  0  0  0  0  0  0  0
   21.0031   13.4783   51.6253 H   0  0  0  0  0  0  0  0  0  0  0  0
   22.5094   12.9018   52.4426 H   0  0  0  0  0  0  0  0  0  0  0  0
 18 19  1  0  0  0
 19 20  1  0  0  0
 19 21  1  0  0  0
 19 11  1  0  0  0
 11 12  2  0  0  0
 12 13  1  0  0  0
 13 14  2  0  0  0
 14 15  1  0  0  0
 15 16  2  0  0  0
 16 17  1  0  0  0
 15  1  1  0  0  0
  1  2  2  0  0  0
  2  3  1  0  0  0
  3  4  2  0  0  0
  4  5  1  0  0  0
  5  6  2  0  0  0
  6  7  1  0  0  0
  7  8  2  0  0  0
  8  9  1  0  0  0
  9 10  2  0  0  0
  7 31  1  0  0  0
 31 32  1  0  0  0
 31 33  2  0  0  0
  5 22  1  0  0  0
 22 23  2  0  0  0
 23 24  1  0  0  0
 24 25  2  0  0  0
 25 26  1  0  0  0
 26 27  2  0  0  0
 26 28  1  0  0  0
 28 29  1  0  0  0
 29 30  1  0  0  0
 16 11  1  0  0  0
 10  1  1  0  0  0
 27 22  1  0  0  0
 30 28  1  0  0  0
  9  4  1  0  0  0
 32 34  1  0  0  0
 32 35  1  0  0  0
M  END
> <minimizedAffinity>
29.95004

> <CNNscore>
0.4779326320

> <CNNaffinity>
6.8055238724

> <CNN_VS>
3.2525818348

> <CNNaffinity_variance>
0.4137523770

$$$$
[H]c1nc(C2([H])C([H])([H])C2([H])[H])c([H])c(-c2c([H])c(C(=O)N([H])[H])nc3c([H])c(-c4c([H])c([H])nc(C(F)(F)F)c4Cl)c([H])c([H])c23)c1[H]


 35 39  0  0  0  0  0  0  0  0999 V2000
   19.6464    6.3520   53.6558 C   0  0  0  0  0  0  0  0  0  0  0  0
   20.7450    6.1518   54.4639 C   0  0  0  0  0  0  0  0  0  0  0  0
   21.8013    7.0697   54.4670 C   0  0  0  0  0  0  0  0  0  0  0  0
   21.7814    8.1932   53.6711 C   0  0  0  0  0  0  0  0  0  0  0  0
   22.7758    9.1317   53.6347 C   0  0  0  0  0  0  0  0  0  0  0  0
   22.6380   10.2255   52.8044 C   0  0  0  0  0  0  0  0  0  0  0  0
   21.5107   10.3912   52.0047 C   0  0  0  0  0  0  0  0  0  0  0  0
   20.5476    9.4653   52.0495 N   0  0  0  0  0  0  0  0  0  0  0  0
   20.6583    8.3841   52.8556 C   0  0  0  0  0  0  0  0  0  0  0  0
   19.6354    7.4670   52.8723 C   0  0  0  0  0  0  0  0  0  0  0  0
   17.5993    3.2126   53.1287 C   0  0  0  0  0  0  0  0  0  0  0  0
   16.5043    3.5383   53.8347 N   0  0  0  0  0  0  0  0  0  0  0  0
   16.3855    4.7095   54.4685 C   0  0  0  0  0  0  0  0  0  0  0  0
   17.4038    5.6070   54.4012 C   0  0  0  0  0  0  0  0  0  0  0  0
   18.5835    5.3605   53.6919 C   0  0  0  0  0  0  0  0  0  0  0  0
   18.6438    4.1365   53.0611 C   0  0  0  0  0  0  0  0  0  0  0  0
   20.0478    3.7020   52.1378 Cl  0  0  0  0  0  0  0  0  0  0  0  0
   18.9657    1.3879   52.6714 F   0  0  0  0  0  0  0  0  0  0  0  0
   17.7061    1.9020   52.4324 C   0  0  0  0  0  0  0  0  0  0  0  0
   16.8035    0.9817   52.9624 F   0  0  0  0  0  0  0  0  0  0  0  0
   17.4960    2.0846   51.0764 F   0  0  0  0  0  0  0  0  0  0  0  0
   23.9813    8.9632   54.4309 C   0  0  0  0  0  0  0  0  0  0  0  0
   23.9364    9.4032   55.7602 C   0  0  0  0  0  0  0  0  0  0  0  0
   25.0535    9.3027   56.5351 C   0  0  0  0  0  0  0  0  0  0  0  0
   26.1943    8.7850   56.0307 N   0  0  0  0  0  0  0  0  0  0  0  0
   26.2511    8.3561   54.7478 C   0  0  0  0  0  0  0  0  0  0  0  0
   25.1509    8.4396   53.9364 C   0  0  0  0  0  0  0  0  0  0  0  0
   27.5111    7.8018   54.2454 C   0  0  0  0  0  0  0  0  0  0  0  0
   28.3010    8.8110   53.3611 C   0  0  0  0  0  0  0  0  0  0  0  0
   28.8237    8.3448   54.6763 C   0  0  0  0  0  0  0  0  0  0  0  0
   21.3563   11.5410   51.1262 C   0  0  0  0  0  0  0  0  0  0  0  0
   21.8800   12.8110   51.4861 N   0  0  0  0  0  0  0  0  0  0  0  0
   20.7470   11.3769   50.0422 O   0  0  0  0  0  0  0  0  0  0  0  0
   21.3526   13.6605   51.1301 H   0  0  0  0  0  0  0  0  0  0  0  0
   22.7303   12.9550   52.0647 H   0  0  0  0  0  0  0  0  0  0  0  0
 18 19  1  0  0  0
 19 20  1  0  0  0
 19 21  1  0  0  0
 19 11  1  0  0  0
 11 12  2  0  0  0
 12 13  1  0  0  0
 13 14  2  0  0  0
 14 15  1  0  0  0
 15 16  2  0  0  0
 16 17  1  0  0  0
 15  1  1  0  0  0
  1  2  2  0  0  0
  2  3  1  0  0  0
  3  4  2  0  0  0
  4  5  1  0  0  0
  5  6  2  0  0  0
  6  7  1  0  0  0
  7  8  2  0  0  0
  8  9  1  0  0  0
  9 10  2  0  0  0
  7 31  1  0  0  0
 31 32  1  0  0  0
 31 33  2  0  0  0
  5 22  1  0  0  0
 22 23  2  0  0  0
 23 24  1  0  0  0
 24 25  2  0  0  0
 25 26  1  0  0  0
 26 27  2  0  0  0
 26 28  1  0  0  0
 28 29  1  0  0  0
 29 30  1  0  0  0
 16 11  1  0  0  0
 10  1  1  0  0  0
 27 22  1  0  0  0
 30 28  1  0  0  0
  9  4  1  0  0  0
 32 34  1  0  0  0
 32 35  1  0  0  0
M  END
> <minimizedAffinity>
42.96040

> <CNNscore>
0.4677069783

> <CNNaffinity>
6.7401351929

> <CNN_VS>
3.1524083614

> <CNNaffinity_variance>
0.7446061373

$$$$
[H]c1nc(C2([H])C([H])([H])C2([H])[H])c([H])c(-c2c([H])c(C(=O)N([H])[H])nc3c([H])c(-c4c([H])c([H])nc(C(F)(F)F)c4Cl)c([H])c([H])c23)c1[H]


 35 39  0  0  0  0  0  0  0  0999 V2000
   20.7748    5.7784   53.4219 C   0  0  0  0  0  0  0  0  0  0  0  0
   22.0004    5.5866   54.0227 C   0  0  0  0  0  0  0  0  0  0  0  0
   22.9332    6.6281   54.0818 C   0  0  0  0  0  0  0  0  0  0  0  0
   22.6631    7.8680   53.5473 C   0  0  0  0  0  0  0  0  0  0  0  0
   23.5267    8.9283   53.5804 C   0  0  0  0  0  0  0  0  0  0  0  0
   23.1389   10.1291   53.0214 C   0  0  0  0  0  0  0  0  0  0  0  0
   21.8903   10.2816   52.4252 C   0  0  0  0  0  0  0  0  0  0  0  0
   21.0572    9.2365   52.3989 N   0  0  0  0  0  0  0  0  0  0  0  0
   21.4133    8.0486   52.9405 C   0  0  0  0  0  0  0  0  0  0  0  0
   20.5162    7.0089   52.8964 C   0  0  0  0  0  0  0  0  0  0  0  0
   17.6629    3.6379   53.6653 C   0  0  0  0  0  0  0  0  0  0  0  0
   18.1712    2.4585   53.2724 N   0  0  0  0  0  0  0  0  0  0  0  0
   19.4568    2.3116   52.9358 C   0  0  0  0  0  0  0  0  0  0  0  0
   20.2844    3.3882   52.9902 C   0  0  0  0  0  0  0  0  0  0  0  0
   19.8500    4.6570   53.3862 C   0  0  0  0  0  0  0  0  0  0  0  0
   18.5155    4.7421   53.7203 C   0  0  0  0  0  0  0  0  0  0  0  0
   17.8432    6.2564   54.2378 Cl  0  0  0  0  0  0  0  0  0  0  0  0
   16.1304    3.7252   55.4116 F   0  0  0  0  0  0  0  0  0  0  0  0
   16.2280    3.7744   54.0346 C   0  0  0  0  0  0  0  0  0  0  0  0
   15.7324    5.0201   53.6539 F   0  0  0  0  0  0  0  0  0  0  0  0
   15.5047    2.7486   53.4510 F   0  0  0  0  0  0  0  0  0  0  0  0
   24.8519    8.7849   54.1626 C   0  0  0  0  0  0  0  0  0  0  0  0
   25.8053    8.0798   53.4166 C   0  0  0  0  0  0  0  0  0  0  0  0
   27.0500    7.8851   53.9373 C   0  0  0  0  0  0  0  0  0  0  0  0
   27.3655    8.3650   55.1595 N   0  0  0  0  0  0  0  0  0  0  0  0
   26.4535    9.0480   55.8908 C   0  0  0  0  0  0  0  0  0  0  0  0
   25.1920    9.2652   55.4037 C   0  0  0  0  0  0  0  0  0  0  0  0
   26.8422    9.5495   57.2116 C   0  0  0  0  0  0  0  0  0  0  0  0
   28.0713    8.7975   57.8018 C   0  0  0  0  0  0  0  0  0  0  0  0
   28.1389   10.2386   57.4287 C   0  0  0  0  0  0  0  0  0  0  0  0
   21.4725   11.5436   51.8334 C   0  0  0  0  0  0  0  0  0  0  0  0
   21.4516   12.7388   52.6000 N   0  0  0  0  0  0  0  0  0  0  0  0
   21.1313   11.5442   50.6264 O   0  0  0  0  0  0  0  0  0  0  0  0
   20.7173   13.4588   52.3374 H   0  0  0  0  0  0  0  0  0  0  0  0
   22.0983   12.9458   53.3857 H   0  0  0  0  0  0  0  0  0  0  0  0
 18 19  1  0  0  0
 19 20  1  0  0  0
 19 21  1  0  0  0
 19 11  1  0  0  0
 11 12  2  0  0  0
 12 13  1  0  0  0
 13 14  2  0  0  0
 14 15  1  0  0  0
 15 16  2  0  0  0
 16 17  1  0  0  0
 15  1  1  0  0  0
  1  2  2  0  0  0
  2  3  1  0  0  0
  3  4  2  0  0  0
  4  5  1  0  0  0
  5  6  2  0  0  0
  6  7  1  0  0  0
  7  8  2  0  0  0
  8  9  1  0  0  0
  9 10  2  0  0  0
  7 31  1  0  0  0
 31 32  1  0  0  0
 31 33  2  0  0  0
  5 22  1  0  0  0
 22 23  2  0  0  0
 23 24  1  0  0  0
 24 25  2  0  0  0
 25 26  1  0  0  0
 26 27  2  0  0  0
 26 28  1  0  0  0
 28 29  1  0  0  0
 29 30  1  0  0  0
 16 11  1  0  0  0
 10  1  1  0  0  0
 27 22  1  0  0  0
 30 28  1  0  0  0
  9  4  1  0  0  0
 32 34  1  0  0  0
 32 35  1  0  0  0
M  END
> <minimizedAffinity>
28.34389

> <CNNscore>
0.4554482996

> <CNNaffinity>
6.6614890099

> <CNN_VS>
3.0339639187

> <CNNaffinity_variance>
0.3156569898

$$$$
[H]c1nc(C2([H])C([H])([H])C2([H])[H])c([H])c(-c2c([H])c(C(=O)N([H])[H])nc3c([H])c(-c4c([H])c([H])nc(C(F)(F)F)c4Cl)c([H])c([H])c23)c1[H]


 35 39  0  0  0  0  0  0  0  0999 V2000
   20.4626    5.5952   53.4007 C   0  0  0  0  0  0  0  0  0  0  0  0
   19.8324    6.8057   53.2067 C   0  0  0  0  0  0  0  0  0  0  0  0
   20.5522    8.0029   53.2910 C   0  0  0  0  0  0  0  0  0  0  0  0
   21.9009    8.0142   53.5683 C   0  0  0  0  0  0  0  0  0  0  0  0
   22.6622    9.1473   53.6552 C   0  0  0  0  0  0  0  0  0  0  0  0
   24.0105    9.0324   53.9267 C   0  0  0  0  0  0  0  0  0  0  0  0
   24.6088    7.7897   54.1146 C   0  0  0  0  0  0  0  0  0  0  0  0
   23.8523    6.6910   54.0282 N   0  0  0  0  0  0  0  0  0  0  0  0
   22.5282    6.7766   53.7625 C   0  0  0  0  0  0  0  0  0  0  0  0
   21.7974    5.6165   53.6739 C   0  0  0  0  0  0  0  0  0  0  0  0
   17.5816    3.1419   53.4783 C   0  0  0  0  0  0  0  0  0  0  0  0
   18.2233    2.0306   53.0822 N   0  0  0  0  0  0  0  0  0  0  0  0
   19.5288    2.0243   52.7936 C   0  0  0  0  0  0  0  0  0  0  0  0
   20.2382    3.1784   52.9022 C   0  0  0  0  0  0  0  0  0  0  0  0
   19.6605    4.3861   53.3062 C   0  0  0  0  0  0  0  0  0  0  0  0
   18.3129    4.3260   53.5890 C   0  0  0  0  0  0  0  0  0  0  0  0
   17.4690    5.7506   54.1098 Cl  0  0  0  0  0  0  0  0  0  0  0  0
   15.6114    1.9120   53.3714 F   0  0  0  0  0  0  0  0  0  0  0  0
   16.1276    3.1217   53.7934 C   0  0  0  0  0  0  0  0  0  0  0  0
   15.9158    3.1759   55.1699 F   0  0  0  0  0  0  0  0  0  0  0  0
   15.5042    4.1767   53.1496 F   0  0  0  0  0  0  0  0  0  0  0  0
   22.0547   10.4599   53.5015 C   0  0  0  0  0  0  0  0  0  0  0  0
   21.4520   11.0223   54.6342 C   0  0  0  0  0  0  0  0  0  0  0  0
   20.8349   12.2335   54.5306 C   0  0  0  0  0  0  0  0  0  0  0  0
   20.8024   12.8884   53.3500 N   0  0  0  0  0  0  0  0  0  0  0  0
   21.3810   12.3561   52.2478 C   0  0  0  0  0  0  0  0  0  0  0  0
   22.0110   11.1416   52.3098 C   0  0  0  0  0  0  0  0  0  0  0  0
   21.3199   13.1039   50.9891 C   0  0  0  0  0  0  0  0  0  0  0  0
   20.5277   14.4379   51.1209 C   0  0  0  0  0  0  0  0  0  0  0  0
   21.9901   14.4194   50.8354 C   0  0  0  0  0  0  0  0  0  0  0  0
   26.0295    7.6584   54.4011 C   0  0  0  0  0  0  0  0  0  0  0  0
   26.7654    8.7378   54.9578 N   0  0  0  0  0  0  0  0  0  0  0  0
   26.5843    6.5639   54.1415 O   0  0  0  0  0  0  0  0  0  0  0  0
   27.7904    8.8021   54.6898 H   0  0  0  0  0  0  0  0  0  0  0  0
   26.3687    9.4529   55.5980 H   0  0  0  0  0  0  0  0  0  0  0  0
 18 19  1  0  0  0
 19 20  1  0  0  0
 19 21  1  0  0  0
 19 11  1  0  0  0
 11 12  2  0  0  0
 12 13  1  0  0  0
 13 14  2  0  0  0
 14 15  1  0  0  0
 15 16  2  0  0  0
 16 17  1  0  0  0
 15  1  1  0  0  0
  1  2  2  0  0  0
  2  3  1  0  0  0
  3  4  2  0  0  0
  4  5  1  0  0  0
  5  6  2  0  0  0
  6  7  1  0  0  0
  7  8  2  0  0  0
  8  9  1  0  0  0
  9 10  2  0  0  0
  7 31  1  0  0  0
 31 32  1  0  0  0
 31 33  2  0  0  0
  5 22  1  0  0  0
 22 23  2  0  0  0
 23 24  1  0  0  0
 24 25  2  0  0  0
 25 26  1  0  0  0
 26 27  2  0  0  0
 26 28  1  0  0  0
 28 29  1  0  0  0
 29 30  1  0  0  0
 16 11  1  0  0  0
 10  1  1  0  0  0
 27 22  1  0  0  0
 30 28  1  0  0  0
  9  4  1  0  0  0
 32 34  1  0  0  0
 32 35  1  0  0  0
M  END
> <minimizedAffinity>
37.26479

> <CNNscore>
0.4100131392

> <CNNaffinity>
6.5700697899

> <CNN_VS>
2.6938149929

> <CNNaffinity_variance>
0.2200758457

$$$$
[H]c1nc(C2([H])C([H])([H])C2([H])[H])c([H])c(-c2c([H])c(C(=O)N([H])[H])nc3c([H])c(-c4c([H])c([H])nc(C(F)(F)F)c4Cl)c([H])c([H])c23)c1[H]


 35 39  0  0  0  0  0  0  0  0999 V2000
   23.3682    7.6878   53.4500 C   0  0  0  0  0  0  0  0  0  0  0  0
   23.8896    7.9885   52.2099 C   0  0  0  0  0  0  0  0  0  0  0  0
   25.2049    8.4499   52.0852 C   0  0  0  0  0  0  0  0  0  0  0  0
   26.0161    8.6187   53.1849 C   0  0  0  0  0  0  0  0  0  0  0  0
   27.3108    9.0565   53.1299 C   0  0  0  0  0  0  0  0  0  0  0  0
   28.0313    9.1742   54.3012 C   0  0  0  0  0  0  0  0  0  0  0  0
   27.4674    8.8583   55.5340 C   0  0  0  0  0  0  0  0  0  0  0  0
   26.2007    8.4330   55.5728 N   0  0  0  0  0  0  0  0  0  0  0  0
   25.4731    8.3085   54.4387 C   0  0  0  0  0  0  0  0  0  0  0  0
   24.1788    7.8572   54.5322 C   0  0  0  0  0  0  0  0  0  0  0  0
   20.2883    5.4887   53.5044 C   0  0  0  0  0  0  0  0  0  0  0  0
   19.3441    6.4300   53.6655 N   0  0  0  0  0  0  0  0  0  0  0  0
   19.6404    7.7306   53.7556 C   0  0  0  0  0  0  0  0  0  0  0  0
   20.9398    8.1220   53.6828 C   0  0  0  0  0  0  0  0  0  0  0  0
   21.9938    7.2182   53.5161 C   0  0  0  0  0  0  0  0  0  0  0  0
   21.6224    5.8936   53.4298 C   0  0  0  0  0  0  0  0  0  0  0  0
   22.8285    4.6643   53.2136 Cl  0  0  0  0  0  0  0  0  0  0  0  0
   19.2285    3.8555   52.2335 F   0  0  0  0  0  0  0  0  0  0  0  0
   19.9316    4.0475   53.4069 C   0  0  0  0  0  0  0  0  0  0  0  0
   21.0753    3.2571   53.3087 F   0  0  0  0  0  0  0  0  0  0  0  0
   19.1685    3.6887   54.5046 F   0  0  0  0  0  0  0  0  0  0  0  0
   27.9118    9.4301   51.8591 C   0  0  0  0  0  0  0  0  0  0  0  0
   28.5541   10.6735   51.7964 C   0  0  0  0  0  0  0  0  0  0  0  0
   29.0984   11.0854   50.6163 C   0  0  0  0  0  0  0  0  0  0  0  0
   29.0217   10.3061   49.5161 N   0  0  0  0  0  0  0  0  0  0  0  0
   28.4038    9.1023   49.5631 C   0  0  0  0  0  0  0  0  0  0  0  0
   27.8442    8.6520   50.7292 C   0  0  0  0  0  0  0  0  0  0  0  0
   28.3457    8.2921   48.3435 C   0  0  0  0  0  0  0  0  0  0  0  0
   27.9184    9.1171   47.0941 C   0  0  0  0  0  0  0  0  0  0  0  0
   29.2799    8.5236   47.2135 C   0  0  0  0  0  0  0  0  0  0  0  0
   28.2190    8.9790   56.7742 C   0  0  0  0  0  0  0  0  0  0  0  0
   27.8384    9.9161   57.7710 N   0  0  0  0  0  0  0  0  0  0  0  0
   29.2127    8.2310   56.9363 O   0  0  0  0  0  0  0  0  0  0  0  0
   28.6195   10.3229   58.3635 H   0  0  0  0  0  0  0  0  0  0  0  0
   26.8620   10.2206   57.9509 H   0  0  0  0  0  0  0  0  0  0  0  0
 18 19  1  0  0  0
 19 20  1  0  0  0
 19 21  1  0  0  0
 19 11  1  0  0  0
 11 12  2  0  0  0
 12 13  1  0  0  0
 13 14  2  0  0  0
 14 15  1  0  0  0
 15 16  2  0  0  0
 16 17  1  0  0  0
 15  1  1  0  0  0
  1  2  2  0  0  0
  2  3  1  0  0  0
  3  4  2  0  0  0
  4  5  1  0  0  0
  5  6  2  0  0  0
  6  7  1  0  0  0
  7  8  2  0  0  0
  8  9  1  0  0  0
  9 10  2  0  0  0
  7 31  1  0  0  0
 31 32  1  0  0  0
 31 33  2  0  0  0
  5 22  1  0  0  0
 22 23  2  0  0  0
 23 24  1  0  0  0
 24 25  2  0  0  0
 25 26  1  0  0  0
 26 27  2  0  0  0
 26 28  1  0  0  0
 28 29  1  0  0  0
 29 30  1  0  0  0
 16 11  1  0  0  0
 10  1  1  0  0  0
 27 22  1  0  0  0
 30 28  1  0  0  0
  9  4  1  0  0  0
 32 34  1  0  0  0
 32 35  1  0  0  0
M  END
> <minimizedAffinity>
42.62007

> <CNNscore>
0.4067323804

> <CNNaffinity>
6.4364290237

> <CNN_VS>
2.6179041862

> <CNNaffinity_variance>
0.5151728392

$$$$
[H]c1nc(C2([H])C([H])([H])C2([H])[H])c([H])c(-c2c([H])c(C(=O)N([H])[H])nc3c([H])c(-c4c([H])c([H])nc(C(F)(F)F)c4Cl)c([H])c([H])c23)c1[H]


 35 39  0  0  0  0  0  0  0  0999 V2000
   25.1030    8.0969   54.1724 C   0  0  0  0  0  0  0  0  0  0  0  0
   24.6366    9.1824   53.4624 C   0  0  0  0  0  0  0  0  0  0  0  0
   23.3682    9.1532   52.8720 C   0  0  0  0  0  0  0  0  0  0  0  0
   22.5500    8.0507   52.9775 C   0  0  0  0  0  0  0  0  0  0  0  0
   21.2985    7.9626   52.4325 C   0  0  0  0  0  0  0  0  0  0  0  0
   20.5648    6.8081   52.6162 C   0  0  0  0  0  0  0  0  0  0  0  0
   21.0725    5.7343   53.3421 C   0  0  0  0  0  0  0  0  0  0  0  0
   22.2975    5.8340   53.8678 N   0  0  0  0  0  0  0  0  0  0  0  0
   23.0368    6.9552   53.7025 C   0  0  0  0  0  0  0  0  0  0  0  0
   24.2859    7.0108   54.2720 C   0  0  0  0  0  0  0  0  0  0  0  0
   27.9948    8.8170   56.5056 C   0  0  0  0  0  0  0  0  0  0  0  0
   28.9990    8.2889   55.7870 N   0  0  0  0  0  0  0  0  0  0  0  0
   28.8002    7.7167   54.5952 C   0  0  0  0  0  0  0  0  0  0  0  0
   27.5412    7.6633   54.0862 C   0  0  0  0  0  0  0  0  0  0  0  0
   26.4310    8.1846   54.7579 C   0  0  0  0  0  0  0  0  0  0  0  0
   26.7025    8.7608   55.9803 C   0  0  0  0  0  0  0  0  0  0  0  0
   25.4183    9.4552   56.9191 Cl  0  0  0  0  0  0  0  0  0  0  0  0
   27.1733    9.1579   58.6538 F   0  0  0  0  0  0  0  0  0  0  0  0
   28.2432    9.4483   57.8299 C   0  0  0  0  0  0  0  0  0  0  0  0
   29.3667    8.8954   58.4420 F   0  0  0  0  0  0  0  0  0  0  0  0
   28.3845   10.8156   57.6668 F   0  0  0  0  0  0  0  0  0  0  0  0
   20.7596    9.0546   51.6370 C   0  0  0  0  0  0  0  0  0  0  0  0
   19.6142    8.7871   50.8761 C   0  0  0  0  0  0  0  0  0  0  0  0
   19.0947    9.7673   50.0838 C   0  0  0  0  0  0  0  0  0  0  0  0
   19.6749   10.9855   50.0297 N   0  0  0  0  0  0  0  0  0  0  0  0
   20.7821   11.2572   50.7599 C   0  0  0  0  0  0  0  0  0  0  0  0
   21.3352   10.3000   51.5684 C   0  0  0  0  0  0  0  0  0  0  0  0
   21.3761   12.5936   50.6683 C   0  0  0  0  0  0  0  0  0  0  0  0
   20.7964   13.5822   51.7224 C   0  0  0  0  0  0  0  0  0  0  0  0
   22.2200   13.1435   51.7587 C   0  0  0  0  0  0  0  0  0  0  0  0
   20.3065    4.5132   53.5413 C   0  0  0  0  0  0  0  0  0  0  0  0
   18.9281    4.5622   53.8792 N   0  0  0  0  0  0  0  0  0  0  0  0
   20.9000    3.4165   53.4058 O   0  0  0  0  0  0  0  0  0  0  0  0
   18.5580    3.7697   54.4806 H   0  0  0  0  0  0  0  0  0  0  0  0
   18.2745    5.3114   53.5793 H   0  0  0  0  0  0  0  0  0  0  0  0
 18 19  1  0  0  0
 19 20  1  0  0  0
 19 21  1  0  0  0
 19 11  1  0  0  0
 11 12  2  0  0  0
 12 13  1  0  0  0
 13 14  2  0  0  0
 14 15  1  0  0  0
 15 16  2  0  0  0
 16 17  1  0  0  0
 15  1  1  0  0  0
  1  2  2  0  0  0
  2  3  1  0  0  0
  3  4  2  0  0  0
  4  5  1  0  0  0
  5  6  2  0  0  0
  6  7  1  0  0  0
  7  8  2  0  0  0
  8  9  1  0  0  0
  9 10  2  0  0  0
  7 31  1  0  0  0
 31 32  1  0  0  0
 31 33  2  0  0  0
  5 22  1  0  0  0
 22 23  2  0  0  0
 23 24  1  0  0  0
 24 25  2  0  0  0
 25 26  1  0  0  0
 26 27  2  0  0  0
 26 28  1  0  0  0
 28 29  1  0  0  0
 29 30  1  0  0  0
 16 11  1  0  0  0
 10  1  1  0  0  0
 27 22  1  0  0  0
 30 28  1  0  0  0
  9  4  1  0  0  0
 32 34  1  0  0  0
 32 35  1  0  0  0
M  END
> <minimizedAffinity>
38.26967

> <CNNscore>
0.3663879335

> <CNNaffinity>
6.6588273048

> <CNN_VS>
2.4397139549

> <CNNaffinity_variance>
0.9234029651

$$$$
[H]c1nc(C2([H])C([H])([H])C2([H])[H])c([H])c(-c2c([H])c(C(=O)N([H])[H])nc3c([H])c(-c4c([H])c([H])nc(C(F)(F)F)c4Cl)c([H])c([H])c23)c1[H]


 35 39  0  0  0  0  0  0  0  0999 V2000
   23.4238    7.8189   54.0645 C   0  0  0  0  0  0  0  0  0  0  0  0
   23.8258    7.9519   55.3763 C   0  0  0  0  0  0  0  0  0  0  0  0
   25.1136    8.4064   55.6819 C   0  0  0  0  0  0  0  0  0  0  0  0
   26.0154    8.7328   54.6940 C   0  0  0  0  0  0  0  0  0  0  0  0
   27.2833    9.1906   54.9260 C   0  0  0  0  0  0  0  0  0  0  0  0
   28.0942    9.4983   53.8524 C   0  0  0  0  0  0  0  0  0  0  0  0
   27.6488    9.3512   52.5419 C   0  0  0  0  0  0  0  0  0  0  0  0
   26.4079    8.9015   52.3301 N   0  0  0  0  0  0  0  0  0  0  0  0
   25.5929    8.5934   53.3655 C   0  0  0  0  0  0  0  0  0  0  0  0
   24.3229    8.1450   53.0938 C   0  0  0  0  0  0  0  0  0  0  0  0
   20.4357    5.5911   53.4065 C   0  0  0  0  0  0  0  0  0  0  0  0
   19.4715    6.5237   53.3404 N   0  0  0  0  0  0  0  0  0  0  0  0
   19.7271    7.8271   53.4932 C   0  0  0  0  0  0  0  0  0  0  0  0
   21.0042    8.2305   53.7239 C   0  0  0  0  0  0  0  0  0  0  0  0
   22.0760    7.3365   53.8100 C   0  0  0  0  0  0  0  0  0  0  0  0
   21.7468    6.0085   53.6435 C   0  0  0  0  0  0  0  0  0  0  0  0
   22.9810    4.7903   53.7179 Cl  0  0  0  0  0  0  0  0  0  0  0  0
   21.3147    3.4459   53.2300 F   0  0  0  0  0  0  0  0  0  0  0  0
   20.1243    4.1465   53.2329 C   0  0  0  0  0  0  0  0  0  0  0  0
   19.3906    3.6620   54.3142 F   0  0  0  0  0  0  0  0  0  0  0  0
   19.4409    3.9645   52.0430 F   0  0  0  0  0  0  0  0  0  0  0  0
   27.7870    9.3166   56.2848 C   0  0  0  0  0  0  0  0  0  0  0  0
   27.8498    8.1479   57.0546 C   0  0  0  0  0  0  0  0  0  0  0  0
   28.2779    8.2214   58.3468 C   0  0  0  0  0  0  0  0  0  0  0  0
   28.6387    9.4068   58.8838 N   0  0  0  0  0  0  0  0  0  0  0  0
   28.5828   10.5437   58.1508 C   0  0  0  0  0  0  0  0  0  0  0  0
   28.1584   10.5127   56.8490 C   0  0  0  0  0  0  0  0  0  0  0  0
   28.9845   11.8062   58.7769 C   0  0  0  0  0  0  0  0  0  0  0  0
   28.1876   13.0276   58.2313 C   0  0  0  0  0  0  0  0  0  0  0  0
   28.0546   12.5723   59.6439 C   0  0  0  0  0  0  0  0  0  0  0  0
   28.4962    9.6731   51.4035 C   0  0  0  0  0  0  0  0  0  0  0  0
   28.4409    8.9043   50.2108 N   0  0  0  0  0  0  0  0  0  0  0  0
   29.2768   10.6494   51.5074 O   0  0  0  0  0  0  0  0  0  0  0  0
   29.3413    8.8253   49.6544 H   0  0  0  0  0  0  0  0  0  0  0  0
   27.5898    8.4250   49.8581 H   0  0  0  0  0  0  0  0  0  0  0  0
 18 19  1  0  0  0
 19 20  1  0  0  0
 19 21  1  0  0  0
 19 11  1  0  0  0
 11 12  2  0  0  0
 12 13  1  0  0  0
 13 14  2  0  0  0
 14 15  1  0  0  0
 15 16  2  0  0  0
 16 17  1  0  0  0
 15  1  1  0  0  0
  1  2  2  0  0  0
  2  3  1  0  0  0
  3  4  2  0  0  0
  4  5  1  0  0  0
  5  6  2  0  0  0
  6  7  1  0  0  0
  7  8  2  0  0  0
  8  9  1  0  0  0
  9 10  2  0  0  0
  7 31  1  0  0  0
 31 32  1  0  0  0
 31 33  2  0  0  0
  5 22  1  0  0  0
 22 23  2  0  0  0
 23 24  1  0  0  0
 24 25  2  0  0  0
 25 26  1  0  0  0
 26 27  2  0  0  0
 26 28  1  0  0  0
 28 29  1  0  0  0
 29 30  1  0  0  0
 16 11  1  0  0  0
 10  1  1  0  0  0
 27 22  1  0  0  0
 30 28  1  0  0  0
  9  4  1  0  0  0
 32 34  1  0  0  0
 32 35  1  0  0  0
M  END
> <minimizedAffinity>
38.59005

> <CNNscore>
0.3577535748

> <CNNaffinity>
6.2549390793

> <CNN_VS>
2.2377269268

> <CNNaffinity_variance>
0.6027176380

$$$$
[H]c1nc(C2([H])C([H])([H])C2([H])[H])c([H])c(-c2c([H])c(C(=O)N([H])[H])nc3c([H])c(-c4c([H])c([H])nc(C(F)(F)F)c4Cl)c([H])c([H])c23)c1[H]


 35 39  0  0  0  0  0  0  0  0999 V2000
   20.6844    5.4103   53.4596 C   0  0  0  0  0  0  0  0  0  0  0  0
   22.0218    5.2134   53.1904 C   0  0  0  0  0  0  0  0  0  0  0  0
   22.9367    6.2630   53.3309 C   0  0  0  0  0  0  0  0  0  0  0  0
   22.5378    7.5164   53.7380 C   0  0  0  0  0  0  0  0  0  0  0  0
   23.3818    8.5800   53.9033 C   0  0  0  0  0  0  0  0  0  0  0  0
   22.8666    9.7874   54.3294 C   0  0  0  0  0  0  0  0  0  0  0  0
   21.5087    9.9440   54.5922 C   0  0  0  0  0  0  0  0  0  0  0  0
   20.6954    8.8963   54.4249 N   0  0  0  0  0  0  0  0  0  0  0  0
   21.1757    7.7017   54.0087 C   0  0  0  0  0  0  0  0  0  0  0  0
   20.2992    6.6537   53.8626 C   0  0  0  0  0  0  0  0  0  0  0  0
   17.5980    3.2218   53.3612 C   0  0  0  0  0  0  0  0  0  0  0  0
   18.1484    2.0784   52.9215 N   0  0  0  0  0  0  0  0  0  0  0  0
   19.4544    1.9700   52.6569 C   0  0  0  0  0  0  0  0  0  0  0  0
   20.2599    3.0499   52.8362 C   0  0  0  0  0  0  0  0  0  0  0  0
   19.7816    4.2832   53.2898 C   0  0  0  0  0  0  0  0  0  0  0  0
   18.4278    4.3295   53.5446 C   0  0  0  0  0  0  0  0  0  0  0  0
   17.7008    5.7965   54.1209 Cl  0  0  0  0  0  0  0  0  0  0  0  0
   15.9813    3.5264   55.0041 F   0  0  0  0  0  0  0  0  0  0  0  0
   16.1411    3.3157   53.6484 C   0  0  0  0  0  0  0  0  0  0  0  0
   15.5790    4.4221   53.0140 F   0  0  0  0  0  0  0  0  0  0  0  0
   15.5194    2.1436   53.2537 F   0  0  0  0  0  0  0  0  0  0  0  0
   24.7985    8.4541   53.5986 C   0  0  0  0  0  0  0  0  0  0  0  0
   25.5664    7.6479   54.4489 C   0  0  0  0  0  0  0  0  0  0  0  0
   26.9064    7.5302   54.2276 C   0  0  0  0  0  0  0  0  0  0  0  0
   27.4922    8.1823   53.2004 N   0  0  0  0  0  0  0  0  0  0  0  0
   26.7617    8.9646   52.3713 C   0  0  0  0  0  0  0  0  0  0  0  0
   25.4128    9.1093   52.5593 C   0  0  0  0  0  0  0  0  0  0  0  0
   27.4417    9.6524   51.2705 C   0  0  0  0  0  0  0  0  0  0  0  0
   28.9926    9.5524   51.3665 C   0  0  0  0  0  0  0  0  0  0  0  0
   28.2323    8.9057   50.2601 C   0  0  0  0  0  0  0  0  0  0  0  0
   20.9563   11.2129   55.0418 C   0  0  0  0  0  0  0  0  0  0  0  0
   21.1770   12.4075   54.3065 N   0  0  0  0  0  0  0  0  0  0  0  0
   20.2798   11.2199   56.0980 O   0  0  0  0  0  0  0  0  0  0  0  0
   21.2202   13.3085   54.8659 H   0  0  0  0  0  0  0  0  0  0  0  0
   21.2960   12.4511   53.2757 H   0  0  0  0  0  0  0  0  0  0  0  0
 18 19  1  0  0  0
 19 20  1  0  0  0
 19 21  1  0  0  0
 19 11  1  0  0  0
 11 12  2  0  0  0
 12 13  1  0  0  0
 13 14  2  0  0  0
 14 15  1  0  0  0
 15 16  2  0  0  0
 16 17  1  0  0  0
 15  1  1  0  0  0
  1  2  2  0  0  0
  2  3  1  0  0  0
  3  4  2  0  0  0
  4  5  1  0  0  0
  5  6  2  0  0  0
  6  7  1  0  0  0
  7  8  2  0  0  0
  8  9  1  0  0  0
  9 10  2  0  0  0
  7 31  1  0  0  0
 31 32  1  0  0  0
 31 33  2  0  0  0
  5 22  1  0  0  0
 22 23  2  0  0  0
 23 24  1  0  0  0
 24 25  2  0  0  0
 25 26  1  0  0  0
 26 27  2  0  0  0
 26 28  1  0  0  0
 28 29  1  0  0  0
 29 30  1  0  0  0
 16 11  1  0  0  0
 10  1  1  0  0  0
 27 22  1  0  0  0
 30 28  1  0  0  0
  9  4  1  0  0  0
 32 34  1  0  0  0
 32 35  1  0  0  0
M  END
> <minimizedAffinity>
49.27100

> <CNNscore>
0.2903169692

> <CNNaffinity>
6.3899755478

> <CNN_VS>
1.8551182747

> <CNNaffinity_variance>
0.2595990300

$$$$
[H]c1c([H])c(C(=O)C([H])([H])[H])c([H])c(C2=C(c3c([H])c([H])c(F)c([H])c3F)Oc3c([H])c([H])c(C(F)(F)F)c([H])c3N([H])C2=O)c1[H]


 34 37  0  0  0  0  0  0  0  0999 V2000
   22.4551    7.2566   53.4723 C   0  0  0  0  0  0  0  0  0  0  0  0
   21.5212    7.9351   52.9276 C   0  0  0  0  0  0  0  0  0  0  0  0
   20.2991    7.4044   52.2975 O   0  0  0  0  0  0  0  0  0  0  0  0
   19.5045    6.4199   52.9167 C   0  0  0  0  0  0  0  0  0  0  0  0
   18.1490    6.6617   52.8944 C   0  0  0  0  0  0  0  0  0  0  0  0
   17.2398    5.7861   53.4726 C   0  0  0  0  0  0  0  0  0  0  0  0
   17.6906    4.6339   54.0920 C   0  0  0  0  0  0  0  0  0  0  0  0
   19.0632    4.4010   54.1030 C   0  0  0  0  0  0  0  0  0  0  0  0
   19.9413    5.2617   53.5369 C   0  0  0  0  0  0  0  0  0  0  0  0
   21.3160    4.8929   53.6405 N   0  0  0  0  0  0  0  0  0  0  0  0
   22.4686    5.7447   53.5710 C   0  0  0  0  0  0  0  0  0  0  0  0
   23.6107    5.2678   53.5901 O   0  0  0  0  0  0  0  0  0  0  0  0
   21.5052    3.8781   53.7858 H   0  0  0  0  0  0  0  0  0  0  0  0
   21.5461    9.3621   52.8697 C   0  0  0  0  0  0  0  0  0  0  0  0
   21.6813    9.9749   51.6217 C   0  0  0  0  0  0  0  0  0  0  0  0
   21.6202   11.3396   51.4632 C   0  0  0  0  0  0  0  0  0  0  0  0
   21.4158   12.1411   52.5550 C   0  0  0  0  0  0  0  0  0  0  0  0
   21.3573   13.5180   52.4227 F   0  0  0  0  0  0  0  0  0  0  0  0
   21.2775   11.5494   53.7984 C   0  0  0  0  0  0  0  0  0  0  0  0
   21.3423   10.1535   53.9524 C   0  0  0  0  0  0  0  0  0  0  0  0
   21.1169    9.7348   55.2294 F   0  0  0  0  0  0  0  0  0  0  0  0
   25.8792    8.5415   54.3836 C   0  0  0  0  0  0  0  0  0  0  0  0
   25.5820    9.2262   55.5562 C   0  0  0  0  0  0  0  0  0  0  0  0
   24.2759    9.2252   55.9806 C   0  0  0  0  0  0  0  0  0  0  0  0
   23.3289    8.5766   55.2652 C   0  0  0  0  0  0  0  0  0  0  0  0
   23.6165    7.8709   54.0594 C   0  0  0  0  0  0  0  0  0  0  0  0
   24.9041    7.8743   53.6539 C   0  0  0  0  0  0  0  0  0  0  0  0
   28.3575    8.4888   54.8337 C   0  0  0  0  0  0  0  0  0  0  0  0
   27.2300    8.5345   53.8668 C   0  0  0  0  0  0  0  0  0  0  0  0
   27.4857    8.5686   52.6494 O   0  0  0  0  0  0  0  0  0  0  0  0
   16.7185    3.7511   54.7256 C   0  0  0  0  0  0  0  0  0  0  0  0
   17.0865    3.2562   55.9681 F   0  0  0  0  0  0  0  0  0  0  0  0
   16.4389    2.6137   53.9418 F   0  0  0  0  0  0  0  0  0  0  0  0
   15.5006    4.4159   54.8658 F   0  0  0  0  0  0  0  0  0  0  0  0
 28 29  1  0  0  0
 29 30  2  0  0  0
 29 22  1  0  0  0
 22 23  2  0  0  0
 23 24  1  0  0  0
 24 25  2  0  0  0
 25 26  1  0  0  0
 26 27  2  0  0  0
 26  1  1  0  0  0
  1  2  2  0  0  0
  2  3  1  0  0  0
  3  4  1  0  0  0
  4  5  2  0  0  0
  5  6  1  0  0  0
  6  7  2  0  0  0
  7  8  1  0  0  0
  8  9  2  0  0  0
  9 10  1  0  0  0
 10 11  1  0  0  0
 11 12  2  0  0  0
  7 31  1  0  0  0
 31 32  1  0  0  0
 31 33  1  0  0  0
 31 34  1  0  0  0
  2 14  1  0  0  0
 14 15  2  0  0  0
 15 16  1  0  0  0
 16 17  2  0  0  0
 17 18  1  0  0  0
 17 19  1  0  0  0
 19 20  2  0  0  0
 20 21  1  0  0  0
 27 22  1  0  0  0
 11  1  1  0  0  0
 20 14  1  0  0  0
  9  4  1  0  0  0
 10 13  1  0  0  0
M  END
> <minimizedAffinity>
24.13149

> <CNNscore>
0.5154622793

> <CNNaffinity>
6.7316446304

> <CNN_VS>
3.4699089527

> <CNNaffinity_variance>
0.4205385149

$$$$
[H]c1c([H])c(C(=O)C([H])([H])[H])c([H])c(C2=C(c3c([H])c([H])c(F)c([H])c3F)Oc3c([H])c([H])c(C(F)(F)F)c([H])c3N([H])C2=O)c1[H]


 34 37  0  0  0  0  0  0  0  0999 V2000
   22.5888    7.1534   53.2299 C   0  0  0  0  0  0  0  0  0  0  0  0
   21.6122    7.8612   52.8120 C   0  0  0  0  0  0  0  0  0  0  0  0
   20.3225    7.3669   52.2978 O   0  0  0  0  0  0  0  0  0  0  0  0
   19.5839    6.3691   52.9635 C   0  0  0  0  0  0  0  0  0  0  0  0
   18.2375    6.6261   53.0944 C   0  0  0  0  0  0  0  0  0  0  0  0
   17.3822    5.7398   53.7354 C   0  0  0  0  0  0  0  0  0  0  0  0
   17.8795    4.5611   54.2624 C   0  0  0  0  0  0  0  0  0  0  0  0
   19.2420    4.3133   54.1186 C   0  0  0  0  0  0  0  0  0  0  0  0
   20.0673    5.1845   53.4926 C   0  0  0  0  0  0  0  0  0  0  0  0
   21.4397    4.7975   53.4359 N   0  0  0  0  0  0  0  0  0  0  0  0
   22.5907    5.6388   53.2736 C   0  0  0  0  0  0  0  0  0  0  0  0
   23.7213    5.1493   53.1540 O   0  0  0  0  0  0  0  0  0  0  0  0
   21.6286    3.7761   53.5245 H   0  0  0  0  0  0  0  0  0  0  0  0
   21.6515    9.2890   52.8018 C   0  0  0  0  0  0  0  0  0  0  0  0
   21.6458    9.9458   51.5689 C   0  0  0  0  0  0  0  0  0  0  0  0
   21.5868   11.3160   51.4670 C   0  0  0  0  0  0  0  0  0  0  0  0
   21.5265   12.0790   52.6030 C   0  0  0  0  0  0  0  0  0  0  0  0
   21.4734   13.4604   52.5272 F   0  0  0  0  0  0  0  0  0  0  0  0
   21.5289   11.4435   53.8324 C   0  0  0  0  0  0  0  0  0  0  0  0
   21.5906   10.0423   53.9283 C   0  0  0  0  0  0  0  0  0  0  0  0
   21.5131    9.5794   55.2076 F   0  0  0  0  0  0  0  0  0  0  0  0
   25.3674    8.8298   55.1467 C   0  0  0  0  0  0  0  0  0  0  0  0
   26.3973    8.7406   54.2175 C   0  0  0  0  0  0  0  0  0  0  0  0
   26.1199    8.1370   53.0154 C   0  0  0  0  0  0  0  0  0  0  0  0
   24.8820    7.6516   52.7680 C   0  0  0  0  0  0  0  0  0  0  0  0
   23.8148    7.7334   53.7109 C   0  0  0  0  0  0  0  0  0  0  0  0
   24.0971    8.3327   54.8871 C   0  0  0  0  0  0  0  0  0  0  0  0
   27.0037    9.4907   56.9449 C   0  0  0  0  0  0  0  0  0  0  0  0
   25.6063    9.4236   56.4438 C   0  0  0  0  0  0  0  0  0  0  0  0
   24.6919    9.8760   57.1563 O   0  0  0  0  0  0  0  0  0  0  0  0
   16.9675    3.6663   54.9648 C   0  0  0  0  0  0  0  0  0  0  0  0
   16.2297    2.8148   54.1556 F   0  0  0  0  0  0  0  0  0  0  0  0
   16.0146    4.3677   55.7305 F   0  0  0  0  0  0  0  0  0  0  0  0
   17.6805    2.8894   55.8773 F   0  0  0  0  0  0  0  0  0  0  0  0
 28 29  1  0  0  0
 29 30  2  0  0  0
 29 22  1  0  0  0
 22 23  2  0  0  0
 23 24  1  0  0  0
 24 25  2  0  0  0
 25 26  1  0  0  0
 26 27  2  0  0  0
 26  1  1  0  0  0
  1  2  2  0  0  0
  2  3  1  0  0  0
  3  4  1  0  0  0
  4  5  2  0  0  0
  5  6  1  0  0  0
  6  7  2  0  0  0
  7  8  1  0  0  0
  8  9  2  0  0  0
  9 10  1  0  0  0
 10 11  1  0  0  0
 11 12  2  0  0  0
  7 31  1  0  0  0
 31 32  1  0  0  0
 31 33  1  0  0  0
 31 34  1  0  0  0
  2 14  1  0  0  0
 14 15  2  0  0  0
 15 16  1  0  0  0
 16 17  2  0  0  0
 17 18  1  0  0  0
 17 19  1  0  0  0
 19 20  2  0  0  0
 20 21  1  0  0  0
 27 22  1  0  0  0
 11  1  1  0  0  0
 20 14  1  0  0  0
  9  4  1  0  0  0
 10 13  1  0  0  0
M  END
> <minimizedAffinity>
29.85864

> <CNNscore>
0.5066008568

> <CNNaffinity>
6.6628599167

> <CNN_VS>
3.3754105568

> <CNNaffinity_variance>
0.5304023027

$$$$
[H]c1c([H])c(C(=O)C([H])([H])[H])c([H])c(C2=C(c3c([H])c([H])c(F)c([H])c3F)Oc3c([H])c([H])c(C(F)(F)F)c([H])c3N([H])C2=O)c1[H]


 34 37  0  0  0  0  0  0  0  0999 V2000
   22.2817    7.1274   53.5250 C   0  0  0  0  0  0  0  0  0  0  0  0
   21.3478    7.7706   52.9391 C   0  0  0  0  0  0  0  0  0  0  0  0
   20.1399    7.1989   52.3176 O   0  0  0  0  0  0  0  0  0  0  0  0
   19.3478    6.2337   52.9695 C   0  0  0  0  0  0  0  0  0  0  0  0
   17.9903    6.4589   52.9194 C   0  0  0  0  0  0  0  0  0  0  0  0
   17.0829    5.5993   53.5241 C   0  0  0  0  0  0  0  0  0  0  0  0
   17.5380    4.4806   54.1993 C   0  0  0  0  0  0  0  0  0  0  0  0
   18.9128    4.2640   54.2380 C   0  0  0  0  0  0  0  0  0  0  0  0
   19.7889    5.1089   53.6457 C   0  0  0  0  0  0  0  0  0  0  0  0
   21.1660    4.7607   53.7829 N   0  0  0  0  0  0  0  0  0  0  0  0
   22.3102    5.6215   53.6905 C   0  0  0  0  0  0  0  0  0  0  0  0
   23.4570    5.1589   53.7451 O   0  0  0  0  0  0  0  0  0  0  0  0
   21.3642    3.7554   53.9751 H   0  0  0  0  0  0  0  0  0  0  0  0
   21.3581    9.1939   52.8186 C   0  0  0  0  0  0  0  0  0  0  0  0
   21.5193    9.9584   53.9766 C   0  0  0  0  0  0  0  0  0  0  0  0
   21.6352   11.3283   53.9420 C   0  0  0  0  0  0  0  0  0  0  0  0
   21.5980   11.9823   52.7391 C   0  0  0  0  0  0  0  0  0  0  0  0
   21.7057   13.3612   52.6782 F   0  0  0  0  0  0  0  0  0  0  0  0
   21.4412   11.2392   51.5821 C   0  0  0  0  0  0  0  0  0  0  0  0
   21.3222    9.8391   51.6258 C   0  0  0  0  0  0  0  0  0  0  0  0
   21.2452    9.2598   50.3949 F   0  0  0  0  0  0  0  0  0  0  0  0
   25.6738    8.5149   54.4049 C   0  0  0  0  0  0  0  0  0  0  0  0
   25.3631    9.2067   55.5698 C   0  0  0  0  0  0  0  0  0  0  0  0
   24.0591    9.1765   55.9997 C   0  0  0  0  0  0  0  0  0  0  0  0
   23.1270    8.4936   55.2969 C   0  0  0  0  0  0  0  0  0  0  0  0
   23.4286    7.7800   54.0991 C   0  0  0  0  0  0  0  0  0  0  0  0
   24.7140    7.8124   53.6881 C   0  0  0  0  0  0  0  0  0  0  0  0
   28.1545    8.5240   54.8448 C   0  0  0  0  0  0  0  0  0  0  0  0
   27.0223    8.5371   53.8824 C   0  0  0  0  0  0  0  0  0  0  0  0
   27.2722    8.5702   52.6638 O   0  0  0  0  0  0  0  0  0  0  0  0
   16.5671    3.6156   54.8589 C   0  0  0  0  0  0  0  0  0  0  0  0
   16.9088    3.2074   56.1399 F   0  0  0  0  0  0  0  0  0  0  0  0
   16.3364    2.4256   54.1400 F   0  0  0  0  0  0  0  0  0  0  0  0
   15.3312    4.2584   54.9227 F   0  0  0  0  0  0  0  0  0  0  0  0
 28 29  1  0  0  0
 29 30  2  0  0  0
 29 22  1  0  0  0
 22 23  2  0  0  0
 23 24  1  0  0  0
 24 25  2  0  0  0
 25 26  1  0  0  0
 26 27  2  0  0  0
 26  1  1  0  0  0
  1  2  2  0  0  0
  2  3  1  0  0  0
  3  4  1  0  0  0
  4  5  2  0  0  0
  5  6  1  0  0  0
  6  7  2  0  0  0
  7  8  1  0  0  0
  8  9  2  0  0  0
  9 10  1  0  0  0
 10 11  1  0  0  0
 11 12  2  0  0  0
  7 31  1  0  0  0
 31 32  1  0  0  0
 31 33  1  0  0  0
 31 34  1  0  0  0
  2 14  1  0  0  0
 14 15  2  0  0  0
 15 16  1  0  0  0
 16 17  2  0  0  0
 17 18  1  0  0  0
 17 19  1  0  0  0
 19 20  2  0  0  0
 20 21  1  0  0  0
 27 22  1  0  0  0
 11  1  1  0  0  0
 20 14  1  0  0  0
  9  4  1  0  0  0
 10 13  1  0  0  0
M  END
> <minimizedAffinity>
26.90849

> <CNNscore>
0.4786091447

> <CNNaffinity>
6.7223615646

> <CNN_VS>
3.2173836231

> <CNNaffinity_variance>
0.4617559910

$$$$
[H]c1c([H])c(C(=O)C([H])([H])[H])c([H])c(C2=C(c3c([H])c([H])c(F)c([H])c3F)Oc3c([H])c([H])c(C(F)(F)F)c([H])c3N([H])C2=O)c1[H]


 34 37  0  0  0  0  0  0  0  0999 V2000
   22.2629    6.9279   53.2754 C   0  0  0  0  0  0  0  0  0  0  0  0
   21.2814    7.6277   52.8556 C   0  0  0  0  0  0  0  0  0  0  0  0
   19.9816    7.1243   52.3768 O   0  0  0  0  0  0  0  0  0  0  0  0
   19.2517    6.1471   53.0812 C   0  0  0  0  0  0  0  0  0  0  0  0
   17.9084    6.4120   53.2283 C   0  0  0  0  0  0  0  0  0  0  0  0
   17.0616    5.5460   53.9070 C   0  0  0  0  0  0  0  0  0  0  0  0
   17.5645    4.3799   54.4566 C   0  0  0  0  0  0  0  0  0  0  0  0
   18.9236    4.1238   54.2963 C   0  0  0  0  0  0  0  0  0  0  0  0
   19.7406    4.9753   53.6333 C   0  0  0  0  0  0  0  0  0  0  0  0
   21.1107    4.5823   53.5635 N   0  0  0  0  0  0  0  0  0  0  0  0
   22.2612    5.4151   53.3593 C   0  0  0  0  0  0  0  0  0  0  0  0
   23.3882    4.9187   53.2335 O   0  0  0  0  0  0  0  0  0  0  0  0
   21.2980    3.5629   53.6760 H   0  0  0  0  0  0  0  0  0  0  0  0
   21.3248    9.0547   52.8067 C   0  0  0  0  0  0  0  0  0  0  0  0
   21.4947    9.7563   54.0026 C   0  0  0  0  0  0  0  0  0  0  0  0
   21.6418   11.1232   54.0375 C   0  0  0  0  0  0  0  0  0  0  0  0
   21.6282   11.8372   52.8687 C   0  0  0  0  0  0  0  0  0  0  0  0
   21.7675   13.2147   52.8778 F   0  0  0  0  0  0  0  0  0  0  0  0
   21.4631   11.1567   51.6749 C   0  0  0  0  0  0  0  0  0  0  0  0
   21.3122    9.7593   51.6476 C   0  0  0  0  0  0  0  0  0  0  0  0
   21.2312    9.2442   50.3887 F   0  0  0  0  0  0  0  0  0  0  0  0
   25.0556    8.7273   55.0555 C   0  0  0  0  0  0  0  0  0  0  0  0
   26.1071    8.4775   54.1814 C   0  0  0  0  0  0  0  0  0  0  0  0
   25.8385    7.7346   53.0580 C   0  0  0  0  0  0  0  0  0  0  0  0
   24.5882    7.2706   52.8325 C   0  0  0  0  0  0  0  0  0  0  0  0
   23.4987    7.5164   53.7198 C   0  0  0  0  0  0  0  0  0  0  0  0
   23.7727    8.2515   54.8183 C   0  0  0  0  0  0  0  0  0  0  0  0
   26.6586    9.5145   56.8326 C   0  0  0  0  0  0  0  0  0  0  0  0
   25.2825    9.4744   56.2730 C   0  0  0  0  0  0  0  0  0  0  0  0
   24.3747   10.0801   56.8708 O   0  0  0  0  0  0  0  0  0  0  0  0
   16.6620    3.5072   55.1980 C   0  0  0  0  0  0  0  0  0  0  0  0
   15.9290    2.6172   54.4268 F   0  0  0  0  0  0  0  0  0  0  0  0
   15.7055    4.2315   55.9374 F   0  0  0  0  0  0  0  0  0  0  0  0
   17.3842    2.7742   56.1393 F   0  0  0  0  0  0  0  0  0  0  0  0
 28 29  1  0  0  0
 29 30  2  0  0  0
 29 22  1  0  0  0
 22 23  2  0  0  0
 23 24  1  0  0  0
 24 25  2  0  0  0
 25 26  1  0  0  0
 26 27  2  0  0  0
 26  1  1  0  0  0
  1  2  2  0  0  0
  2  3  1  0  0  0
  3  4  1  0  0  0
  4  5  2  0  0  0
  5  6  1  0  0  0
  6  7  2  0  0  0
  7  8  1  0  0  0
  8  9  2  0  0  0
  9 10  1  0  0  0
 10 11  1  0  0  0
 11 12  2  0  0  0
  7 31  1  0  0  0
 31 32  1  0  0  0
 31 33  1  0  0  0
 31 34  1  0  0  0
  2 14  1  0  0  0
 14 15  2  0  0  0
 15 16  1  0  0  0
 16 17  2  0  0  0
 17 18  1  0  0  0
 17 19  1  0  0  0
 19 20  2  0  0  0
 20 21  1  0  0  0
 27 22  1  0  0  0
 11  1  1  0  0  0
 20 14  1  0  0  0
  9  4  1  0  0  0
 10 13  1  0  0  0
M  END
> <minimizedAffinity>
33.39389

> <CNNscore>
0.4357655644

> <CNNaffinity>
6.5328688622

> <CNN_VS>
2.8467993736

> <CNNaffinity_variance>
0.5910001993

$$$$
[H]c1c([H])c(C(=O)C([H])([H])[H])c([H])c(C2=C(c3c([H])c([H])c(F)c([H])c3F)Oc3c([H])c([H])c(C(F)(F)F)c([H])c3N([H])C2=O)c1[H]


 34 37  0  0  0  0  0  0  0  0999 V2000
   22.8622    7.9020   53.3094 C   0  0  0  0  0  0  0  0  0  0  0  0
   23.7983    8.7189   53.0165 C   0  0  0  0  0  0  0  0  0  0  0  0
   23.6973    9.8944   52.1332 O   0  0  0  0  0  0  0  0  0  0  0  0
   22.6407   10.8201   52.2366 C   0  0  0  0  0  0  0  0  0  0  0  0
   23.0173   12.1443   52.2098 C   0  0  0  0  0  0  0  0  0  0  0  0
   22.0886   13.1715   52.3112 C   0  0  0  0  0  0  0  0  0  0  0  0
   20.7437   12.8743   52.4427 C   0  0  0  0  0  0  0  0  0  0  0  0
   20.3779   11.5311   52.4641 C   0  0  0  0  0  0  0  0  0  0  0  0
   21.2915   10.5373   52.3653 C   0  0  0  0  0  0  0  0  0  0  0  0
   20.7649    9.2119   52.4161 N   0  0  0  0  0  0  0  0  0  0  0  0
   21.4436    8.0033   52.7871 C   0  0  0  0  0  0  0  0  0  0  0  0
   20.8772    6.9062   52.6992 O   0  0  0  0  0  0  0  0  0  0  0  0
   19.7617    9.1104   52.1513 H   0  0  0  0  0  0  0  0  0  0  0  0
   25.1193    8.5900   53.5445 C   0  0  0  0  0  0  0  0  0  0  0  0
   25.2676    8.3174   54.9064 C   0  0  0  0  0  0  0  0  0  0  0  0
   26.4959    8.0846   55.4793 C   0  0  0  0  0  0  0  0  0  0  0  0
   27.6234    8.1126   54.7021 C   0  0  0  0  0  0  0  0  0  0  0  0
   28.8722    7.8882   55.2561 F   0  0  0  0  0  0  0  0  0  0  0  0
   27.4934    8.3790   53.3502 C   0  0  0  0  0  0  0  0  0  0  0  0
   26.2342    8.6171   52.7722 C   0  0  0  0  0  0  0  0  0  0  0  0
   26.2787    8.7928   51.4217 F   0  0  0  0  0  0  0  0  0  0  0  0
   22.8797    5.3449   56.0782 C   0  0  0  0  0  0  0  0  0  0  0  0
   23.7581    4.4091   55.5447 C   0  0  0  0  0  0  0  0  0  0  0  0
   24.2949    4.6721   54.3082 C   0  0  0  0  0  0  0  0  0  0  0  0
   23.9638    5.8066   53.6505 C   0  0  0  0  0  0  0  0  0  0  0  0
   23.0630    6.7761   54.1829 C   0  0  0  0  0  0  0  0  0  0  0  0
   22.5450    6.5099   55.4007 C   0  0  0  0  0  0  0  0  0  0  0  0
   22.8635    4.1028   58.2701 C   0  0  0  0  0  0  0  0  0  0  0  0
   22.2550    5.1087   57.3612 C   0  0  0  0  0  0  0  0  0  0  0  0
   21.2301    5.7091   57.7322 O   0  0  0  0  0  0  0  0  0  0  0  0
   19.7933   13.9706   52.5868 C   0  0  0  0  0  0  0  0  0  0  0  0
   19.6873   14.8131   51.4898 F   0  0  0  0  0  0  0  0  0  0  0  0
   20.1094   14.8129   53.6716 F   0  0  0  0  0  0  0  0  0  0  0  0
   18.5260   13.4608   52.8674 F   0  0  0  0  0  0  0  0  0  0  0  0
 28 29  1  0  0  0
 29 30  2  0  0  0
 29 22  1  0  0  0
 22 23  2  0  0  0
 23 24  1  0  0  0
 24 25  2  0  0  0
 25 26  1  0  0  0
 26 27  2  0  0  0
 26  1  1  0  0  0
  1  2  2  0  0  0
  2  3  1  0  0  0
  3  4  1  0  0  0
  4  5  2  0  0  0
  5  6  1  0  0  0
  6  7  2  0  0  0
  7  8  1  0  0  0
  8  9  2  0  0  0
  9 10  1  0  0  0
 10 11  1  0  0  0
 11 12  2  0  0  0
  7 31  1  0  0  0
 31 32  1  0  0  0
 31 33  1  0  0  0
 31 34  1  0  0  0
  2 14  1  0  0  0
 14 15  2  0  0  0
 15 16  1  0  0  0
 16 17  2  0  0  0
 17 18  1  0  0  0
 17 19  1  0  0  0
 19 20  2  0  0  0
 20 21  1  0  0  0
 27 22  1  0  0  0
 11  1  1  0  0  0
 20 14  1  0  0  0
  9  4  1  0  0  0
 10 13  1  0  0  0
M  END
> <minimizedAffinity>
59.95203

> <CNNscore>
0.3993327320

> <CNNaffinity>
6.2290825844

> <CNN_VS>
2.4874765873

> <CNNaffinity_variance>
0.9560152292

$$$$
[H]c1c([H])c(C(=O)C([H])([H])[H])c([H])c(C2=C(c3c([H])c([H])c(F)c([H])c3F)Oc3c([H])c([H])c(C(F)(F)F)c([H])c3N([H])C2=O)c1[H]


 34 37  0  0  0  0  0  0  0  0999 V2000
   22.2676    8.7603   54.8381 C   0  0  0  0  0  0  0  0  0  0  0  0
   23.1664    7.8548   54.8763 C   0  0  0  0  0  0  0  0  0  0  0  0
   22.9593    6.4182   55.1319 O   0  0  0  0  0  0  0  0  0  0  0  0
   21.9504    5.6801   54.4827 C   0  0  0  0  0  0  0  0  0  0  0  0
   22.3472    4.4602   53.9819 C   0  0  0  0  0  0  0  0  0  0  0  0
   21.4667    3.6240   53.3087 C   0  0  0  0  0  0  0  0  0  0  0  0
   20.1507    4.0111   53.1275 C   0  0  0  0  0  0  0  0  0  0  0  0
   19.7634    5.2451   53.6429 C   0  0  0  0  0  0  0  0  0  0  0  0
   20.6301    6.0531   54.2971 C   0  0  0  0  0  0  0  0  0  0  0  0
   20.0886    7.2914   54.7553 N   0  0  0  0  0  0  0  0  0  0  0  0
   20.7891    8.5080   55.0524 C   0  0  0  0  0  0  0  0  0  0  0  0
   20.1923    9.4824   55.5283 O   0  0  0  0  0  0  0  0  0  0  0  0
   19.0551    7.3141   54.8898 H   0  0  0  0  0  0  0  0  0  0  0  0
   24.5487    8.1390   54.6548 C   0  0  0  0  0  0  0  0  0  0  0  0
   25.3020    8.6455   55.7165 C   0  0  0  0  0  0  0  0  0  0  0  0
   26.6573    8.8580   55.6197 C   0  0  0  0  0  0  0  0  0  0  0  0
   27.3084    8.5646   54.4509 C   0  0  0  0  0  0  0  0  0  0  0  0
   28.6709    8.7760   54.3260 F   0  0  0  0  0  0  0  0  0  0  0  0
   26.5767    8.0598   53.3901 C   0  0  0  0  0  0  0  0  0  0  0  0
   25.1913    7.8464   53.4965 C   0  0  0  0  0  0  0  0  0  0  0  0
   24.6399    7.2807   52.3862 F   0  0  0  0  0  0  0  0  0  0  0  0
   23.5742   12.2953   54.7882 C   0  0  0  0  0  0  0  0  0  0  0  0
   22.8373   12.8162   53.7310 C   0  0  0  0  0  0  0  0  0  0  0  0
   21.9534   11.9778   53.0969 C   0  0  0  0  0  0  0  0  0  0  0  0
   21.8235   10.6941   53.5024 C   0  0  0  0  0  0  0  0  0  0  0  0
   22.5730   10.1435   54.5840 C   0  0  0  0  0  0  0  0  0  0  0  0
   23.4353   10.9774   55.2031 C   0  0  0  0  0  0  0  0  0  0  0  0
   25.6680   12.4483   56.1810 C   0  0  0  0  0  0  0  0  0  0  0  0
   24.5460   13.1185   55.4738 C   0  0  0  0  0  0  0  0  0  0  0  0
   24.4790   14.3608   55.4983 O   0  0  0  0  0  0  0  0  0  0  0  0
   19.2567    3.1323   52.3830 C   0  0  0  0  0  0  0  0  0  0  0  0
   19.0240    3.4993   51.0656 F   0  0  0  0  0  0  0  0  0  0  0  0
   17.9803    3.0435   52.9738 F   0  0  0  0  0  0  0  0  0  0  0  0
   19.7619    1.8325   52.3893 F   0  0  0  0  0  0  0  0  0  0  0  0
 28 29  1  0  0  0
 29 30  2  0  0  0
 29 22  1  0  0  0
 22 23  2  0  0  0
 23 24  1  0  0  0
 24 25  2  0  0  0
 25 26  1  0  0  0
 26 27  2  0  0  0
 26  1  1  0  0  0
  1  2  2  0  0  0
  2  3  1  0  0  0
  3  4  1  0  0  0
  4  5  2  0  0  0
  5  6  1  0  0  0
  6  7  2  0  0  0
  7  8  1  0  0  0
  8  9  2  0  0  0
  9 10  1  0  0  0
 10 11  1  0  0  0
 11 12  2  0  0  0
  7 31  1  0  0  0
 31 32  1  0  0  0
 31 33  1  0  0  0
 31 34  1  0  0  0
  2 14  1  0  0  0
 14 15  2  0  0  0
 15 16  1  0  0  0
 16 17  2  0  0  0
 17 18  1  0  0  0
 17 19  1  0  0  0
 19 20  2  0  0  0
 20 21  1  0  0  0
 27 22  1  0  0  0
 11  1  1  0  0  0
 20 14  1  0  0  0
  9  4  1  0  0  0
 10 13  1  0  0  0
M  END
> <minimizedAffinity>
59.82403

> <CNNscore>
0.3976581097

> <CNNaffinity>
6.2426743507

> <CNN_VS>
2.4824500084

> <CNNaffinity_variance>
0.4123533666

$$$$
[H]c1c([H])c(C(=O)C([H])([H])[H])c([H])c(C2=C(c3c([H])c([H])c(F)c([H])c3F)Oc3c([H])c([H])c(C(F)(F)F)c([H])c3N([H])C2=O)c1[H]


 34 37  0  0  0  0  0  0  0  0999 V2000
   21.1973    8.4844   53.7771 C   0  0  0  0  0  0  0  0  0  0  0  0
   22.1350    7.7191   54.1827 C   0  0  0  0  0  0  0  0  0  0  0  0
   21.9844    6.3730   54.7637 O   0  0  0  0  0  0  0  0  0  0  0  0
   21.1572    5.3938   54.1797 C   0  0  0  0  0  0  0  0  0  0  0  0
   21.7174    4.1403   54.0751 C   0  0  0  0  0  0  0  0  0  0  0  0
   21.0272    3.0748   53.5129 C   0  0  0  0  0  0  0  0  0  0  0  0
   19.7401    3.2598   53.0402 C   0  0  0  0  0  0  0  0  0  0  0  0
   19.1856    4.5316   53.1566 C   0  0  0  0  0  0  0  0  0  0  0  0
   19.8675    5.5638   53.7057 C   0  0  0  0  0  0  0  0  0  0  0  0
   19.1714    6.8090   53.7430 N   0  0  0  0  0  0  0  0  0  0  0  0
   19.7247    8.1306   53.8212 C   0  0  0  0  0  0  0  0  0  0  0  0
   18.9891    9.1196   53.9345 O   0  0  0  0  0  0  0  0  0  0  0  0
   18.1311    6.7500   53.7080 H   0  0  0  0  0  0  0  0  0  0  0  0
   23.5121    8.0913   54.1090 C   0  0  0  0  0  0  0  0  0  0  0  0
   24.0398    8.8928   55.1241 C   0  0  0  0  0  0  0  0  0  0  0  0
   25.3743    9.2198   55.1829 C   0  0  0  0  0  0  0  0  0  0  0  0
   26.2313    8.7486   54.2238 C   0  0  0  0  0  0  0  0  0  0  0  0
   27.5777    9.0691   54.2569 F   0  0  0  0  0  0  0  0  0  0  0  0
   25.7247    7.9511   53.2124 C   0  0  0  0  0  0  0  0  0  0  0  0
   24.3589    7.6222   53.1587 C   0  0  0  0  0  0  0  0  0  0  0  0
   24.0421    6.7738   52.1406 F   0  0  0  0  0  0  0  0  0  0  0  0
   21.2595   12.1303   52.8239 C   0  0  0  0  0  0  0  0  0  0  0  0
   22.2806   12.1217   51.8808 C   0  0  0  0  0  0  0  0  0  0  0  0
   22.8883   10.9200   51.6113 C   0  0  0  0  0  0  0  0  0  0  0  0
   22.4924    9.7983   52.2550 C   0  0  0  0  0  0  0  0  0  0  0  0
   21.4478    9.7900   53.2263 C   0  0  0  0  0  0  0  0  0  0  0  0
   20.8542   10.9756   53.4801 C   0  0  0  0  0  0  0  0  0  0  0  0
   20.6322   14.4887   52.1977 C   0  0  0  0  0  0  0  0  0  0  0  0
   20.6040   13.3706   53.1761 C   0  0  0  0  0  0  0  0  0  0  0  0
   20.0222   13.5400   54.2630 O   0  0  0  0  0  0  0  0  0  0  0  0
   19.0519    2.1345   52.4188 C   0  0  0  0  0  0  0  0  0  0  0  0
   17.7078    2.0101   52.7384 F   0  0  0  0  0  0  0  0  0  0  0  0
   19.6309    0.8970   52.7645 F   0  0  0  0  0  0  0  0  0  0  0  0
   19.1624    2.2235   51.0315 F   0  0  0  0  0  0  0  0  0  0  0  0
 28 29  1  0  0  0
 29 30  2  0  0  0
 29 22  1  0  0  0
 22 23  2  0  0  0
 23 24  1  0  0  0
 24 25  2  0  0  0
 25 26  1  0  0  0
 26 27  2  0  0  0
 26  1  1  0  0  0
  1  2  2  0  0  0
  2  3  1  0  0  0
  3  4  1  0  0  0
  4  5  2  0  0  0
  5  6  1  0  0  0
  6  7  2  0  0  0
  7  8  1  0  0  0
  8  9  2  0  0  0
  9 10  1  0  0  0
 10 11  1  0  0  0
 11 12  2  0  0  0
  7 31  1  0  0  0
 31 32  1  0  0  0
 31 33  1  0  0  0
 31 34  1  0  0  0
  2 14  1  0  0  0
 14 15  2  0  0  0
 15 16  1  0  0  0
 16 17  2  0  0  0
 17 18  1  0  0  0
 17 19  1  0  0  0
 19 20  2  0  0  0
 20 21  1  0  0  0
 27 22  1  0  0  0
 11  1  1  0  0  0
 20 14  1  0  0  0
  9  4  1  0  0  0
 10 13  1  0  0  0
M  END
> <minimizedAffinity>
60.94642

> <CNNscore>
0.3819319606

> <CNNaffinity>
6.2082285881

> <CNN_VS>
2.3711209297

> <CNNaffinity_variance>
0.4430343509

$$$$
[H]c1c([H])c(C(=O)C([H])([H])[H])c([H])c(C2=C(c3c([H])c([H])c(F)c([H])c3F)Oc3c([H])c([H])c(C(F)(F)F)c([H])c3N([H])C2=O)c1[H]


 34 37  0  0  0  0  0  0  0  0999 V2000
   20.8794    7.7911   54.1387 C   0  0  0  0  0  0  0  0  0  0  0  0
   21.7459    6.8549   54.1840 C   0  0  0  0  0  0  0  0  0  0  0  0
   21.4973    5.4395   54.5112 O   0  0  0  0  0  0  0  0  0  0  0  0
   20.4382    4.7124   53.9336 C   0  0  0  0  0  0  0  0  0  0  0  0
   20.7712    3.4579   53.4736 C   0  0  0  0  0  0  0  0  0  0  0  0
   19.8358    2.6270   52.8716 C   0  0  0  0  0  0  0  0  0  0  0  0
   18.5285    3.0551   52.7222 C   0  0  0  0  0  0  0  0  0  0  0  0
   18.2060    4.3240   53.1958 C   0  0  0  0  0  0  0  0  0  0  0  0
   19.1259    5.1265   53.7806 C   0  0  0  0  0  0  0  0  0  0  0  0
   18.6475    6.4029   54.2027 N   0  0  0  0  0  0  0  0  0  0  0  0
   19.4022    7.6040   54.4189 C   0  0  0  0  0  0  0  0  0  0  0  0
   18.8597    8.6200   54.8725 O   0  0  0  0  0  0  0  0  0  0  0  0
   17.6214    6.4703   54.3743 H   0  0  0  0  0  0  0  0  0  0  0  0
   23.1279    7.0770   53.8989 C   0  0  0  0  0  0  0  0  0  0  0  0
   23.4691    8.1165   53.0304 C   0  0  0  0  0  0  0  0  0  0  0  0
   24.7758    8.4607   52.7746 C   0  0  0  0  0  0  0  0  0  0  0  0
   25.7907    7.7743   53.3870 C   0  0  0  0  0  0  0  0  0  0  0  0
   27.1143    8.0969   53.1408 F   0  0  0  0  0  0  0  0  0  0  0  0
   25.4693    6.7430   54.2523 C   0  0  0  0  0  0  0  0  0  0  0  0
   24.1310    6.3965   54.5078 C   0  0  0  0  0  0  0  0  0  0  0  0
   23.9914    5.4079   55.4350 F   0  0  0  0  0  0  0  0  0  0  0  0
   21.5565   11.1375   52.5424 C   0  0  0  0  0  0  0  0  0  0  0  0
   22.0206   11.8473   53.6438 C   0  0  0  0  0  0  0  0  0  0  0  0
   22.0859   11.1862   54.8458 C   0  0  0  0  0  0  0  0  0  0  0  0
   21.7042    9.8915   54.9315 C   0  0  0  0  0  0  0  0  0  0  0  0
   21.2243    9.1494   53.8118 C   0  0  0  0  0  0  0  0  0  0  0  0
   21.1686    9.8073   52.6344 C   0  0  0  0  0  0  0  0  0  0  0  0
   21.9735   13.1636   51.1041 C   0  0  0  0  0  0  0  0  0  0  0  0
   21.4323   11.7880   51.2565 C   0  0  0  0  0  0  0  0  0  0  0  0
   20.8894   11.2458   50.2769 O   0  0  0  0  0  0  0  0  0  0  0  0
   17.5753    2.1791   52.0515 C   0  0  0  0  0  0  0  0  0  0  0  0
   17.8404    0.8215   52.1561 F   0  0  0  0  0  0  0  0  0  0  0  0
   17.4958    2.4354   50.6679 F   0  0  0  0  0  0  0  0  0  0  0  0
   16.2930    2.4112   52.5480 F   0  0  0  0  0  0  0  0  0  0  0  0
 28 29  1  0  0  0
 29 30  2  0  0  0
 29 22  1  0  0  0
 22 23  2  0  0  0
 23 24  1  0  0  0
 24 25  2  0  0  0
 25 26  1  0  0  0
 26 27  2  0  0  0
 26  1  1  0  0  0
  1  2  2  0  0  0
  2  3  1  0  0  0
  3  4  1  0  0  0
  4  5  2  0  0  0
  5  6  1  0  0  0
  6  7  2  0  0  0
  7  8  1  0  0  0
  8  9  2  0  0  0
  9 10  1  0  0  0
 10 11  1  0  0  0
 11 12  2  0  0  0
  7 31  1  0  0  0
 31 32  1  0  0  0
 31 33  1  0  0  0
 31 34  1  0  0  0
  2 14  1  0  0  0
 14 15  2  0  0  0
 15 16  1  0  0  0
 16 17  2  0  0  0
 17 18  1  0  0  0
 17 19  1  0  0  0
 19 20  2  0  0  0
 20 21  1  0  0  0
 27 22  1  0  0  0
 11  1  1  0  0  0
 20 14  1  0  0  0
  9  4  1  0  0  0
 10 13  1  0  0  0
M  END
> <minimizedAffinity>
43.70471

> <CNNscore>
0.3747592568

> <CNNaffinity>
6.3592023849

> <CNN_VS>
2.3831698895

> <CNNaffinity_variance>
0.5467109680

$$$$
[H]c1c([H])c(C(=O)C([H])([H])[H])c([H])c(C2=C(c3c([H])c([H])c(F)c([H])c3F)Oc3c([H])c([H])c(C(F)(F)F)c([H])c3N([H])C2=O)c1[H]


 34 37  0  0  0  0  0  0  0  0999 V2000
   22.4445    7.9351   53.6581 C   0  0  0  0  0  0  0  0  0  0  0  0
   23.5073    8.5547   53.3176 C   0  0  0  0  0  0  0  0  0  0  0  0
   23.6765    9.4373   52.1494 O   0  0  0  0  0  0  0  0  0  0  0  0
   22.7411   10.4396   51.8266 C   0  0  0  0  0  0  0  0  0  0  0  0
   23.2820   11.6661   51.5113 C   0  0  0  0  0  0  0  0  0  0  0  0
   22.4854   12.7542   51.1807 C   0  0  0  0  0  0  0  0  0  0  0  0
   21.1084   12.6200   51.1621 C   0  0  0  0  0  0  0  0  0  0  0  0
   20.5764   11.3730   51.4790 C   0  0  0  0  0  0  0  0  0  0  0  0
   21.3621   10.3188   51.8007 C   0  0  0  0  0  0  0  0  0  0  0  0
   20.6704    9.1106   52.1143 N   0  0  0  0  0  0  0  0  0  0  0  0
   21.1342    8.0034   52.9003 C   0  0  0  0  0  0  0  0  0  0  0  0
   20.4510    6.9775   53.0148 O   0  0  0  0  0  0  0  0  0  0  0  0
   19.7077    9.0229   51.7238 H   0  0  0  0  0  0  0  0  0  0  0  0
   24.7173    8.4699   54.0719 C   0  0  0  0  0  0  0  0  0  0  0  0
   25.8449    7.9168   53.4604 C   0  0  0  0  0  0  0  0  0  0  0  0
   27.0729    7.8823   54.0786 C   0  0  0  0  0  0  0  0  0  0  0  0
   27.2149    8.4076   55.3356 C   0  0  0  0  0  0  0  0  0  0  0  0
   28.4390    8.3788   55.9819 F   0  0  0  0  0  0  0  0  0  0  0  0
   26.1078    8.9615   55.9544 C   0  0  0  0  0  0  0  0  0  0  0  0
   24.8555    8.9920   55.3163 C   0  0  0  0  0  0  0  0  0  0  0  0
   23.8926    9.6340   56.0356 F   0  0  0  0  0  0  0  0  0  0  0  0
   22.8794    5.3267   56.3437 C   0  0  0  0  0  0  0  0  0  0  0  0
   21.8895    5.7228   57.2354 C   0  0  0  0  0  0  0  0  0  0  0  0
   21.1357    6.8217   56.9030 C   0  0  0  0  0  0  0  0  0  0  0  0
   21.3683    7.4809   55.7452 C   0  0  0  0  0  0  0  0  0  0  0  0
   22.3809    7.0888   54.8202 C   0  0  0  0  0  0  0  0  0  0  0  0
   23.1127    6.0047   55.1545 C   0  0  0  0  0  0  0  0  0  0  0  0
   23.5052    3.4730   57.9310 C   0  0  0  0  0  0  0  0  0  0  0  0
   23.7290    4.1978   56.6532 C   0  0  0  0  0  0  0  0  0  0  0  0
   24.6390    3.8122   55.8971 O   0  0  0  0  0  0  0  0  0  0  0  0
   20.2934   13.7880   50.8501 C   0  0  0  0  0  0  0  0  0  0  0  0
   19.5483   14.2919   51.9061 F   0  0  0  0  0  0  0  0  0  0  0  0
   19.3588   13.5298   49.8273 F   0  0  0  0  0  0  0  0  0  0  0  0
   21.1055   14.8119   50.3634 F   0  0  0  0  0  0  0  0  0  0  0  0
 28 29  1  0  0  0
 29 30  2  0  0  0
 29 22  1  0  0  0
 22 23  2  0  0  0
 23 24  1  0  0  0
 24 25  2  0  0  0
 25 26  1  0  0  0
 26 27  2  0  0  0
 26  1  1  0  0  0
  1  2  2  0  0  0
  2  3  1  0  0  0
  3  4  1  0  0  0
  4  5  2  0  0  0
  5  6  1  0  0  0
  6  7  2  0  0  0
  7  8  1  0  0  0
  8  9  2  0  0  0
  9 10  1  0  0  0
 10 11  1  0  0  0
 11 12  2  0  0  0
  7 31  1  0  0  0
 31 32  1  0  0  0
 31 33  1  0  0  0
 31 34  1  0  0  0
  2 14  1  0  0  0
 14 15  2  0  0  0
 15 16  1  0  0  0
 16 17  2  0  0  0
 17 18  1  0  0  0
 17 19  1  0  0  0
 19 20  2  0  0  0
 20 21  1  0  0  0
 27 22  1  0  0  0
 11  1  1  0  0  0
 20 14  1  0  0  0
  9  4  1  0  0  0
 10 13  1  0  0  0
M  END
> <minimizedAffinity>
54.27366

> <CNNscore>
0.3307993412

> <CNNaffinity>
6.2479152679

> <CNN_VS>
2.0668063164

> <CNNaffinity_variance>
0.4712436795

$$$$
[H]c1c([H])c([H])c(-c2nc(-c3c([H])c([H])c(F)c(C(=O)N([H])[H])c3[H])n3c2C([H])([H])C([H])([H])O[C@]([H])(C([H])([H])[H])C3([H])[H])c(C#N)c1[H]


 31 34  0  0  0  0  0  0  0  0999 V2000
   21.8716   11.8839   53.0796 C   0  0  0  0  0  0  0  0  0  0  0  0
   21.6568   10.4182   52.7921 C   0  0  0  0  0  0  0  0  0  0  0  0
   23.0188    9.7530   52.6614 C   0  0  0  0  0  0  0  0  0  0  0  0
   22.9416    8.3449   52.9908 N   0  0  0  0  0  0  0  0  0  0  0  0
   21.8405    7.5771   52.7828 C   0  0  0  0  0  0  0  0  0  0  0  0
   20.6160    7.9590   52.0445 C   0  0  0  0  0  0  0  0  0  0  0  0
   20.9601    9.0822   51.0495 C   0  0  0  0  0  0  0  0  0  0  0  0
   20.8406   10.2775   51.7186 O   0  0  0  0  0  0  0  0  0  0  0  0
   22.0974    6.3415   53.3017 C   0  0  0  0  0  0  0  0  0  0  0  0
   23.3521    6.4237   53.7929 N   0  0  0  0  0  0  0  0  0  0  0  0
   23.8823    7.6411   53.6091 C   0  0  0  0  0  0  0  0  0  0  0  0
   25.2160    7.9933   54.0684 C   0  0  0  0  0  0  0  0  0  0  0  0
   26.2940    7.9326   53.1724 C   0  0  0  0  0  0  0  0  0  0  0  0
   27.5749    8.2911   53.4773 C   0  0  0  0  0  0  0  0  0  0  0  0
   27.8528    8.7475   54.7477 C   0  0  0  0  0  0  0  0  0  0  0  0
   29.1263    9.0992   55.0384 F   0  0  0  0  0  0  0  0  0  0  0  0
   26.8353    8.8283   55.6655 C   0  0  0  0  0  0  0  0  0  0  0  0
   25.5358    8.4533   55.3177 C   0  0  0  0  0  0  0  0  0  0  0  0
   27.1204    9.3118   57.0127 C   0  0  0  0  0  0  0  0  0  0  0  0
   27.8216   10.5124   57.2463 N   0  0  0  0  0  0  0  0  0  0  0  0
   26.7443    8.6639   58.0117 O   0  0  0  0  0  0  0  0  0  0  0  0
   27.3278   11.3109   57.6747 H   0  0  0  0  0  0  0  0  0  0  0  0
   28.8130   10.5871   56.9915 H   0  0  0  0  0  0  0  0  0  0  0  0
   21.2849    5.1055   53.3456 C   0  0  0  0  0  0  0  0  0  0  0  0
   21.8160    3.8565   53.1722 C   0  0  0  0  0  0  0  0  0  0  0  0
   20.9961    2.7188   53.1482 C   0  0  0  0  0  0  0  0  0  0  0  0
   19.6410    2.8131   53.2948 C   0  0  0  0  0  0  0  0  0  0  0  0
   19.1007    4.0567   53.4673 C   0  0  0  0  0  0  0  0  0  0  0  0
   19.9165    5.1989   53.4932 C   0  0  0  0  0  0  0  0  0  0  0  0
   19.2416    6.4563   53.6941 C   0  0  0  0  0  0  0  0  0  0  0  0
   18.7136    7.4991   53.8407 N   0  0  0  0  0  0  0  0  0  0  0  0
  1  2  1  0  0  0
  2  3  1  0  0  0
  3  4  1  0  0  0
  4  5  1  0  0  0
  5  6  1  0  0  0
  6  7  1  0  0  0
  7  8  1  0  0  0
  5  9  2  0  0  0
  9 10  1  0  0  0
 10 11  2  0  0  0
 11 12  1  0  0  0
 12 13  2  0  0  0
 13 14  1  0  0  0
 14 15  2  0  0  0
 15 16  1  0  0  0
 15 17  1  0  0  0
 17 18  2  0  0  0
 17 19  1  0  0  0
 19 20  1  0  0  0
 19 21  2  0  0  0
  9 24  1  0  0  0
 24 25  2  0  0  0
 25 26  1  0  0  0
 26 27  2  0  0  0
 27 28  1  0  0  0
 28 29  2  0  0  0
 29 30  1  0  0  0
 30 31  3  0  0  0
  8  2  1  0  0  0
 18 12  1  0  0  0
 29 24  1  0  0  0
 11  4  1  0  0  0
 20 22  1  0  0  0
 20 23  1  0  0  0
M  END
> <minimizedAffinity>
26.94507

> <CNNscore>
0.6156927943

> <CNNaffinity>
6.4753136635

> <CNN_VS>
3.9868040085

> <CNNaffinity_variance>
0.4228000641

$$$$
[H]c1c([H])c([H])c(-c2nc(-c3c([H])c([H])c(F)c(C(=O)N([H])[H])c3[H])n3c2C([H])([H])C([H])([H])O[C@]([H])(C([H])([H])[H])C3([H])[H])c(C#N)c1[H]


 31 34  0  0  0  0  0  0  0  0999 V2000
   27.4622    9.8337   57.4925 C   0  0  0  0  0  0  0  0  0  0  0  0
   27.7753    9.3596   56.0946 C   0  0  0  0  0  0  0  0  0  0  0  0
   26.6073    8.5175   55.6035 C   0  0  0  0  0  0  0  0  0  0  0  0
   26.5254    8.5379   54.1578 N   0  0  0  0  0  0  0  0  0  0  0  0
   27.6022    8.6637   53.3394 C   0  0  0  0  0  0  0  0  0  0  0  0
   29.0285    8.6235   53.7330 C   0  0  0  0  0  0  0  0  0  0  0  0
   29.1625    7.8436   55.0534 C   0  0  0  0  0  0  0  0  0  0  0  0
   28.9803    8.7381   56.0817 O   0  0  0  0  0  0  0  0  0  0  0  0
   27.1378    8.7438   52.0589 C   0  0  0  0  0  0  0  0  0  0  0  0
   25.7954    8.6536   52.1687 N   0  0  0  0  0  0  0  0  0  0  0  0
   25.4056    8.5256   53.4448 C   0  0  0  0  0  0  0  0  0  0  0  0
   24.0074    8.4314   53.8322 C   0  0  0  0  0  0  0  0  0  0  0  0
   23.5810    9.0237   55.0306 C   0  0  0  0  0  0  0  0  0  0  0  0
   22.2878    9.0451   55.4659 C   0  0  0  0  0  0  0  0  0  0  0  0
   21.3158    8.4498   54.6911 C   0  0  0  0  0  0  0  0  0  0  0  0
   20.0376    8.4767   55.1334 F   0  0  0  0  0  0  0  0  0  0  0  0
   21.6765    7.8554   53.5076 C   0  0  0  0  0  0  0  0  0  0  0  0
   23.0102    7.8534   53.0933 C   0  0  0  0  0  0  0  0  0  0  0  0
   20.6535    7.2238   52.6803 C   0  0  0  0  0  0  0  0  0  0  0  0
   20.0036    6.0344   53.0683 N   0  0  0  0  0  0  0  0  0  0  0  0
   20.3207    7.7287   51.5878 O   0  0  0  0  0  0  0  0  0  0  0  0
   18.9979    6.0598   53.2984 H   0  0  0  0  0  0  0  0  0  0  0  0
   20.5291    5.1543   53.1202 H   0  0  0  0  0  0  0  0  0  0  0  0
   27.8426    8.8663   50.7634 C   0  0  0  0  0  0  0  0  0  0  0  0
   27.7466    9.9718   49.9630 C   0  0  0  0  0  0  0  0  0  0  0  0
   28.3732   10.0134   48.7089 C   0  0  0  0  0  0  0  0  0  0  0  0
   29.0995    8.9558   48.2391 C   0  0  0  0  0  0  0  0  0  0  0  0
   29.2002    7.8462   49.0308 C   0  0  0  0  0  0  0  0  0  0  0  0
   28.5759    7.7992   50.2874 C   0  0  0  0  0  0  0  0  0  0  0  0
   28.7596    6.5854   51.0422 C   0  0  0  0  0  0  0  0  0  0  0  0
   28.9379    5.6055   51.6713 N   0  0  0  0  0  0  0  0  0  0  0  0
  1  2  1  0  0  0
  2  3  1  0  0  0
  3  4  1  0  0  0
  4  5  1  0  0  0
  5  6  1  0  0  0
  6  7  1  0  0  0
  7  8  1  0  0  0
  5  9  2  0  0  0
  9 10  1  0  0  0
 10 11  2  0  0  0
 11 12  1  0  0  0
 12 13  2  0  0  0
 13 14  1  0  0  0
 14 15  2  0  0  0
 15 16  1  0  0  0
 15 17  1  0  0  0
 17 18  2  0  0  0
 17 19  1  0  0  0
 19 20  1  0  0  0
 19 21  2  0  0  0
  9 24  1  0  0  0
 24 25  2  0  0  0
 25 26  1  0  0  0
 26 27  2  0  0  0
 27 28  1  0  0  0
 28 29  2  0  0  0
 29 30  1  0  0  0
 30 31  3  0  0  0
  8  2  1  0  0  0
 18 12  1  0  0  0
 29 24  1  0  0  0
 11  4  1  0  0  0
 20 22  1  0  0  0
 20 23  1  0  0  0
M  END
> <minimizedAffinity>
37.28235

> <CNNscore>
0.5671154857

> <CNNaffinity>
6.3649458885

> <CNN_VS>
3.6096594334

> <CNNaffinity_variance>
0.6141039133

$$$$
[H]c1c([H])c([H])c(-c2nc(-c3c([H])c([H])c(F)c(C(=O)N([H])[H])c3[H])n3c2C([H])([H])C([H])([H])O[C@]([H])(C([H])([H])[H])C3([H])[H])c(C#N)c1[H]


 31 34  0  0  0  0  0  0  0  0999 V2000
   20.5662   10.5988   51.2118 C   0  0  0  0  0  0  0  0  0  0  0  0
   21.5205   10.4459   52.3707 C   0  0  0  0  0  0  0  0  0  0  0  0
   21.1074    9.2195   53.1705 C   0  0  0  0  0  0  0  0  0  0  0  0
   22.2388    8.6569   53.8781 N   0  0  0  0  0  0  0  0  0  0  0  0
   23.2844    9.3904   54.3405 C   0  0  0  0  0  0  0  0  0  0  0  0
   23.3894   10.8663   54.3757 C   0  0  0  0  0  0  0  0  0  0  0  0
   21.9733   11.4697   54.3841 C   0  0  0  0  0  0  0  0  0  0  0  0
   21.5735   11.6033   53.0752 O   0  0  0  0  0  0  0  0  0  0  0  0
   24.1988    8.5205   54.8591 C   0  0  0  0  0  0  0  0  0  0  0  0
   23.6520    7.2980   54.6899 N   0  0  0  0  0  0  0  0  0  0  0  0
   22.4534    7.3646   54.0933 C   0  0  0  0  0  0  0  0  0  0  0  0
   21.6673    6.1828   53.7782 C   0  0  0  0  0  0  0  0  0  0  0  0
   22.3157    5.0179   53.3409 C   0  0  0  0  0  0  0  0  0  0  0  0
   21.6868    3.8376   53.0699 C   0  0  0  0  0  0  0  0  0  0  0  0
   20.3201    3.7606   53.2297 C   0  0  0  0  0  0  0  0  0  0  0  0
   19.7077    2.5855   52.9573 F   0  0  0  0  0  0  0  0  0  0  0  0
   19.6343    4.8705   53.6564 C   0  0  0  0  0  0  0  0  0  0  0  0
   20.3114    6.0620   53.9250 C   0  0  0  0  0  0  0  0  0  0  0  0
   18.1870    4.7976   53.8296 C   0  0  0  0  0  0  0  0  0  0  0  0
   17.3695    5.9459   53.8043 N   0  0  0  0  0  0  0  0  0  0  0  0
   17.6244    3.6972   54.0079 O   0  0  0  0  0  0  0  0  0  0  0  0
   16.7018    6.0741   53.0279 H   0  0  0  0  0  0  0  0  0  0  0  0
   17.4409    6.6449   54.5525 H   0  0  0  0  0  0  0  0  0  0  0  0
   25.5065    8.7441   55.5147 C   0  0  0  0  0  0  0  0  0  0  0  0
   25.6376    8.9902   56.8542 C   0  0  0  0  0  0  0  0  0  0  0  0
   26.8907    9.2697   57.4191 C   0  0  0  0  0  0  0  0  0  0  0  0
   28.0239    9.3083   56.6569 C   0  0  0  0  0  0  0  0  0  0  0  0
   27.9031    9.0650   55.3173 C   0  0  0  0  0  0  0  0  0  0  0  0
   26.6517    8.7838   54.7465 C   0  0  0  0  0  0  0  0  0  0  0  0
   26.6438    8.5302   53.3279 C   0  0  0  0  0  0  0  0  0  0  0  0
   26.6352    8.3555   52.1630 N   0  0  0  0  0  0  0  0  0  0  0  0
  1  2  1  0  0  0
  2  3  1  0  0  0
  3  4  1  0  0  0
  4  5  1  0  0  0
  5  6  1  0  0  0
  6  7  1  0  0  0
  7  8  1  0  0  0
  5  9  2  0  0  0
  9 10  1  0  0  0
 10 11  2  0  0  0
 11 12  1  0  0  0
 12 13  2  0  0  0
 13 14  1  0  0  0
 14 15  2  0  0  0
 15 16  1  0  0  0
 15 17  1  0  0  0
 17 18  2  0  0  0
 17 19  1  0  0  0
 19 20  1  0  0  0
 19 21  2  0  0  0
  9 24  1  0  0  0
 24 25  2  0  0  0
 25 26  1  0  0  0
 26 27  2  0  0  0
 27 28  1  0  0  0
 28 29  2  0  0  0
 29 30  1  0  0  0
 30 31  3  0  0  0
  8  2  1  0  0  0
 18 12  1  0  0  0
 29 24  1  0  0  0
 11  4  1  0  0  0
 20 22  1  0  0  0
 20 23  1  0  0  0
M  END
> <minimizedAffinity>
34.51620

> <CNNscore>
0.5321678519

> <CNNaffinity>
6.2725467682

> <CNN_VS>
3.3380477428

> <CNNaffinity_variance>
1.0499413013

$$$$
[H]c1c([H])c([H])c(-c2nc(-c3c([H])c([H])c(F)c(C(=O)N([H])[H])c3[H])n3c2C([H])([H])C([H])([H])O[C@]([H])(C([H])([H])[H])C3([H])[H])c(C#N)c1[H]


 31 34  0  0  0  0  0  0  0  0999 V2000
   21.4697   11.8791   52.5210 C   0  0  0  0  0  0  0  0  0  0  0  0
   21.3377   10.3852   52.3545 C   0  0  0  0  0  0  0  0  0  0  0  0
   22.7101    9.7596   52.5540 C   0  0  0  0  0  0  0  0  0  0  0  0
   22.5941    8.3899   53.0097 N   0  0  0  0  0  0  0  0  0  0  0  0
   21.5657    7.5660   52.6799 C   0  0  0  0  0  0  0  0  0  0  0  0
   20.4991    7.8275   51.6877 C   0  0  0  0  0  0  0  0  0  0  0  0
   21.0091    8.8565   50.6627 C   0  0  0  0  0  0  0  0  0  0  0  0
   20.7444   10.1080   51.1671 O   0  0  0  0  0  0  0  0  0  0  0  0
   21.7385    6.3989   53.3654 C   0  0  0  0  0  0  0  0  0  0  0  0
   22.8744    6.5751   54.0730 N   0  0  0  0  0  0  0  0  0  0  0  0
   23.4103    7.7862   53.8651 C   0  0  0  0  0  0  0  0  0  0  0  0
   24.6255    8.2305   54.5280 C   0  0  0  0  0  0  0  0  0  0  0  0
   24.5330    8.9856   55.7070 C   0  0  0  0  0  0  0  0  0  0  0  0
   25.6029    9.4084   56.4411 C   0  0  0  0  0  0  0  0  0  0  0  0
   26.8722    9.0831   56.0141 C   0  0  0  0  0  0  0  0  0  0  0  0
   27.9249    9.5085   56.7496 F   0  0  0  0  0  0  0  0  0  0  0  0
   27.0219    8.3448   54.8667 C   0  0  0  0  0  0  0  0  0  0  0  0
   25.9036    7.9285   54.1410 C   0  0  0  0  0  0  0  0  0  0  0  0
   28.3623    7.9946   54.4079 C   0  0  0  0  0  0  0  0  0  0  0  0
   28.6444    6.7608   53.7869 N   0  0  0  0  0  0  0  0  0  0  0  0
   29.3116    8.7922   54.5556 O   0  0  0  0  0  0  0  0  0  0  0  0
   28.9131    6.7461   52.7906 H   0  0  0  0  0  0  0  0  0  0  0  0
   28.5819    5.8883   54.3238 H   0  0  0  0  0  0  0  0  0  0  0  0
   20.9527    5.1451   53.3855 C   0  0  0  0  0  0  0  0  0  0  0  0
   21.5163    3.9083   53.2279 C   0  0  0  0  0  0  0  0  0  0  0  0
   20.7229    2.7527   53.1797 C   0  0  0  0  0  0  0  0  0  0  0  0
   19.3623    2.8168   53.2863 C   0  0  0  0  0  0  0  0  0  0  0  0
   18.7897    4.0480   53.4427 C   0  0  0  0  0  0  0  0  0  0  0  0
   19.5788    5.2080   53.4925 C   0  0  0  0  0  0  0  0  0  0  0  0
   18.8705    6.4500   53.6733 C   0  0  0  0  0  0  0  0  0  0  0  0
   18.2919    7.4697   53.7883 N   0  0  0  0  0  0  0  0  0  0  0  0
  1  2  1  0  0  0
  2  3  1  0  0  0
  3  4  1  0  0  0
  4  5  1  0  0  0
  5  6  1  0  0  0
  6  7  1  0  0  0
  7  8  1  0  0  0
  5  9  2  0  0  0
  9 10  1  0  0  0
 10 11  2  0  0  0
 11 12  1  0  0  0
 12 13  2  0  0  0
 13 14  1  0  0  0
 14 15  2  0  0  0
 15 16  1  0  0  0
 15 17  1  0  0  0
 17 18  2  0  0  0
 17 19  1  0  0  0
 19 20  1  0  0  0
 19 21  2  0  0  0
  9 24  1  0  0  0
 24 25  2  0  0  0
 25 26  1  0  0  0
 26 27  2  0  0  0
 27 28  1  0  0  0
 28 29  2  0  0  0
 29 30  1  0  0  0
 30 31  3  0  0  0
  8  2  1  0  0  0
 18 12  1  0  0  0
 29 24  1  0  0  0
 11  4  1  0  0  0
 20 22  1  0  0  0
 20 23  1  0  0  0
M  END
> <minimizedAffinity>
29.14182

> <CNNscore>
0.5302601457

> <CNNaffinity>
6.4859552383

> <CNN_VS>
3.4392435551

> <CNNaffinity_variance>
0.7058742642

$$$$
[H]c1c([H])c([H])c(-c2nc(-c3c([H])c([H])c(F)c(C(=O)N([H])[H])c3[H])n3c2C([H])([H])C([H])([H])O[C@]([H])(C([H])([H])[H])C3([H])[H])c(C#N)c1[H]


 31 34  0  0  0  0  0  0  0  0999 V2000
   21.9207   12.0025   52.6488 C   0  0  0  0  0  0  0  0  0  0  0  0
   21.6240   10.5258   52.5583 C   0  0  0  0  0  0  0  0  0  0  0  0
   22.9465    9.7760   52.5007 C   0  0  0  0  0  0  0  0  0  0  0  0
   22.8014    8.4291   53.0125 N   0  0  0  0  0  0  0  0  0  0  0  0
   21.6578    7.7019   52.9192 C   0  0  0  0  0  0  0  0  0  0  0  0
   20.4419    8.0506   52.1508 C   0  0  0  0  0  0  0  0  0  0  0  0
   20.8265    9.0142   51.0135 C   0  0  0  0  0  0  0  0  0  0  0  0
   20.7821   10.2912   51.5215 O   0  0  0  0  0  0  0  0  0  0  0  0
   21.8587    6.5323   53.5926 C   0  0  0  0  0  0  0  0  0  0  0  0
   23.1247    6.6092   54.0548 N   0  0  0  0  0  0  0  0  0  0  0  0
   23.7148    7.7615   53.7072 C   0  0  0  0  0  0  0  0  0  0  0  0
   25.0732    8.0973   54.1017 C   0  0  0  0  0  0  0  0  0  0  0  0
   26.1023    8.0446   53.1494 C   0  0  0  0  0  0  0  0  0  0  0  0
   27.4001    8.3896   53.3925 C   0  0  0  0  0  0  0  0  0  0  0  0
   27.7475    8.8230   54.6538 C   0  0  0  0  0  0  0  0  0  0  0  0
   29.0370    9.1614   54.8831 F   0  0  0  0  0  0  0  0  0  0  0  0
   26.7801    8.8950   55.6250 C   0  0  0  0  0  0  0  0  0  0  0  0
   25.4614    8.5343   55.3398 C   0  0  0  0  0  0  0  0  0  0  0  0
   27.1389    9.3540   56.9631 C   0  0  0  0  0  0  0  0  0  0  0  0
   27.8799   10.5340   57.1781 N   0  0  0  0  0  0  0  0  0  0  0  0
   26.7931    8.7027   57.9707 O   0  0  0  0  0  0  0  0  0  0  0  0
   27.4264   11.3388   57.6382 H   0  0  0  0  0  0  0  0  0  0  0  0
   28.8600   10.5878   56.8784 H   0  0  0  0  0  0  0  0  0  0  0  0
   20.9833    5.3586   53.8070 C   0  0  0  0  0  0  0  0  0  0  0  0
   20.3259    4.7219   52.7899 C   0  0  0  0  0  0  0  0  0  0  0  0
   19.4481    3.6592   53.0494 C   0  0  0  0  0  0  0  0  0  0  0  0
   19.2152    3.2213   54.3225 C   0  0  0  0  0  0  0  0  0  0  0  0
   19.8662    3.8518   55.3457 C   0  0  0  0  0  0  0  0  0  0  0  0
   20.7467    4.9155   55.0918 C   0  0  0  0  0  0  0  0  0  0  0  0
   21.3879    5.4972   56.2439 C   0  0  0  0  0  0  0  0  0  0  0  0
   21.8826    5.9738   57.2008 N   0  0  0  0  0  0  0  0  0  0  0  0
  1  2  1  0  0  0
  2  3  1  0  0  0
  3  4  1  0  0  0
  4  5  1  0  0  0
  5  6  1  0  0  0
  6  7  1  0  0  0
  7  8  1  0  0  0
  5  9  2  0  0  0
  9 10  1  0  0  0
 10 11  2  0  0  0
 11 12  1  0  0  0
 12 13  2  0  0  0
 13 14  1  0  0  0
 14 15  2  0  0  0
 15 16  1  0  0  0
 15 17  1  0  0  0
 17 18  2  0  0  0
 17 19  1  0  0  0
 19 20  1  0  0  0
 19 21  2  0  0  0
  9 24  1  0  0  0
 24 25  2  0  0  0
 25 26  1  0  0  0
 26 27  2  0  0  0
 27 28  1  0  0  0
 28 29  2  0  0  0
 29 30  1  0  0  0
 30 31  3  0  0  0
  8  2  1  0  0  0
 18 12  1  0  0  0
 29 24  1  0  0  0
 11  4  1  0  0  0
 20 22  1  0  0  0
 20 23  1  0  0  0
M  END
> <minimizedAffinity>
28.21891

> <CNNscore>
0.5088260770

> <CNNaffinity>
6.4589509964

> <CNN_VS>
3.2864828110

> <CNNaffinity_variance>
0.4513083100

$$$$
[H]c1c([H])c([H])c(-c2nc(-c3c([H])c([H])c(F)c(C(=O)N([H])[H])c3[H])n3c2C([H])([H])C([H])([H])O[C@]([H])(C([H])([H])[H])C3([H])[H])c(C#N)c1[H]


 31 34  0  0  0  0  0  0  0  0999 V2000
   22.0332    4.4805   53.5274 C   0  0  0  0  0  0  0  0  0  0  0  0
   21.6767    5.9467   53.5108 C   0  0  0  0  0  0  0  0  0  0  0  0
   22.6982    6.6957   54.3533 C   0  0  0  0  0  0  0  0  0  0  0  0
   22.8148    8.0735   53.9230 N   0  0  0  0  0  0  0  0  0  0  0  0
   21.7928    8.7885   53.3850 C   0  0  0  0  0  0  0  0  0  0  0  0
   20.3715    8.3844   53.3012 C   0  0  0  0  0  0  0  0  0  0  0  0
   20.0793    7.3477   54.4011 C   0  0  0  0  0  0  0  0  0  0  0  0
   20.3853    6.1077   53.8916 O   0  0  0  0  0  0  0  0  0  0  0  0
   22.2928   10.0017   53.0105 C   0  0  0  0  0  0  0  0  0  0  0  0
   23.5984    9.9608   53.3509 N   0  0  0  0  0  0  0  0  0  0  0  0
   23.9326    8.7897   53.9112 C   0  0  0  0  0  0  0  0  0  0  0  0
   25.2862    8.4863   54.3462 C   0  0  0  0  0  0  0  0  0  0  0  0
   26.1434    7.7753   53.4926 C   0  0  0  0  0  0  0  0  0  0  0  0
   27.4465    7.4829   53.7728 C   0  0  0  0  0  0  0  0  0  0  0  0
   27.9796    7.9052   54.9715 C   0  0  0  0  0  0  0  0  0  0  0  0
   29.2723    7.6087   55.2383 F   0  0  0  0  0  0  0  0  0  0  0  0
   27.1861    8.6060   55.8451 C   0  0  0  0  0  0  0  0  0  0  0  0
   25.8564    8.8878   55.5245 C   0  0  0  0  0  0  0  0  0  0  0  0
   27.7428    9.0582   57.1161 C   0  0  0  0  0  0  0  0  0  0  0  0
   28.1610   10.3889   57.3211 N   0  0  0  0  0  0  0  0  0  0  0  0
   27.8655    8.2649   58.0726 O   0  0  0  0  0  0  0  0  0  0  0  0
   27.6412   10.9857   57.9835 H   0  0  0  0  0  0  0  0  0  0  0  0
   28.9746   10.7563   56.8148 H   0  0  0  0  0  0  0  0  0  0  0  0
   21.6476   11.1839   52.3973 C   0  0  0  0  0  0  0  0  0  0  0  0
   21.8251   11.5355   51.0870 C   0  0  0  0  0  0  0  0  0  0  0  0
   21.2527   12.7062   50.5683 C   0  0  0  0  0  0  0  0  0  0  0  0
   20.5002   13.5382   51.3482 C   0  0  0  0  0  0  0  0  0  0  0  0
   20.3182   13.1963   52.6590 C   0  0  0  0  0  0  0  0  0  0  0  0
   20.8879   12.0253   53.1834 C   0  0  0  0  0  0  0  0  0  0  0  0
   20.6201   11.7569   54.5737 C   0  0  0  0  0  0  0  0  0  0  0  0
   20.3767   11.5171   55.7011 N   0  0  0  0  0  0  0  0  0  0  0  0
  1  2  1  0  0  0
  2  3  1  0  0  0
  3  4  1  0  0  0
  4  5  1  0  0  0
  5  6  1  0  0  0
  6  7  1  0  0  0
  7  8  1  0  0  0
  5  9  2  0  0  0
  9 10  1  0  0  0
 10 11  2  0  0  0
 11 12  1  0  0  0
 12 13  2  0  0  0
 13 14  1  0  0  0
 14 15  2  0  0  0
 15 16  1  0  0  0
 15 17  1  0  0  0
 17 18  2  0  0  0
 17 19  1  0  0  0
 19 20  1  0  0  0
 19 21  2  0  0  0
  9 24  1  0  0  0
 24 25  2  0  0  0
 25 26  1  0  0  0
 26 27  2  0  0  0
 27 28  1  0  0  0
 28 29  2  0  0  0
 29 30  1  0  0  0
 30 31  3  0  0  0
  8  2  1  0  0  0
 18 12  1  0  0  0
 29 24  1  0  0  0
 11  4  1  0  0  0
 20 22  1  0  0  0
 20 23  1  0  0  0
M  END
> <minimizedAffinity>
35.48112

> <CNNscore>
0.4633226097

> <CNNaffinity>
5.9055356979

> <CNN_VS>
2.7361681461

> <CNNaffinity_variance>
0.4251546860

$$$$
[H]c1c([H])c([H])c(-c2nc(-c3c([H])c([H])c(F)c(C(=O)N([H])[H])c3[H])n3c2C([H])([H])C([H])([H])O[C@]([H])(C([H])([H])[H])C3([H])[H])c(C#N)c1[H]


 31 34  0  0  0  0  0  0  0  0999 V2000
   21.7259   11.8326   52.3045 C   0  0  0  0  0  0  0  0  0  0  0  0
   21.4177   10.3559   52.2696 C   0  0  0  0  0  0  0  0  0  0  0  0
   22.7335    9.5953   52.2004 C   0  0  0  0  0  0  0  0  0  0  0  0
   22.5941    8.2666   52.7591 N   0  0  0  0  0  0  0  0  0  0  0  0
   21.4440    7.5449   52.7202 C   0  0  0  0  0  0  0  0  0  0  0  0
   20.2097    7.8773   51.9741 C   0  0  0  0  0  0  0  0  0  0  0  0
   20.5692    8.8012   50.7965 C   0  0  0  0  0  0  0  0  0  0  0  0
   20.5465   10.0942   51.2640 O   0  0  0  0  0  0  0  0  0  0  0  0
   21.6560    6.3960   53.4252 C   0  0  0  0  0  0  0  0  0  0  0  0
   22.9345    6.4788   53.8504 N   0  0  0  0  0  0  0  0  0  0  0  0
   23.5220    7.6152   53.4500 C   0  0  0  0  0  0  0  0  0  0  0  0
   24.8927    7.9539   53.7966 C   0  0  0  0  0  0  0  0  0  0  0  0
   25.4068    7.5646   55.0427 C   0  0  0  0  0  0  0  0  0  0  0  0
   26.6910    7.7797   55.4514 C   0  0  0  0  0  0  0  0  0  0  0  0
   27.5615    8.4220   54.5975 C   0  0  0  0  0  0  0  0  0  0  0  0
   28.8316    8.6302   55.0141 F   0  0  0  0  0  0  0  0  0  0  0  0
   27.1121    8.8245   53.3646 C   0  0  0  0  0  0  0  0  0  0  0  0
   25.7909    8.5868   52.9796 C   0  0  0  0  0  0  0  0  0  0  0  0
   28.0275    9.5043   52.4536 C   0  0  0  0  0  0  0  0  0  0  0  0
   29.0533   10.3537   52.9160 N   0  0  0  0  0  0  0  0  0  0  0  0
   27.9249    9.3490   51.2189 O   0  0  0  0  0  0  0  0  0  0  0  0
   30.0381   10.0710   52.7918 H   0  0  0  0  0  0  0  0  0  0  0  0
   28.8188   11.2432   53.3711 H   0  0  0  0  0  0  0  0  0  0  0  0
   20.7795    5.2360   53.7010 C   0  0  0  0  0  0  0  0  0  0  0  0
   20.0916    4.5710   52.7229 C   0  0  0  0  0  0  0  0  0  0  0  0
   19.2146    3.5233   53.0401 C   0  0  0  0  0  0  0  0  0  0  0  0
   19.0129    3.1288   54.3325 C   0  0  0  0  0  0  0  0  0  0  0  0
   19.6946    3.7879   55.3170 C   0  0  0  0  0  0  0  0  0  0  0  0
   20.5743    4.8366   55.0054 C   0  0  0  0  0  0  0  0  0  0  0  0
   21.2493    5.4511   56.1205 C   0  0  0  0  0  0  0  0  0  0  0  0
   21.8245    5.9644   57.0113 N   0  0  0  0  0  0  0  0  0  0  0  0
  1  2  1  0  0  0
  2  3  1  0  0  0
  3  4  1  0  0  0
  4  5  1  0  0  0
  5  6  1  0  0  0
  6  7  1  0  0  0
  7  8  1  0  0  0
  5  9  2  0  0  0
  9 10  1  0  0  0
 10 11  2  0  0  0
 11 12  1  0  0  0
 12 13  2  0  0  0
 13 14  1  0  0  0
 14 15  2  0  0  0
 15 16  1  0  0  0
 15 17  1  0  0  0
 17 18  2  0  0  0
 17 19  1  0  0  0
 19 20  1  0  0  0
 19 21  2  0  0  0
  9 24  1  0  0  0
 24 25  2  0  0  0
 25 26  1  0  0  0
 26 27  2  0  0  0
 27 28  1  0  0  0
 28 29  2  0  0  0
 29 30  1  0  0  0
 30 31  3  0  0  0
  8  2  1  0  0  0
 18 12  1  0  0  0
 29 24  1  0  0  0
 11  4  1  0  0  0
 20 22  1  0  0  0
 20 23  1  0  0  0
M  END
> <minimizedAffinity>
37.88854

> <CNNscore>
0.4599032998

> <CNNaffinity>
6.2560658455

> <CNN_VS>
2.8771853447

> <CNNaffinity_variance>
0.5673521757

$$$$
[H]c1c([H])c([H])c(-c2nc(-c3c([H])c([H])c(F)c(C(=O)N([H])[H])c3[H])n3c2C([H])([H])C([H])([H])O[C@]([H])(C([H])([H])[H])C3([H])[H])c(C#N)c1[H]


 31 34  0  0  0  0  0  0  0  0999 V2000
   23.9459    4.4919   56.6809 C   0  0  0  0  0  0  0  0  0  0  0  0
   23.7406    5.6229   55.7033 C   0  0  0  0  0  0  0  0  0  0  0  0
   22.8453    5.1250   54.5786 C   0  0  0  0  0  0  0  0  0  0  0  0
   22.1229    6.2212   53.9673 N   0  0  0  0  0  0  0  0  0  0  0  0
   22.6020    7.4892   53.8796 C   0  0  0  0  0  0  0  0  0  0  0  0
   23.9696    7.9486   54.2105 C   0  0  0  0  0  0  0  0  0  0  0  0
   24.9395    6.7586   54.0971 C   0  0  0  0  0  0  0  0  0  0  0  0
   24.9429    6.1115   55.3103 O   0  0  0  0  0  0  0  0  0  0  0  0
   21.6174    8.2639   53.3390 C   0  0  0  0  0  0  0  0  0  0  0  0
   20.5893    7.4173   53.1186 N   0  0  0  0  0  0  0  0  0  0  0  0
   20.8832    6.1649   53.4957 C   0  0  0  0  0  0  0  0  0  0  0  0
   19.9349    5.0687   53.3826 C   0  0  0  0  0  0  0  0  0  0  0  0
   20.3108    3.8965   52.7094 C   0  0  0  0  0  0  0  0  0  0  0  0
   19.5250    2.7872   52.5895 C   0  0  0  0  0  0  0  0  0  0  0  0
   18.2711    2.7958   53.1614 C   0  0  0  0  0  0  0  0  0  0  0  0
   17.5011    1.6907   53.0353 F   0  0  0  0  0  0  0  0  0  0  0  0
   17.8516    3.9168   53.8334 C   0  0  0  0  0  0  0  0  0  0  0  0
   18.6833    5.0339   53.9366 C   0  0  0  0  0  0  0  0  0  0  0  0
   16.5257    3.9343   54.4432 C   0  0  0  0  0  0  0  0  0  0  0  0
   16.3351    3.7616   55.8294 N   0  0  0  0  0  0  0  0  0  0  0  0
   15.5073    4.1056   53.7414 O   0  0  0  0  0  0  0  0  0  0  0  0
   15.9847    4.5515   56.3936 H   0  0  0  0  0  0  0  0  0  0  0  0
   16.5439    2.8580   56.2688 H   0  0  0  0  0  0  0  0  0  0  0  0
   21.5767    9.7020   52.9926 C   0  0  0  0  0  0  0  0  0  0  0  0
   21.8636   10.6944   53.8899 C   0  0  0  0  0  0  0  0  0  0  0  0
   21.7401   12.0463   53.5373 C   0  0  0  0  0  0  0  0  0  0  0  0
   21.3288   12.4232   52.2901 C   0  0  0  0  0  0  0  0  0  0  0  0
   21.0386   11.4392   51.3870 C   0  0  0  0  0  0  0  0  0  0  0  0
   21.1613   10.0844   51.7340 C   0  0  0  0  0  0  0  0  0  0  0  0
   20.8419    9.1330   50.6998 C   0  0  0  0  0  0  0  0  0  0  0  0
   20.6132    8.3496   49.8503 N   0  0  0  0  0  0  0  0  0  0  0  0
  1  2  1  0  0  0
  2  3  1  0  0  0
  3  4  1  0  0  0
  4  5  1  0  0  0
  5  6  1  0  0  0
  6  7  1  0  0  0
  7  8  1  0  0  0
  5  9  2  0  0  0
  9 10  1  0  0  0
 10 11  2  0  0  0
 11 12  1  0  0  0
 12 13  2  0  0  0
 13 14  1  0  0  0
 14 15  2  0  0  0
 15 16  1  0  0  0
 15 17  1  0  0  0
 17 18  2  0  0  0
 17 19  1  0  0  0
 19 20  1  0  0  0
 19 21  2  0  0  0
  9 24  1  0  0  0
 24 25  2  0  0  0
 25 26  1  0  0  0
 26 27  2  0  0  0
 27 28  1  0  0  0
 28 29  2  0  0  0
 29 30  1  0  0  0
 30 31  3  0  0  0
  8  2  1  0  0  0
 18 12  1  0  0  0
 29 24  1  0  0  0
 11  4  1  0  0  0
 20 22  1  0  0  0
 20 23  1  0  0  0
M  END
> <minimizedAffinity>
32.16274

> <CNNscore>
0.4448316991

> <CNNaffinity>
6.5027379990

> <CNN_VS>
2.8926239014

> <CNNaffinity_variance>
0.6720939875

$$$$
[H]c1c([H])c([H])c(-c2nc(-c3c([H])c([H])c(F)c(C(=O)N([H])[H])c3[H])n3c2C([H])([H])C([H])([H])O[C@]([H])(C([H])([H])[H])C3([H])[H])c(C#N)c1[H]


 31 34  0  0  0  0  0  0  0  0999 V2000
   21.6868   12.4920   52.5407 C   0  0  0  0  0  0  0  0  0  0  0  0
   21.4311   11.0128   52.3866 C   0  0  0  0  0  0  0  0  0  0  0  0
   22.7433   10.2760   52.6094 C   0  0  0  0  0  0  0  0  0  0  0  0
   22.5067    8.9257   53.0765 N   0  0  0  0  0  0  0  0  0  0  0  0
   21.4165    8.1880   52.7415 C   0  0  0  0  0  0  0  0  0  0  0  0
   20.3876    8.5280   51.7334 C   0  0  0  0  0  0  0  0  0  0  0  0
   20.9947    9.4997   50.7053 C   0  0  0  0  0  0  0  0  0  0  0  0
   20.8306   10.7743   51.1945 O   0  0  0  0  0  0  0  0  0  0  0  0
   21.4820    7.0178   53.4401 C   0  0  0  0  0  0  0  0  0  0  0  0
   22.6203    7.1050   54.1604 N   0  0  0  0  0  0  0  0  0  0  0  0
   23.2589    8.2643   53.9479 C   0  0  0  0  0  0  0  0  0  0  0  0
   24.4993    8.6116   54.6219 C   0  0  0  0  0  0  0  0  0  0  0  0
   24.4538    9.3334   55.8243 C   0  0  0  0  0  0  0  0  0  0  0  0
   25.5479    9.6659   56.5691 C   0  0  0  0  0  0  0  0  0  0  0  0
   26.7946    9.2764   56.1295 C   0  0  0  0  0  0  0  0  0  0  0  0
   27.8717    9.6125   56.8758 F   0  0  0  0  0  0  0  0  0  0  0  0
   26.8982    8.5668   54.9590 C   0  0  0  0  0  0  0  0  0  0  0  0
   25.7563    8.2435   54.2229 C   0  0  0  0  0  0  0  0  0  0  0  0
   28.2144    8.1491   54.4867 C   0  0  0  0  0  0  0  0  0  0  0  0
   28.4318    6.8927   53.8852 N   0  0  0  0  0  0  0  0  0  0  0  0
   29.2001    8.9065   54.6046 O   0  0  0  0  0  0  0  0  0  0  0  0
   28.6836    6.8477   52.8854 H   0  0  0  0  0  0  0  0  0  0  0  0
   28.3396    6.0340   54.4397 H   0  0  0  0  0  0  0  0  0  0  0  0
   20.5930    5.8349   53.4620 C   0  0  0  0  0  0  0  0  0  0  0  0
   19.2280    5.9265   53.4403 C   0  0  0  0  0  0  0  0  0  0  0  0
   18.4245    4.7809   53.5373 C   0  0  0  0  0  0  0  0  0  0  0  0
   18.9711    3.5346   53.6582 C   0  0  0  0  0  0  0  0  0  0  0  0
   20.3340    3.4328   53.6821 C   0  0  0  0  0  0  0  0  0  0  0  0
   21.1432    4.5758   53.5844 C   0  0  0  0  0  0  0  0  0  0  0  0
   22.5663    4.3496   53.6071 C   0  0  0  0  0  0  0  0  0  0  0  0
   23.7341    4.1968   53.6323 N   0  0  0  0  0  0  0  0  0  0  0  0
  1  2  1  0  0  0
  2  3  1  0  0  0
  3  4  1  0  0  0
  4  5  1  0  0  0
  5  6  1  0  0  0
  6  7  1  0  0  0
  7  8  1  0  0  0
  5  9  2  0  0  0
  9 10  1  0  0  0
 10 11  2  0  0  0
 11 12  1  0  0  0
 12 13  2  0  0  0
 13 14  1  0  0  0
 14 15  2  0  0  0
 15 16  1  0  0  0
 15 17  1  0  0  0
 17 18  2  0  0  0
 17 19  1  0  0  0
 19 20  1  0  0  0
 19 21  2  0  0  0
  9 24  1  0  0  0
 24 25  2  0  0  0
 25 26  1  0  0  0
 26 27  2  0  0  0
 27 28  1  0  0  0
 28 29  2  0  0  0
 29 30  1  0  0  0
 30 31  3  0  0  0
  8  2  1  0  0  0
 18 12  1  0  0  0
 29 24  1  0  0  0
 11  4  1  0  0  0
 20 22  1  0  0  0
 20 23  1  0  0  0
M  END
> <minimizedAffinity>
30.61063

> <CNNscore>
0.4413811266

> <CNNaffinity>
6.2498674393

> <CNN_VS>
2.7585735321

> <CNNaffinity_variance>
0.5256559849

$$$$
[H]OC(=O)[C@]1([H])C([H])([H])[C@]([H])(OC([H])([H])c2c([H])c(F)c(F)c(F)c2[H])[C@@]1([H])N([H])[H]


 22 23  0  0  0  0  0  0  0  0999 V2000
   20.0610    6.9566   52.9446 N   0  0  0  0  0  0  0  0  0  0  0  0
   21.0893    7.9522   53.1862 C   0  0  0  0  0  0  0  0  0  0  0  0
   21.0717    8.4740   54.5776 C   0  0  0  0  0  0  0  0  0  0  0  0
   22.0569    7.3629   54.9498 C   0  0  0  0  0  0  0  0  0  0  0  0
   22.4169    7.2510   53.4836 C   0  0  0  0  0  0  0  0  0  0  0  0
   19.1518    7.1965   53.3893 H   0  0  0  0  0  0  0  0  0  0  0  0
   20.3243    6.0105   53.2533 H   0  0  0  0  0  0  0  0  0  0  0  0
   21.6280    9.8065   54.8097 C   0  0  0  0  0  0  0  0  0  0  0  0
   22.3458   10.0245   55.9795 O   0  0  0  0  0  0  0  0  0  0  0  0
   21.5141   10.7898   54.0343 O   0  0  0  0  0  0  0  0  0  0  0  0
   23.2528    9.5734   56.0761 H   0  0  0  0  0  0  0  0  0  0  0  0
   23.4473    8.0401   53.0561 O   0  0  0  0  0  0  0  0  0  0  0  0
   24.6957    7.4828   53.0405 C   0  0  0  0  0  0  0  0  0  0  0  0
   25.6414    8.0536   54.0242 C   0  0  0  0  0  0  0  0  0  0  0  0
   26.9914    7.8685   53.8266 C   0  0  0  0  0  0  0  0  0  0  0  0
   27.9143    8.3824   54.7082 C   0  0  0  0  0  0  0  0  0  0  0  0
   29.2586    8.1970   54.5096 F   0  0  0  0  0  0  0  0  0  0  0  0
   27.4531    9.0880   55.7955 C   0  0  0  0  0  0  0  0  0  0  0  0
   28.3678    9.5943   56.6645 F   0  0  0  0  0  0  0  0  0  0  0  0
   26.0970    9.2846   56.0109 C   0  0  0  0  0  0  0  0  0  0  0  0
   25.6823    9.9790   57.0839 F   0  0  0  0  0  0  0  0  0  0  0  0
   25.1922    8.7532   55.1027 C   0  0  0  0  0  0  0  0  0  0  0  0
  1  2  1  0  0  0
  2  3  1  0  0  0
  3  4  1  0  0  0
  4  5  1  0  0  0
  5 12  1  0  0  0
 12 13  1  0  0  0
 13 14  1  0  0  0
 14 15  2  0  0  0
 15 16  1  0  0  0
 16 17  1  0  0  0
 16 18  2  0  0  0
 18 19  1  0  0  0
 18 20  1  0  0  0
 20 21  1  0  0  0
 20 22  2  0  0  0
  3  8  1  0  0  0
  8  9  1  0  0  0
  8 10  2  0  0  0
  5  2  1  0  0  0
 22 14  1  0  0  0
  1  6  1  0  0  0
  1  7  1  0  0  0
  9 11  1  0  0  0
M  END
> <minimizedAffinity>
-2.02710

> <CNNscore>
0.7426315546

> <CNNaffinity>
5.4207968712

> <CNN_VS>
4.0256547928

> <CNNaffinity_variance>
0.2256316692

$$$$
[H]OC(=O)[C@]1([H])C([H])([H])[C@]([H])(OC([H])([H])c2c([H])c(F)c(F)c(F)c2[H])[C@@]1([H])N([H])[H]


 22 23  0  0  0  0  0  0  0  0999 V2000
   20.1045    6.9930   52.8871 N   0  0  0  0  0  0  0  0  0  0  0  0
   21.1276    7.9851   53.1623 C   0  0  0  0  0  0  0  0  0  0  0  0
   21.0836    8.4866   54.5606 C   0  0  0  0  0  0  0  0  0  0  0  0
   22.0622    7.3704   54.9352 C   0  0  0  0  0  0  0  0  0  0  0  0
   22.4497    7.2799   53.4745 C   0  0  0  0  0  0  0  0  0  0  0  0
   19.1870    7.2264   53.3179 H   0  0  0  0  0  0  0  0  0  0  0  0
   20.3623    6.0426   53.1869 H   0  0  0  0  0  0  0  0  0  0  0  0
   21.6350    9.8157   54.8225 C   0  0  0  0  0  0  0  0  0  0  0  0
   22.3571   10.0087   55.9939 O   0  0  0  0  0  0  0  0  0  0  0  0
   21.5132   10.8170   54.0716 O   0  0  0  0  0  0  0  0  0  0  0  0
   23.2667    9.5596   56.0756 H   0  0  0  0  0  0  0  0  0  0  0  0
   23.4876    8.0752   53.0780 O   0  0  0  0  0  0  0  0  0  0  0  0
   24.7280    7.5025   53.0244 C   0  0  0  0  0  0  0  0  0  0  0  0
   25.7067    8.0529   53.9872 C   0  0  0  0  0  0  0  0  0  0  0  0
   25.2381    8.7296   55.0909 C   0  0  0  0  0  0  0  0  0  0  0  0
   26.1049    9.2573   56.0201 C   0  0  0  0  0  0  0  0  0  0  0  0
   25.6364    9.9311   57.1189 F   0  0  0  0  0  0  0  0  0  0  0  0
   27.4556    9.0914   55.8180 C   0  0  0  0  0  0  0  0  0  0  0  0
   28.3092    9.6141   56.7381 F   0  0  0  0  0  0  0  0  0  0  0  0
   27.9461    8.4126   54.7122 C   0  0  0  0  0  0  0  0  0  0  0  0
   29.2718    8.2696   54.5470 F   0  0  0  0  0  0  0  0  0  0  0  0
   27.0451    7.8924   53.7938 C   0  0  0  0  0  0  0  0  0  0  0  0
  1  2  1  0  0  0
  2  3  1  0  0  0
  3  4  1  0  0  0
  4  5  1  0  0  0
  5 12  1  0  0  0
 12 13  1  0  0  0
 13 14  1  0  0  0
 14 15  2  0  0  0
 15 16  1  0  0  0
 16 17  1  0  0  0
 16 18  2  0  0  0
 18 19  1  0  0  0
 18 20  1  0  0  0
 20 21  1  0  0  0
 20 22  2  0  0  0
  3  8  1  0  0  0
  8  9  1  0  0  0
  8 10  2  0  0  0
  5  2  1  0  0  0
 22 14  1  0  0  0
  1  6  1  0  0  0
  1  7  1  0  0  0
  9 11  1  0  0  0
M  END
> <minimizedAffinity>
-2.02149

> <CNNscore>
0.7415187955

> <CNNaffinity>
5.4164838791

> <CNN_VS>
4.0164246559

> <CNNaffinity_variance>
0.2239518166

$$$$
[H]OC(=O)[C@]1([H])C([H])([H])[C@]([H])(OC([H])([H])c2c([H])c(F)c(F)c(F)c2[H])[C@@]1([H])N([H])[H]


 22 23  0  0  0  0  0  0  0  0999 V2000
   21.4973    5.4267   53.8415 N   0  0  0  0  0  0  0  0  0  0  0  0
   21.9037    6.7488   53.4013 C   0  0  0  0  0  0  0  0  0  0  0  0
   20.7524    7.6137   53.0337 C   0  0  0  0  0  0  0  0  0  0  0  0
   20.7253    8.1026   54.4842 C   0  0  0  0  0  0  0  0  0  0  0  0
   22.1588    7.6359   54.6223 C   0  0  0  0  0  0  0  0  0  0  0  0
   20.7213    5.0308   53.2732 H   0  0  0  0  0  0  0  0  0  0  0  0
   21.2149    5.3917   54.8308 H   0  0  0  0  0  0  0  0  0  0  0  0
   20.9962    8.7024   52.0881 C   0  0  0  0  0  0  0  0  0  0  0  0
   21.4432    9.9196   52.5880 O   0  0  0  0  0  0  0  0  0  0  0  0
   20.8356    8.6367   50.8427 O   0  0  0  0  0  0  0  0  0  0  0  0
   22.3881    9.9656   52.9629 H   0  0  0  0  0  0  0  0  0  0  0  0
   23.1220    8.5553   54.3162 O   0  0  0  0  0  0  0  0  0  0  0  0
   23.7873    9.1342   55.3611 C   0  0  0  0  0  0  0  0  0  0  0  0
   25.2577    8.9791   55.3216 C   0  0  0  0  0  0  0  0  0  0  0  0
   25.8349    8.4421   54.1929 C   0  0  0  0  0  0  0  0  0  0  0  0
   27.1983    8.2804   54.1019 C   0  0  0  0  0  0  0  0  0  0  0  0
   27.7715    7.7453   52.9767 F   0  0  0  0  0  0  0  0  0  0  0  0
   27.9726    8.6698   55.1703 C   0  0  0  0  0  0  0  0  0  0  0  0
   29.3193    8.5085   55.0770 F   0  0  0  0  0  0  0  0  0  0  0  0
   27.4089    9.2127   56.3156 C   0  0  0  0  0  0  0  0  0  0  0  0
   28.1960    9.5819   57.3400 F   0  0  0  0  0  0  0  0  0  0  0  0
   26.0305    9.3624   56.3753 C   0  0  0  0  0  0  0  0  0  0  0  0
  1  2  1  0  0  0
  2  3  1  0  0  0
  3  4  1  0  0  0
  4  5  1  0  0  0
  5 12  1  0  0  0
 12 13  1  0  0  0
 13 14  1  0  0  0
 14 15  2  0  0  0
 15 16  1  0  0  0
 16 17  1  0  0  0
 16 18  2  0  0  0
 18 19  1  0  0  0
 18 20  1  0  0  0
 20 21  1  0  0  0
 20 22  2  0  0  0
  3  8  1  0  0  0
  8  9  1  0  0  0
  8 10  2  0  0  0
  5  2  1  0  0  0
 22 14  1  0  0  0
  1  6  1  0  0  0
  1  7  1  0  0  0
  9 11  1  0  0  0
M  END
> <minimizedAffinity>
-1.31712

> <CNNscore>
0.7139741778

> <CNNaffinity>
5.1728339195

> <CNN_VS>
3.6932697296

> <CNNaffinity_variance>
0.5220336318

$$$$
[H]OC(=O)[C@]1([H])C([H])([H])[C@]([H])(OC([H])([H])c2c([H])c(F)c(F)c(F)c2[H])[C@@]1([H])N([H])[H]


 22 23  0  0  0  0  0  0  0  0999 V2000
   21.6400    5.4490   53.8598 N   0  0  0  0  0  0  0  0  0  0  0  0
   21.9790    6.7940   53.4320 C   0  0  0  0  0  0  0  0  0  0  0  0
   20.7900    7.5860   53.0226 C   0  0  0  0  0  0  0  0  0  0  0  0
   20.6814    8.0716   54.4704 C   0  0  0  0  0  0  0  0  0  0  0  0
   22.1353    7.6945   54.6598 C   0  0  0  0  0  0  0  0  0  0  0  0
   20.9106    5.0060   53.2651 H   0  0  0  0  0  0  0  0  0  0  0  0
   21.3254    5.3959   54.8385 H   0  0  0  0  0  0  0  0  0  0  0  0
   20.9992    8.6883   52.0844 C   0  0  0  0  0  0  0  0  0  0  0  0
   21.4330    9.9081   52.5894 O   0  0  0  0  0  0  0  0  0  0  0  0
   20.8193    8.6322   50.8411 O   0  0  0  0  0  0  0  0  0  0  0  0
   22.3830    9.9670   52.9494 H   0  0  0  0  0  0  0  0  0  0  0  0
   23.0499    8.6720   54.3864 O   0  0  0  0  0  0  0  0  0  0  0  0
   23.7768    9.1587   55.4372 C   0  0  0  0  0  0  0  0  0  0  0  0
   25.2400    8.9813   55.3135 C   0  0  0  0  0  0  0  0  0  0  0  0
   26.0425    9.3620   56.3655 C   0  0  0  0  0  0  0  0  0  0  0  0
   27.4091    9.2143   56.3047 C   0  0  0  0  0  0  0  0  0  0  0  0
   28.2069    9.5941   57.3536 F   0  0  0  0  0  0  0  0  0  0  0  0
   27.9553    8.6752   55.1629 C   0  0  0  0  0  0  0  0  0  0  0  0
   29.3060    8.5307   55.1062 F   0  0  0  0  0  0  0  0  0  0  0  0
   27.1628    8.2859   54.0931 C   0  0  0  0  0  0  0  0  0  0  0  0
   27.7306    7.7629   52.9934 F   0  0  0  0  0  0  0  0  0  0  0  0
   25.7877    8.4482   54.1865 C   0  0  0  0  0  0  0  0  0  0  0  0
  1  2  1  0  0  0
  2  3  1  0  0  0
  3  4  1  0  0  0
  4  5  1  0  0  0
  5 12  1  0  0  0
 12 13  1  0  0  0
 13 14  1  0  0  0
 14 15  2  0  0  0
 15 16  1  0  0  0
 16 17  1  0  0  0
 16 18  2  0  0  0
 18 19  1  0  0  0
 18 20  1  0  0  0
 20 21  1  0  0  0
 20 22  2  0  0  0
  3  8  1  0  0  0
  8  9  1  0  0  0
  8 10  2  0  0  0
  5  2  1  0  0  0
 22 14  1  0  0  0
  1  6  1  0  0  0
  1  7  1  0  0  0
  9 11  1  0  0  0
M  END
> <minimizedAffinity>
-1.36557

> <CNNscore>
0.7051953077

> <CNNaffinity>
5.1749029160

> <CNN_VS>
3.6493172646

> <CNNaffinity_variance>
0.4998909831

$$$$
[H]OC(=O)[C@]1([H])C([H])([H])[C@]([H])(OC([H])([H])c2c([H])c(F)c(F)c(F)c2[H])[C@@]1([H])N([H])[H]


 22 23  0  0  0  0  0  0  0  0999 V2000
   21.5779    7.5398   55.7405 N   0  0  0  0  0  0  0  0  0  0  0  0
   21.8766    7.6727   54.3262 C   0  0  0  0  0  0  0  0  0  0  0  0
   20.8794    8.5028   53.6015 C   0  0  0  0  0  0  0  0  0  0  0  0
   21.7546    9.7222   53.9031 C   0  0  0  0  0  0  0  0  0  0  0  0
   22.9166    8.7780   54.1272 C   0  0  0  0  0  0  0  0  0  0  0  0
   20.5644    7.4029   55.9298 H   0  0  0  0  0  0  0  0  0  0  0  0
   21.9004    8.3376   56.3054 H   0  0  0  0  0  0  0  0  0  0  0  0
   20.7235    8.2763   52.1651 C   0  0  0  0  0  0  0  0  0  0  0  0
   20.2524    7.0394   51.7419 O   0  0  0  0  0  0  0  0  0  0  0  0
   20.9814    9.1130   51.2624 O   0  0  0  0  0  0  0  0  0  0  0  0
   19.2813    6.8047   51.9358 H   0  0  0  0  0  0  0  0  0  0  0  0
   23.6755    8.4881   53.0286 O   0  0  0  0  0  0  0  0  0  0  0  0
   24.7280    7.6333   53.2047 C   0  0  0  0  0  0  0  0  0  0  0  0
   25.7803    8.1265   54.1198 C   0  0  0  0  0  0  0  0  0  0  0  0
   25.4011    8.7313   55.2971 C   0  0  0  0  0  0  0  0  0  0  0  0
   26.3392    9.2034   56.1861 C   0  0  0  0  0  0  0  0  0  0  0  0
   25.9596    9.8056   57.3584 F   0  0  0  0  0  0  0  0  0  0  0  0
   27.6695    9.0557   55.8682 C   0  0  0  0  0  0  0  0  0  0  0  0
   28.5936    9.5234   56.7489 F   0  0  0  0  0  0  0  0  0  0  0  0
   28.0704    8.4490   54.6869 C   0  0  0  0  0  0  0  0  0  0  0  0
   29.3788    8.3218   54.4089 F   0  0  0  0  0  0  0  0  0  0  0  0
   27.0991    7.9836   53.8118 C   0  0  0  0  0  0  0  0  0  0  0  0
  1  2  1  0  0  0
  2  3  1  0  0  0
  3  4  1  0  0  0
  4  5  1  0  0  0
  5 12  1  0  0  0
 12 13  1  0  0  0
 13 14  1  0  0  0
 14 15  2  0  0  0
 15 16  1  0  0  0
 16 17  1  0  0  0
 16 18  2  0  0  0
 18 19  1  0  0  0
 18 20  1  0  0  0
 20 21  1  0  0  0
 20 22  2  0  0  0
  3  8  1  0  0  0
  8  9  1  0  0  0
  8 10  2  0  0  0
  5  2  1  0  0  0
 22 14  1  0  0  0
  1  6  1  0  0  0
  1  7  1  0  0  0
  9 11  1  0  0  0
M  END
> <minimizedAffinity>
-1.78994

> <CNNscore>
0.6917952299

> <CNNaffinity>
5.3234858513

> <CNN_VS>
3.6827621460

> <CNNaffinity_variance>
0.2719013393

$$$$
[H]OC(=O)[C@]1([H])C([H])([H])[C@]([H])(OC([H])([H])c2c([H])c(F)c(F)c(F)c2[H])[C@@]1([H])N([H])[H]


 22 23  0  0  0  0  0  0  0  0999 V2000
   20.8727    6.9495   52.4244 N   0  0  0  0  0  0  0  0  0  0  0  0
   21.9438    6.8704   53.4009 C   0  0  0  0  0  0  0  0  0  0  0  0
   21.7291    5.7982   54.4072 C   0  0  0  0  0  0  0  0  0  0  0  0
   22.4985    4.8506   53.4833 C   0  0  0  0  0  0  0  0  0  0  0  0
   23.1072    6.0657   52.8163 C   0  0  0  0  0  0  0  0  0  0  0  0
   19.9299    6.8251   52.8458 H   0  0  0  0  0  0  0  0  0  0  0  0
   20.9672    6.2724   51.6549 H   0  0  0  0  0  0  0  0  0  0  0  0
   22.3787    5.9492   55.7088 C   0  0  0  0  0  0  0  0  0  0  0  0
   21.7140    6.6666   56.6961 O   0  0  0  0  0  0  0  0  0  0  0  0
   23.5032    5.4813   56.0216 O   0  0  0  0  0  0  0  0  0  0  0  0
   20.8769    6.2569   57.1046 H   0  0  0  0  0  0  0  0  0  0  0  0
   24.2802    6.5196   53.3501 O   0  0  0  0  0  0  0  0  0  0  0  0
   24.6009    7.8303   53.1294 C   0  0  0  0  0  0  0  0  0  0  0  0
   23.5477    8.7978   53.5068 C   0  0  0  0  0  0  0  0  0  0  0  0
   23.3492    9.0705   54.8417 C   0  0  0  0  0  0  0  0  0  0  0  0
   22.3864    9.9659   55.2472 C   0  0  0  0  0  0  0  0  0  0  0  0
   22.1902   10.2363   56.5774 F   0  0  0  0  0  0  0  0  0  0  0  0
   21.6246   10.5837   54.2825 C   0  0  0  0  0  0  0  0  0  0  0  0
   20.6741   11.4678   54.6867 F   0  0  0  0  0  0  0  0  0  0  0  0
   21.8101   10.3216   52.9330 C   0  0  0  0  0  0  0  0  0  0  0  0
   21.0475   10.9435   52.0182 F   0  0  0  0  0  0  0  0  0  0  0  0
   22.7898    9.4132   52.5574 C   0  0  0  0  0  0  0  0  0  0  0  0
  1  2  1  0  0  0
  2  3  1  0  0  0
  3  4  1  0  0  0
  4  5  1  0  0  0
  5 12  1  0  0  0
 12 13  1  0  0  0
 13 14  1  0  0  0
 14 15  2  0  0  0
 15 16  1  0  0  0
 16 17  1  0  0  0
 16 18  2  0  0  0
 18 19  1  0  0  0
 18 20  1  0  0  0
 20 21  1  0  0  0
 20 22  2  0  0  0
  3  8  1  0  0  0
  8  9  1  0  0  0
  8 10  2  0  0  0
  5  2  1  0  0  0
 22 14  1  0  0  0
  1  6  1  0  0  0
  1  7  1  0  0  0
  9 11  1  0  0  0
M  END
> <minimizedAffinity>
1.87810

> <CNNscore>
0.6288538575

> <CNNaffinity>
5.8652162552

> <CNN_VS>
3.6883637905

> <CNNaffinity_variance>
0.1023227721

$$$$
[H]OC(=O)[C@]1([H])C([H])([H])[C@]([H])(OC([H])([H])c2c([H])c(F)c(F)c(F)c2[H])[C@@]1([H])N([H])[H]


 22 23  0  0  0  0  0  0  0  0999 V2000
   21.6273   12.5829   51.9861 N   0  0  0  0  0  0  0  0  0  0  0  0
   22.1109   11.2567   52.3242 C   0  0  0  0  0  0  0  0  0  0  0  0
   21.9795   10.9462   53.7715 C   0  0  0  0  0  0  0  0  0  0  0  0
   20.5958   10.3663   53.4668 C   0  0  0  0  0  0  0  0  0  0  0  0
   21.0217   10.2250   52.0209 C   0  0  0  0  0  0  0  0  0  0  0  0
   21.8913   13.3023   52.6895 H   0  0  0  0  0  0  0  0  0  0  0  0
   20.6071   12.6275   51.8555 H   0  0  0  0  0  0  0  0  0  0  0  0
   22.8854    9.9465   54.3361 C   0  0  0  0  0  0  0  0  0  0  0  0
   22.8781    9.7554   55.7125 O   0  0  0  0  0  0  0  0  0  0  0  0
   23.6843    9.2318   53.6785 O   0  0  0  0  0  0  0  0  0  0  0  0
   22.0579    9.3230   56.1318 H   0  0  0  0  0  0  0  0  0  0  0  0
   21.6086    9.0390   51.6807 O   0  0  0  0  0  0  0  0  0  0  0  0
   20.9941    7.8937   52.1052 C   0  0  0  0  0  0  0  0  0  0  0  0
   21.7468    7.1269   53.1217 C   0  0  0  0  0  0  0  0  0  0  0  0
   21.3203    7.1693   54.4302 C   0  0  0  0  0  0  0  0  0  0  0  0
   21.9811    6.4708   55.4145 C   0  0  0  0  0  0  0  0  0  0  0  0
   21.5548    6.5142   56.7173 F   0  0  0  0  0  0  0  0  0  0  0  0
   23.0819    5.7269   55.0574 C   0  0  0  0  0  0  0  0  0  0  0  0
   23.7323    5.0381   56.0325 F   0  0  0  0  0  0  0  0  0  0  0  0
   23.5262    5.6722   53.7445 C   0  0  0  0  0  0  0  0  0  0  0  0
   24.6053    4.9352   53.4319 F   0  0  0  0  0  0  0  0  0  0  0  0
   22.8373    6.3883   52.7757 C   0  0  0  0  0  0  0  0  0  0  0  0
  1  2  1  0  0  0
  2  3  1  0  0  0
  3  4  1  0  0  0
  4  5  1  0  0  0
  5 12  1  0  0  0
 12 13  1  0  0  0
 13 14  1  0  0  0
 14 15  2  0  0  0
 15 16  1  0  0  0
 16 17  1  0  0  0
 16 18  2  0  0  0
 18 19  1  0  0  0
 18 20  1  0  0  0
 20 21  1  0  0  0
 20 22  2  0  0  0
  3  8  1  0  0  0
  8  9  1  0  0  0
  8 10  2  0  0  0
  5  2  1  0  0  0
 22 14  1  0  0  0
  1  6  1  0  0  0
  1  7  1  0  0  0
  9 11  1  0  0  0
M  END
> <minimizedAffinity>
6.36673

> <CNNscore>
0.5584522486

> <CNNaffinity>
5.2359991074

> <CNN_VS>
2.9240555763

> <CNNaffinity_variance>
0.0462169945

$$$$
[H]OC(=O)[C@]1([H])C([H])([H])[C@]([H])(OC([H])([H])c2c([H])c(F)c(F)c(F)c2[H])[C@@]1([H])N([H])[H]


 22 23  0  0  0  0  0  0  0  0999 V2000
   22.1976   12.7439   54.4698 N   0  0  0  0  0  0  0  0  0  0  0  0
   22.4723   11.3614   54.1234 C   0  0  0  0  0  0  0  0  0  0  0  0
   22.0053   10.4033   55.1591 C   0  0  0  0  0  0  0  0  0  0  0  0
   20.6715   10.3279   54.4115 C   0  0  0  0  0  0  0  0  0  0  0  0
   21.3825   10.8468   53.1798 C   0  0  0  0  0  0  0  0  0  0  0  0
   22.3703   12.9523   55.4742 H   0  0  0  0  0  0  0  0  0  0  0  0
   21.2379   13.0410   54.2455 H   0  0  0  0  0  0  0  0  0  0  0  0
   22.6724    9.1038   55.2315 C   0  0  0  0  0  0  0  0  0  0  0  0
   24.0261    9.0416   54.9239 O   0  0  0  0  0  0  0  0  0  0  0  0
   22.1234    8.0188   55.5522 O   0  0  0  0  0  0  0  0  0  0  0  0
   24.6844    9.4724   55.5694 H   0  0  0  0  0  0  0  0  0  0  0  0
   21.9161    9.9007   52.3509 O   0  0  0  0  0  0  0  0  0  0  0  0
   21.1723    8.7755   52.1271 C   0  0  0  0  0  0  0  0  0  0  0  0
   21.7711    7.5245   52.6412 C   0  0  0  0  0  0  0  0  0  0  0  0
   23.1411    7.4456   52.7530 C   0  0  0  0  0  0  0  0  0  0  0  0
   23.7495    6.3072   53.2298 C   0  0  0  0  0  0  0  0  0  0  0  0
   25.1143    6.2305   53.3405 F   0  0  0  0  0  0  0  0  0  0  0  0
   22.9521    5.2466   53.5931 C   0  0  0  0  0  0  0  0  0  0  0  0
   23.5565    4.1235   54.0637 F   0  0  0  0  0  0  0  0  0  0  0  0
   21.5703    5.3078   53.4875 C   0  0  0  0  0  0  0  0  0  0  0  0
   20.8226    4.2525   53.8516 F   0  0  0  0  0  0  0  0  0  0  0  0
   20.9881    6.4706   53.0028 C   0  0  0  0  0  0  0  0  0  0  0  0
  1  2  1  0  0  0
  2  3  1  0  0  0
  3  4  1  0  0  0
  4  5  1  0  0  0
  5 12  1  0  0  0
 12 13  1  0  0  0
 13 14  1  0  0  0
 14 15  2  0  0  0
 15 16  1  0  0  0
 16 17  1  0  0  0
 16 18  2  0  0  0
 18 19  1  0  0  0
 18 20  1  0  0  0
 20 21  1  0  0  0
 20 22  2  0  0  0
  3  8  1  0  0  0
  8  9  1  0  0  0
  8 10  2  0  0  0
  5  2  1  0  0  0
 22 14  1  0  0  0
  1  6  1  0  0  0
  1  7  1  0  0  0
  9 11  1  0  0  0
M  END
> <minimizedAffinity>
13.35055

> <CNNscore>
0.5304127932

> <CNNaffinity>
5.6248488426

> <CNN_VS>
2.9834918976

> <CNNaffinity_variance>
0.4226593971

$$$$
[H]OC(=O)[C@]1([H])C([H])([H])[C@]([H])(OC([H])([H])c2c([H])c(F)c(F)c(F)c2[H])[C@@]1([H])N([H])[H]


 22 23  0  0  0  0  0  0  0  0999 V2000
   26.4353    9.2849   51.8866 N   0  0  0  0  0  0  0  0  0  0  0  0
   26.6028    8.2493   52.8898 C   0  0  0  0  0  0  0  0  0  0  0  0
   27.6756    8.5630   53.8692 C   0  0  0  0  0  0  0  0  0  0  0  0
   26.6108    9.2364   54.7390 C   0  0  0  0  0  0  0  0  0  0  0  0
   25.5612    8.4382   53.9953 C   0  0  0  0  0  0  0  0  0  0  0  0
   27.3396    9.6716   51.5481 H   0  0  0  0  0  0  0  0  0  0  0  0
   25.8526   10.0726   52.2023 H   0  0  0  0  0  0  0  0  0  0  0  0
   28.3193    7.4418   54.5529 C   0  0  0  0  0  0  0  0  0  0  0  0
   29.0801    6.5593   53.7956 O   0  0  0  0  0  0  0  0  0  0  0  0
   28.2460    7.1991   55.7846 O   0  0  0  0  0  0  0  0  0  0  0  0
   29.9597    6.8948   53.4092 H   0  0  0  0  0  0  0  0  0  0  0  0
   25.2444    7.2200   54.5269 O   0  0  0  0  0  0  0  0  0  0  0  0
   24.5950    6.3336   53.7134 C   0  0  0  0  0  0  0  0  0  0  0  0
   23.1796    6.6653   53.4405 C   0  0  0  0  0  0  0  0  0  0  0  0
   22.8839    7.8887   52.8824 C   0  0  0  0  0  0  0  0  0  0  0  0
   21.5847    8.2458   52.6038 C   0  0  0  0  0  0  0  0  0  0  0  0
   21.2921    9.4649   52.0478 F   0  0  0  0  0  0  0  0  0  0  0  0
   20.5854    7.3471   52.8977 C   0  0  0  0  0  0  0  0  0  0  0  0
   19.3028    7.7032   52.6211 F   0  0  0  0  0  0  0  0  0  0  0  0
   20.8641    6.1100   53.4600 C   0  0  0  0  0  0  0  0  0  0  0  0
   19.8627    5.2571   53.7340 F   0  0  0  0  0  0  0  0  0  0  0  0
   22.1852    5.7806   53.7287 C   0  0  0  0  0  0  0  0  0  0  0  0
  1  2  1  0  0  0
  2  3  1  0  0  0
  3  4  1  0  0  0
  4  5  1  0  0  0
  5 12  1  0  0  0
 12 13  1  0  0  0
 13 14  1  0  0  0
 14 15  2  0  0  0
 15 16  1  0  0  0
 16 17  1  0  0  0
 16 18  2  0  0  0
 18 19  1  0  0  0
 18 20  1  0  0  0
 20 21  1  0  0  0
 20 22  2  0  0  0
  3  8  1  0  0  0
  8  9  1  0  0  0
  8 10  2  0  0  0
  5  2  1  0  0  0
 22 14  1  0  0  0
  1  6  1  0  0  0
  1  7  1  0  0  0
  9 11  1  0  0  0
M  END
> <minimizedAffinity>
11.11665

> <CNNscore>
0.5056588650

> <CNNaffinity>
5.1070160866

> <CNN_VS>
2.5824079514

> <CNNaffinity_variance>
0.0356688872

$$$$
[H]c1nn2c(C([H])([H])C3([H])C([H])([H])C3([H])[H])nnc2c(C([H])([H])[H])c1-c1c([H])c([H])c(Oc2c([H])c([H])c([H])c(C([H])([H])[H])c2C([H])([H])[H])c([H])c1Cl


 30 34  0  0  0  0  0  0  0  0999 V2000
   27.3559    9.4012   55.6666 C   0  0  0  0  0  0  0  0  0  0  0  0
   27.4034    8.4115   54.7328 C   0  0  0  0  0  0  0  0  0  0  0  0
   26.3143    7.7246   54.2451 C   0  0  0  0  0  0  0  0  0  0  0  0
   25.0527    8.0479   54.7292 C   0  0  0  0  0  0  0  0  0  0  0  0
   24.9746    9.0443   55.6691 C   0  0  0  0  0  0  0  0  0  0  0  0
   23.4195    9.5416   56.3373 Cl  0  0  0  0  0  0  0  0  0  0  0  0
   26.0676    9.7254   56.1500 C   0  0  0  0  0  0  0  0  0  0  0  0
   23.8349    7.3876   54.2570 C   0  0  0  0  0  0  0  0  0  0  0  0
   23.5258    6.0917   54.6357 C   0  0  0  0  0  0  0  0  0  0  0  0
   22.3761    5.5087   54.2493 N   0  0  0  0  0  0  0  0  0  0  0  0
   21.4780    6.1433   53.4869 N   0  0  0  0  0  0  0  0  0  0  0  0
   20.2900    5.7829   52.9864 C   0  0  0  0  0  0  0  0  0  0  0  0
   19.8517    6.8751   52.2817 N   0  0  0  0  0  0  0  0  0  0  0  0
   20.7369    7.8457   52.3560 N   0  0  0  0  0  0  0  0  0  0  0  0
   21.7640    7.3981   53.1115 C   0  0  0  0  0  0  0  0  0  0  0  0
   22.9487    8.0674   53.4788 C   0  0  0  0  0  0  0  0  0  0  0  0
   23.1411    9.4176   52.9333 C   0  0  0  0  0  0  0  0  0  0  0  0
   19.5637    4.5203   53.1265 C   0  0  0  0  0  0  0  0  0  0  0  0
   18.4549    4.6055   54.1731 C   0  0  0  0  0  0  0  0  0  0  0  0
   18.0980    3.3888   54.9451 C   0  0  0  0  0  0  0  0  0  0  0  0
   17.2158    3.7290   53.8045 C   0  0  0  0  0  0  0  0  0  0  0  0
   28.4350   10.0979   56.1693 O   0  0  0  0  0  0  0  0  0  0  0  0
   28.9194    9.3461   60.9561 C   0  0  0  0  0  0  0  0  0  0  0  0
   28.6403   10.2666   59.8342 C   0  0  0  0  0  0  0  0  0  0  0  0
   28.3779   11.5982   60.0446 C   0  0  0  0  0  0  0  0  0  0  0  0
   28.1289   12.4592   58.9672 C   0  0  0  0  0  0  0  0  0  0  0  0
   28.1497   11.9497   57.6871 C   0  0  0  0  0  0  0  0  0  0  0  0
   28.4144   10.5941   57.4492 C   0  0  0  0  0  0  0  0  0  0  0  0
   28.6543    9.7920   58.5495 C   0  0  0  0  0  0  0  0  0  0  0  0
   28.9848    8.3761   58.3472 C   0  0  0  0  0  0  0  0  0  0  0  0
 23 24  1  0  0  0
 24 25  2  0  0  0
 25 26  1  0  0  0
 26 27  2  0  0  0
 27 28  1  0  0  0
 28 22  1  0  0  0
 22  1  1  0  0  0
  1  2  2  0  0  0
  2  3  1  0  0  0
  3  4  2  0  0  0
  4  5  1  0  0  0
  5  6  1  0  0  0
  5  7  2  0  0  0
  4  8  1  0  0  0
  8  9  1  0  0  0
  9 10  2  0  0  0
 10 11  1  0  0  0
 11 12  1  0  0  0
 12 18  1  0  0  0
 18 19  1  0  0  0
 19 20  1  0  0  0
 20 21  1  0  0  0
 12 13  2  0  0  0
 13 14  1  0  0  0
 14 15  2  0  0  0
 15 16  1  0  0  0
 16 17  1  0  0  0
 28 29  2  0  0  0
 29 30  1  0  0  0
 29 24  1  0  0  0
  7  1  1  0  0  0
 16  8  2  0  0  0
 15 11  1  0  0  0
 21 19  1  0  0  0
M  END
> <minimizedAffinity>
17.18406

> <CNNscore>
0.5546289086

> <CNNaffinity>
6.5990157127

> <CNN_VS>
3.6600048542

> <CNNaffinity_variance>
0.1513938606

$$$$
[H]c1nn2c(C([H])([H])C3([H])C([H])([H])C3([H])[H])nnc2c(C([H])([H])[H])c1-c1c([H])c([H])c(Oc2c([H])c([H])c([H])c(C([H])([H])[H])c2C([H])([H])[H])c([H])c1Cl


 30 34  0  0  0  0  0  0  0  0999 V2000
   24.9552    8.0339   53.1429 C   0  0  0  0  0  0  0  0  0  0  0  0
   24.7521    6.7095   53.3848 C   0  0  0  0  0  0  0  0  0  0  0  0
   23.5248    6.1135   53.5701 C   0  0  0  0  0  0  0  0  0  0  0  0
   22.3850    6.9057   53.5111 C   0  0  0  0  0  0  0  0  0  0  0  0
   22.5596    8.2442   53.2653 C   0  0  0  0  0  0  0  0  0  0  0  0
   21.1773    9.3347   53.1559 Cl  0  0  0  0  0  0  0  0  0  0  0  0
   23.7892    8.8307   53.0809 C   0  0  0  0  0  0  0  0  0  0  0  0
   21.0370    6.3598   53.6755 C   0  0  0  0  0  0  0  0  0  0  0  0
   19.9353    7.1893   53.8039 C   0  0  0  0  0  0  0  0  0  0  0  0
   18.6908    6.6853   53.8940 N   0  0  0  0  0  0  0  0  0  0  0  0
   18.4526    5.3689   53.8638 N   0  0  0  0  0  0  0  0  0  0  0  0
   17.3297    4.6437   53.9337 C   0  0  0  0  0  0  0  0  0  0  0  0
   17.7404    3.3378   53.8484 N   0  0  0  0  0  0  0  0  0  0  0  0
   19.0498    3.2826   53.7331 N   0  0  0  0  0  0  0  0  0  0  0  0
   19.5096    4.5533   53.7410 C   0  0  0  0  0  0  0  0  0  0  0  0
   20.8381    5.0135   53.6434 C   0  0  0  0  0  0  0  0  0  0  0  0
   21.8890    3.9894   53.5776 C   0  0  0  0  0  0  0  0  0  0  0  0
   15.9413    5.0862   54.0681 C   0  0  0  0  0  0  0  0  0  0  0  0
   14.9478    3.9554   53.8102 C   0  0  0  0  0  0  0  0  0  0  0  0
   15.4122    2.7359   53.1026 C   0  0  0  0  0  0  0  0  0  0  0  0
   14.6778    3.7320   52.2882 C   0  0  0  0  0  0  0  0  0  0  0  0
   26.1757    8.6493   52.9579 O   0  0  0  0  0  0  0  0  0  0  0  0
   27.3891    9.3837   57.6164 C   0  0  0  0  0  0  0  0  0  0  0  0
   27.7776    8.9836   56.2479 C   0  0  0  0  0  0  0  0  0  0  0  0
   29.0570    8.5810   55.9521 C   0  0  0  0  0  0  0  0  0  0  0  0
   29.4039    8.1919   54.6513 C   0  0  0  0  0  0  0  0  0  0  0  0
   28.4400    8.2197   53.6670 C   0  0  0  0  0  0  0  0  0  0  0  0
   27.1285    8.6279   53.9460 C   0  0  0  0  0  0  0  0  0  0  0  0
   26.8430    8.9992   55.2468 C   0  0  0  0  0  0  0  0  0  0  0  0
   25.4714    9.3869   55.5980 C   0  0  0  0  0  0  0  0  0  0  0  0
 23 24  1  0  0  0
 24 25  2  0  0  0
 25 26  1  0  0  0
 26 27  2  0  0  0
 27 28  1  0  0  0
 28 22  1  0  0  0
 22  1  1  0  0  0
  1  2  2  0  0  0
  2  3  1  0  0  0
  3  4  2  0  0  0
  4  5  1  0  0  0
  5  6  1  0  0  0
  5  7  2  0  0  0
  4  8  1  0  0  0
  8  9  1  0  0  0
  9 10  2  0  0  0
 10 11  1  0  0  0
 11 12  1  0  0  0
 12 18  1  0  0  0
 18 19  1  0  0  0
 19 20  1  0  0  0
 20 21  1  0  0  0
 12 13  2  0  0  0
 13 14  1  0  0  0
 14 15  2  0  0  0
 15 16  1  0  0  0
 16 17  1  0  0  0
 28 29  2  0  0  0
 29 30  1  0  0  0
 29 24  1  0  0  0
  7  1  1  0  0  0
 16  8  2  0  0  0
 15 11  1  0  0  0
 21 19  1  0  0  0
M  END
> <minimizedAffinity>
32.29098

> <CNNscore>
0.5217248797

> <CNNaffinity>
6.6697874069

> <CNN_VS>
3.4797940254

> <CNNaffinity_variance>
0.3689922392

$$$$
[H]c1nn2c(C([H])([H])C3([H])C([H])([H])C3([H])[H])nnc2c(C([H])([H])[H])c1-c1c([H])c([H])c(Oc2c([H])c([H])c([H])c(C([H])([H])[H])c2C([H])([H])[H])c([H])c1Cl


 30 34  0  0  0  0  0  0  0  0999 V2000
   27.4424    9.6736   56.4005 C   0  0  0  0  0  0  0  0  0  0  0  0
   26.2641    9.7559   57.0778 C   0  0  0  0  0  0  0  0  0  0  0  0
   25.0373    9.3640   56.5909 C   0  0  0  0  0  0  0  0  0  0  0  0
   24.9683    8.8391   55.3064 C   0  0  0  0  0  0  0  0  0  0  0  0
   26.1414    8.7413   54.6016 C   0  0  0  0  0  0  0  0  0  0  0  0
   26.1660    8.0752   52.9682 Cl  0  0  0  0  0  0  0  0  0  0  0  0
   27.3622    9.1347   55.0961 C   0  0  0  0  0  0  0  0  0  0  0  0
   23.7138    8.3772   54.7106 C   0  0  0  0  0  0  0  0  0  0  0  0
   22.8214    9.2652   54.1333 C   0  0  0  0  0  0  0  0  0  0  0  0
   21.6978    8.8317   53.5327 N   0  0  0  0  0  0  0  0  0  0  0  0
   21.3856    7.5326   53.4606 N   0  0  0  0  0  0  0  0  0  0  0  0
   20.3507    6.8718   52.9274 C   0  0  0  0  0  0  0  0  0  0  0  0
   20.6033    5.5472   53.1787 N   0  0  0  0  0  0  0  0  0  0  0  0
   21.7376    5.4198   53.8331 N   0  0  0  0  0  0  0  0  0  0  0  0
   22.2396    6.6611   54.0161 C   0  0  0  0  0  0  0  0  0  0  0  0
   23.4319    7.0463   54.6612 C   0  0  0  0  0  0  0  0  0  0  0  0
   24.2277    5.9745   55.2741 C   0  0  0  0  0  0  0  0  0  0  0  0
   19.1803    7.3894   52.2178 C   0  0  0  0  0  0  0  0  0  0  0  0
   19.5659    8.1918   50.9769 C   0  0  0  0  0  0  0  0  0  0  0  0
   20.9709    8.1497   50.4998 C   0  0  0  0  0  0  0  0  0  0  0  0
   20.5797    9.3363   51.2960 C   0  0  0  0  0  0  0  0  0  0  0  0
   28.6794   10.0636   56.8697 O   0  0  0  0  0  0  0  0  0  0  0  0
   29.8023    7.6656   60.9565 C   0  0  0  0  0  0  0  0  0  0  0  0
   29.4943    8.9382   60.2714 C   0  0  0  0  0  0  0  0  0  0  0  0
   29.4807   10.1339   60.9471 C   0  0  0  0  0  0  0  0  0  0  0  0
   29.1998   11.3328   60.2780 C   0  0  0  0  0  0  0  0  0  0  0  0
   28.9349   11.2964   58.9262 C   0  0  0  0  0  0  0  0  0  0  0  0
   28.9425   10.0876   58.2169 C   0  0  0  0  0  0  0  0  0  0  0  0
   29.2274    8.9367   58.9281 C   0  0  0  0  0  0  0  0  0  0  0  0
   29.2954    7.6531   58.2190 C   0  0  0  0  0  0  0  0  0  0  0  0
 23 24  1  0  0  0
 24 25  2  0  0  0
 25 26  1  0  0  0
 26 27  2  0  0  0
 27 28  1  0  0  0
 28 22  1  0  0  0
 22  1  1  0  0  0
  1  2  2  0  0  0
  2  3  1  0  0  0
  3  4  2  0  0  0
  4  5  1  0  0  0
  5  6  1  0  0  0
  5  7  2  0  0  0
  4  8  1  0  0  0
  8  9  1  0  0  0
  9 10  2  0  0  0
 10 11  1  0  0  0
 11 12  1  0  0  0
 12 18  1  0  0  0
 18 19  1  0  0  0
 19 20  1  0  0  0
 20 21  1  0  0  0
 12 13  2  0  0  0
 13 14  1  0  0  0
 14 15  2  0  0  0
 15 16  1  0  0  0
 16 17  1  0  0  0
 28 29  2  0  0  0
 29 30  1  0  0  0
 29 24  1  0  0  0
  7  1  1  0  0  0
 16  8  2  0  0  0
 15 11  1  0  0  0
 21 19  1  0  0  0
M  END
> <minimizedAffinity>
22.05906

> <CNNscore>
0.4859223068

> <CNNaffinity>
6.4793715477

> <CNN_VS>
3.1484711170

> <CNNaffinity_variance>
0.1459124535

$$$$
[H]c1nn2c(C([H])([H])C3([H])C([H])([H])C3([H])[H])nnc2c(C([H])([H])[H])c1-c1c([H])c([H])c(Oc2c([H])c([H])c([H])c(C([H])([H])[H])c2C([H])([H])[H])c([H])c1Cl


 30 34  0  0  0  0  0  0  0  0999 V2000
   26.9992    9.4341   55.8635 C   0  0  0  0  0  0  0  0  0  0  0  0
   27.1133    8.3943   54.9919 C   0  0  0  0  0  0  0  0  0  0  0  0
   26.0618    7.6780   54.4657 C   0  0  0  0  0  0  0  0  0  0  0  0
   24.7688    8.0234   54.8389 C   0  0  0  0  0  0  0  0  0  0  0  0
   24.6237    9.0700   55.7141 C   0  0  0  0  0  0  0  0  0  0  0  0
   23.0248    9.5984   56.2398 Cl  0  0  0  0  0  0  0  0  0  0  0  0
   25.6796    9.7802   56.2341 C   0  0  0  0  0  0  0  0  0  0  0  0
   23.5878    7.3340   54.3175 C   0  0  0  0  0  0  0  0  0  0  0  0
   23.3586    5.9949   54.5871 C   0  0  0  0  0  0  0  0  0  0  0  0
   22.2417    5.3792   54.1573 N   0  0  0  0  0  0  0  0  0  0  0  0
   21.3014    6.0211   53.4544 N   0  0  0  0  0  0  0  0  0  0  0  0
   20.1322    5.6342   52.9298 C   0  0  0  0  0  0  0  0  0  0  0  0
   19.6245    6.7536   52.3210 N   0  0  0  0  0  0  0  0  0  0  0  0
   20.4518    7.7653   52.4733 N   0  0  0  0  0  0  0  0  0  0  0  0
   21.5100    7.3177   53.1847 C   0  0  0  0  0  0  0  0  0  0  0  0
   22.6564    8.0228   53.6025 C   0  0  0  0  0  0  0  0  0  0  0  0
   22.7646    9.4229   53.1717 C   0  0  0  0  0  0  0  0  0  0  0  0
   19.4825    4.3235   52.9660 C   0  0  0  0  0  0  0  0  0  0  0  0
   18.6055    4.1481   54.2039 C   0  0  0  0  0  0  0  0  0  0  0  0
   17.3664    3.3373   54.0999 C   0  0  0  0  0  0  0  0  0  0  0  0
   17.1996    4.8082   54.0392 C   0  0  0  0  0  0  0  0  0  0  0  0
   28.0397   10.1610   56.4034 O   0  0  0  0  0  0  0  0  0  0  0  0
   28.8983   12.2564   60.7144 C   0  0  0  0  0  0  0  0  0  0  0  0
   28.8067   11.0339   59.8893 C   0  0  0  0  0  0  0  0  0  0  0  0
   29.0262    9.7877   60.4232 C   0  0  0  0  0  0  0  0  0  0  0  0
   28.9214    8.6381   59.6285 C   0  0  0  0  0  0  0  0  0  0  0  0
   28.5946    8.7750   58.2968 C   0  0  0  0  0  0  0  0  0  0  0  0
   28.3671   10.0368   57.7308 C   0  0  0  0  0  0  0  0  0  0  0  0
   28.4829   11.1353   58.5624 C   0  0  0  0  0  0  0  0  0  0  0  0
   28.2057   12.4735   58.0266 C   0  0  0  0  0  0  0  0  0  0  0  0
 23 24  1  0  0  0
 24 25  2  0  0  0
 25 26  1  0  0  0
 26 27  2  0  0  0
 27 28  1  0  0  0
 28 22  1  0  0  0
 22  1  1  0  0  0
  1  2  2  0  0  0
  2  3  1  0  0  0
  3  4  2  0  0  0
  4  5  1  0  0  0
  5  6  1  0  0  0
  5  7  2  0  0  0
  4  8  1  0  0  0
  8  9  1  0  0  0
  9 10  2  0  0  0
 10 11  1  0  0  0
 11 12  1  0  0  0
 12 18  1  0  0  0
 18 19  1  0  0  0
 19 20  1  0  0  0
 20 21  1  0  0  0
 12 13  2  0  0  0
 13 14  1  0  0  0
 14 15  2  0  0  0
 15 16  1  0  0  0
 16 17  1  0  0  0
 28 29  2  0  0  0
 29 30  1  0  0  0
 29 24  1  0  0  0
  7  1  1  0  0  0
 16  8  2  0  0  0
 15 11  1  0  0  0
 21 19  1  0  0  0
M  END
> <minimizedAffinity>
14.13281

> <CNNscore>
0.4793734550

> <CNNaffinity>
6.6333160400

> <CNN_VS>
3.1798355579

> <CNNaffinity_variance>
0.1087159365

$$$$
[H]c1nn2c(C([H])([H])C3([H])C([H])([H])C3([H])[H])nnc2c(C([H])([H])[H])c1-c1c([H])c([H])c(Oc2c([H])c([H])c([H])c(C([H])([H])[H])c2C([H])([H])[H])c([H])c1Cl


 30 34  0  0  0  0  0  0  0  0999 V2000
   27.9699    9.5344   56.8257 C   0  0  0  0  0  0  0  0  0  0  0  0
   26.7739    9.6152   57.4714 C   0  0  0  0  0  0  0  0  0  0  0  0
   25.5510    9.2981   56.9240 C   0  0  0  0  0  0  0  0  0  0  0  0
   25.5058    8.8579   55.6070 C   0  0  0  0  0  0  0  0  0  0  0  0
   26.6970    8.7636   54.9327 C   0  0  0  0  0  0  0  0  0  0  0  0
   26.7517    8.2013   53.2615 Cl  0  0  0  0  0  0  0  0  0  0  0  0
   27.9137    9.0819   55.4876 C   0  0  0  0  0  0  0  0  0  0  0  0
   24.2565    8.4789   54.9456 C   0  0  0  0  0  0  0  0  0  0  0  0
   24.2426    7.5722   53.8986 C   0  0  0  0  0  0  0  0  0  0  0  0
   23.0865    7.1797   53.3326 N   0  0  0  0  0  0  0  0  0  0  0  0
   21.8999    7.6387   53.7468 N   0  0  0  0  0  0  0  0  0  0  0  0
   20.6428    7.4022   53.3524 C   0  0  0  0  0  0  0  0  0  0  0  0
   19.8591    8.1775   54.1688 N   0  0  0  0  0  0  0  0  0  0  0  0
   20.6122    8.8484   55.0136 N   0  0  0  0  0  0  0  0  0  0  0  0
   21.8975    8.5179   54.7589 C   0  0  0  0  0  0  0  0  0  0  0  0
   23.0700    8.9722   55.3954 C   0  0  0  0  0  0  0  0  0  0  0  0
   22.9016    9.9844   56.4463 C   0  0  0  0  0  0  0  0  0  0  0  0
   20.1480    6.5209   52.2942 C   0  0  0  0  0  0  0  0  0  0  0  0
   20.3480    7.1200   50.9037 C   0  0  0  0  0  0  0  0  0  0  0  0
   21.1805    8.3404   50.7582 C   0  0  0  0  0  0  0  0  0  0  0  0
   19.7125    8.5402   50.7674 C   0  0  0  0  0  0  0  0  0  0  0  0
   29.2036    9.8502   57.3557 O   0  0  0  0  0  0  0  0  0  0  0  0
   28.2409   13.8263   59.9972 C   0  0  0  0  0  0  0  0  0  0  0  0
   28.8522   12.4849   59.8928 C   0  0  0  0  0  0  0  0  0  0  0  0
   29.4982   11.9042   60.9566 C   0  0  0  0  0  0  0  0  0  0  0  0
   30.0602   10.6253   60.8433 C   0  0  0  0  0  0  0  0  0  0  0  0
   29.9567    9.9548   59.6439 C   0  0  0  0  0  0  0  0  0  0  0  0
   29.3027   10.5286   58.5451 C   0  0  0  0  0  0  0  0  0  0  0  0
   28.7662   11.7915   58.7148 C   0  0  0  0  0  0  0  0  0  0  0  0
   28.0292   12.4129   57.6078 C   0  0  0  0  0  0  0  0  0  0  0  0
 23 24  1  0  0  0
 24 25  2  0  0  0
 25 26  1  0  0  0
 26 27  2  0  0  0
 27 28  1  0  0  0
 28 22  1  0  0  0
 22  1  1  0  0  0
  1  2  2  0  0  0
  2  3  1  0  0  0
  3  4  2  0  0  0
  4  5  1  0  0  0
  5  6  1  0  0  0
  5  7  2  0  0  0
  4  8  1  0  0  0
  8  9  1  0  0  0
  9 10  2  0  0  0
 10 11  1  0  0  0
 11 12  1  0  0  0
 12 18  1  0  0  0
 18 19  1  0  0  0
 19 20  1  0  0  0
 20 21  1  0  0  0
 12 13  2  0  0  0
 13 14  1  0  0  0
 14 15  2  0  0  0
 15 16  1  0  0  0
 16 17  1  0  0  0
 28 29  2  0  0  0
 29 30  1  0  0  0
 29 24  1  0  0  0
  7  1  1  0  0  0
 16  8  2  0  0  0
 15 11  1  0  0  0
 21 19  1  0  0  0
M  END
> <minimizedAffinity>
20.78475

> <CNNscore>
0.4766177237

> <CNNaffinity>
6.4890661240

> <CNN_VS>
3.0928039551

> <CNNaffinity_variance>
0.1532762945

$$$$
[H]c1nn2c(C([H])([H])C3([H])C([H])([H])C3([H])[H])nnc2c(C([H])([H])[H])c1-c1c([H])c([H])c(Oc2c([H])c([H])c([H])c(C([H])([H])[H])c2C([H])([H])[H])c([H])c1Cl


 30 34  0  0  0  0  0  0  0  0999 V2000
   27.5673    9.3935   56.2331 C   0  0  0  0  0  0  0  0  0  0  0  0
   27.4973    8.5489   55.1674 C   0  0  0  0  0  0  0  0  0  0  0  0
   26.3346    8.1069   54.5772 C   0  0  0  0  0  0  0  0  0  0  0  0
   25.1200    8.5426   55.0923 C   0  0  0  0  0  0  0  0  0  0  0  0
   25.1603    9.3974   56.1648 C   0  0  0  0  0  0  0  0  0  0  0  0
   23.6754   10.0210   56.8846 Cl  0  0  0  0  0  0  0  0  0  0  0  0
   26.3264    9.8340   56.7474 C   0  0  0  0  0  0  0  0  0  0  0  0
   23.8333    8.1435   54.5203 C   0  0  0  0  0  0  0  0  0  0  0  0
   22.9975    9.0670   53.9145 C   0  0  0  0  0  0  0  0  0  0  0  0
   21.8433    8.6873   53.3360 N   0  0  0  0  0  0  0  0  0  0  0  0
   21.4450    7.4101   53.3142 N   0  0  0  0  0  0  0  0  0  0  0  0
   20.3647    6.8004   52.8112 C   0  0  0  0  0  0  0  0  0  0  0  0
   20.5306    5.4722   53.1108 N   0  0  0  0  0  0  0  0  0  0  0  0
   21.6587    5.2938   53.7640 N   0  0  0  0  0  0  0  0  0  0  0  0
   22.2433    6.5048   53.8978 C   0  0  0  0  0  0  0  0  0  0  0  0
   23.4632    6.8334   54.5223 C   0  0  0  0  0  0  0  0  0  0  0  0
   24.1906    5.7345   55.1711 C   0  0  0  0  0  0  0  0  0  0  0  0
   19.2260    7.3681   52.0884 C   0  0  0  0  0  0  0  0  0  0  0  0
   19.6632    8.1994   50.8842 C   0  0  0  0  0  0  0  0  0  0  0  0
   21.0957    8.2055   50.4950 C   0  0  0  0  0  0  0  0  0  0  0  0
   20.6203    9.3684   51.2802 C   0  0  0  0  0  0  0  0  0  0  0  0
   28.7212    9.8444   56.8394 O   0  0  0  0  0  0  0  0  0  0  0  0
   28.4006   12.8183   60.6822 C   0  0  0  0  0  0  0  0  0  0  0  0
   28.6293   11.4641   60.1364 C   0  0  0  0  0  0  0  0  0  0  0  0
   28.8769   10.3905   60.9564 C   0  0  0  0  0  0  0  0  0  0  0  0
   29.0779    9.1108   60.4217 C   0  0  0  0  0  0  0  0  0  0  0  0
   29.0247    8.9427   59.0550 C   0  0  0  0  0  0  0  0  0  0  0  0
   28.7743   10.0241   58.1994 C   0  0  0  0  0  0  0  0  0  0  0  0
   28.5823   11.2630   58.7824 C   0  0  0  0  0  0  0  0  0  0  0  0
   28.2682   12.4163   57.9304 C   0  0  0  0  0  0  0  0  0  0  0  0
 23 24  1  0  0  0
 24 25  2  0  0  0
 25 26  1  0  0  0
 26 27  2  0  0  0
 27 28  1  0  0  0
 28 22  1  0  0  0
 22  1  1  0  0  0
  1  2  2  0  0  0
  2  3  1  0  0  0
  3  4  2  0  0  0
  4  5  1  0  0  0
  5  6  1  0  0  0
  5  7  2  0  0  0
  4  8  1  0  0  0
  8  9  1  0  0  0
  9 10  2  0  0  0
 10 11  1  0  0  0
 11 12  1  0  0  0
 12 18  1  0  0  0
 18 19  1  0  0  0
 19 20  1  0  0  0
 20 21  1  0  0  0
 12 13  2  0  0  0
 13 14  1  0  0  0
 14 15  2  0  0  0
 15 16  1  0  0  0
 16 17  1  0  0  0
 28 29  2  0  0  0
 29 30  1  0  0  0
 29 24  1  0  0  0
  7  1  1  0  0  0
 16  8  2  0  0  0
 15 11  1  0  0  0
 21 19  1  0  0  0
M  END
> <minimizedAffinity>
18.86230

> <CNNscore>
0.4643004537

> <CNNaffinity>
6.5379614830

> <CNN_VS>
3.0355784893

> <CNNaffinity_variance>
0.2169152051

$$$$
[H]c1nn2c(C([H])([H])C3([H])C([H])([H])C3([H])[H])nnc2c(C([H])([H])[H])c1-c1c([H])c([H])c(Oc2c([H])c([H])c([H])c(C([H])([H])[H])c2C([H])([H])[H])c([H])c1Cl


 30 34  0  0  0  0  0  0  0  0999 V2000
   20.8558    7.1146   53.4524 C   0  0  0  0  0  0  0  0  0  0  0  0
   21.9977    6.3757   53.5160 C   0  0  0  0  0  0  0  0  0  0  0  0
   23.2000    6.8111   54.0265 C   0  0  0  0  0  0  0  0  0  0  0  0
   23.2818    8.1062   54.5229 C   0  0  0  0  0  0  0  0  0  0  0  0
   22.1450    8.8729   54.4745 C   0  0  0  0  0  0  0  0  0  0  0  0
   22.1378   10.5253   55.0921 Cl  0  0  0  0  0  0  0  0  0  0  0  0
   20.9484    8.4295   53.9634 C   0  0  0  0  0  0  0  0  0  0  0  0
   24.5100    8.6511   55.1031 C   0  0  0  0  0  0  0  0  0  0  0  0
   24.4853    9.3983   56.2691 C   0  0  0  0  0  0  0  0  0  0  0  0
   25.6219    9.8467   56.8331 N   0  0  0  0  0  0  0  0  0  0  0  0
   26.8252    9.5968   56.3040 N   0  0  0  0  0  0  0  0  0  0  0  0
   28.0693    9.9262   56.6721 C   0  0  0  0  0  0  0  0  0  0  0  0
   28.8839    9.3745   55.7163 N   0  0  0  0  0  0  0  0  0  0  0  0
   28.1611    8.7435   54.8161 N   0  0  0  0  0  0  0  0  0  0  0  0
   26.8648    8.8755   55.1745 C   0  0  0  0  0  0  0  0  0  0  0  0
   25.7145    8.3768   54.5310 C   0  0  0  0  0  0  0  0  0  0  0  0
   25.9234    7.6584   53.2670 C   0  0  0  0  0  0  0  0  0  0  0  0
   28.5255   10.6984   57.8284 C   0  0  0  0  0  0  0  0  0  0  0  0
   28.6397    9.8403   59.0866 C   0  0  0  0  0  0  0  0  0  0  0  0
   28.5755   10.4985   60.4156 C   0  0  0  0  0  0  0  0  0  0  0  0
   29.9267   10.1580   59.9124 C   0  0  0  0  0  0  0  0  0  0  0  0
   19.6441    6.6974   52.9423 O   0  0  0  0  0  0  0  0  0  0  0  0
   15.9443    3.9558   54.5258 C   0  0  0  0  0  0  0  0  0  0  0  0
   17.3353    4.0569   54.0372 C   0  0  0  0  0  0  0  0  0  0  0  0
   18.1231    2.9438   53.8743 C   0  0  0  0  0  0  0  0  0  0  0  0
   19.4357    3.0576   53.3966 C   0  0  0  0  0  0  0  0  0  0  0  0
   19.9289    4.3077   53.0919 C   0  0  0  0  0  0  0  0  0  0  0  0
   19.1431    5.4572   53.2513 C   0  0  0  0  0  0  0  0  0  0  0  0
   17.8555    5.2847   53.7246 C   0  0  0  0  0  0  0  0  0  0  0  0
   16.9783    6.4538   53.8612 C   0  0  0  0  0  0  0  0  0  0  0  0
 23 24  1  0  0  0
 24 25  2  0  0  0
 25 26  1  0  0  0
 26 27  2  0  0  0
 27 28  1  0  0  0
 28 22  1  0  0  0
 22  1  1  0  0  0
  1  2  2  0  0  0
  2  3  1  0  0  0
  3  4  2  0  0  0
  4  5  1  0  0  0
  5  6  1  0  0  0
  5  7  2  0  0  0
  4  8  1  0  0  0
  8  9  1  0  0  0
  9 10  2  0  0  0
 10 11  1  0  0  0
 11 12  1  0  0  0
 12 18  1  0  0  0
 18 19  1  0  0  0
 19 20  1  0  0  0
 20 21  1  0  0  0
 12 13  2  0  0  0
 13 14  1  0  0  0
 14 15  2  0  0  0
 15 16  1  0  0  0
 16 17  1  0  0  0
 28 29  2  0  0  0
 29 30  1  0  0  0
 29 24  1  0  0  0
  7  1  1  0  0  0
 16  8  2  0  0  0
 15 11  1  0  0  0
 21 19  1  0  0  0
M  END
> <minimizedAffinity>
20.55400

> <CNNscore>
0.4568943381

> <CNNaffinity>
6.8260736465

> <CNN_VS>
3.1187944412

> <CNNaffinity_variance>
0.1731296480

$$$$
[H]c1nn2c(C([H])([H])C3([H])C([H])([H])C3([H])[H])nnc2c(C([H])([H])[H])c1-c1c([H])c([H])c(Oc2c([H])c([H])c([H])c(C([H])([H])[H])c2C([H])([H])[H])c([H])c1Cl


 30 34  0  0  0  0  0  0  0  0999 V2000
   20.3492    7.6939   53.3847 C   0  0  0  0  0  0  0  0  0  0  0  0
   20.8572    8.9520   53.2703 C   0  0  0  0  0  0  0  0  0  0  0  0
   22.0799    9.3632   53.7515 C   0  0  0  0  0  0  0  0  0  0  0  0
   22.8798    8.4390   54.4121 C   0  0  0  0  0  0  0  0  0  0  0  0
   22.3943    7.1620   54.5391 C   0  0  0  0  0  0  0  0  0  0  0  0
   23.3370    5.9090   55.3474 Cl  0  0  0  0  0  0  0  0  0  0  0  0
   21.1722    6.7601   54.0549 C   0  0  0  0  0  0  0  0  0  0  0  0
   24.2022    8.7770   54.9403 C   0  0  0  0  0  0  0  0  0  0  0  0
   24.3458    9.4891   56.1195 C   0  0  0  0  0  0  0  0  0  0  0  0
   25.5624    9.7459   56.6343 N   0  0  0  0  0  0  0  0  0  0  0  0
   26.6877    9.3306   56.0413 N   0  0  0  0  0  0  0  0  0  0  0  0
   27.9832    9.4587   56.3529 C   0  0  0  0  0  0  0  0  0  0  0  0
   28.6590    8.8150   55.3478 N   0  0  0  0  0  0  0  0  0  0  0  0
   27.8075    8.3239   54.4732 N   0  0  0  0  0  0  0  0  0  0  0  0
   26.5646    8.6410   54.8982 C   0  0  0  0  0  0  0  0  0  0  0  0
   25.3230    8.3386   54.3039 C   0  0  0  0  0  0  0  0  0  0  0  0
   25.3611    7.6296   53.0180 C   0  0  0  0  0  0  0  0  0  0  0  0
   28.6049   10.1231   57.4990 C   0  0  0  0  0  0  0  0  0  0  0  0
   28.2278    9.4625   58.8233 C   0  0  0  0  0  0  0  0  0  0  0  0
   28.9424    9.8678   60.0597 C   0  0  0  0  0  0  0  0  0  0  0  0
   29.3926    8.6099   59.4195 C   0  0  0  0  0  0  0  0  0  0  0  0
   19.1266    7.2642   52.9125 O   0  0  0  0  0  0  0  0  0  0  0  0
   19.6108    2.4599   53.5432 C   0  0  0  0  0  0  0  0  0  0  0  0
   18.7876    3.6819   53.6572 C   0  0  0  0  0  0  0  0  0  0  0  0
   17.5187    3.6481   54.1814 C   0  0  0  0  0  0  0  0  0  0  0  0
   16.7577    4.8195   54.2944 C   0  0  0  0  0  0  0  0  0  0  0  0
   17.3015    6.0121   53.8694 C   0  0  0  0  0  0  0  0  0  0  0  0
   18.5940    6.0699   53.3305 C   0  0  0  0  0  0  0  0  0  0  0  0
   19.2990    4.8837   53.2446 C   0  0  0  0  0  0  0  0  0  0  0  0
   20.6748    4.9018   52.7329 C   0  0  0  0  0  0  0  0  0  0  0  0
 23 24  1  0  0  0
 24 25  2  0  0  0
 25 26  1  0  0  0
 26 27  2  0  0  0
 27 28  1  0  0  0
 28 22  1  0  0  0
 22  1  1  0  0  0
  1  2  2  0  0  0
  2  3  1  0  0  0
  3  4  2  0  0  0
  4  5  1  0  0  0
  5  6  1  0  0  0
  5  7  2  0  0  0
  4  8  1  0  0  0
  8  9  1  0  0  0
  9 10  2  0  0  0
 10 11  1  0  0  0
 11 12  1  0  0  0
 12 18  1  0  0  0
 18 19  1  0  0  0
 19 20  1  0  0  0
 20 21  1  0  0  0
 12 13  2  0  0  0
 13 14  1  0  0  0
 14 15  2  0  0  0
 15 16  1  0  0  0
 16 17  1  0  0  0
 28 29  2  0  0  0
 29 30  1  0  0  0
 29 24  1  0  0  0
  7  1  1  0  0  0
 16  8  2  0  0  0
 15 11  1  0  0  0
 21 19  1  0  0  0
M  END
> <minimizedAffinity>
22.21243

> <CNNscore>
0.4321178198

> <CNNaffinity>
6.8999991417

> <CNN_VS>
2.9816126823

> <CNNaffinity_variance>
0.2540292144

$$$$
[H]c1nn2c(C([H])([H])C3([H])C([H])([H])C3([H])[H])nnc2c(C([H])([H])[H])c1-c1c([H])c([H])c(Oc2c([H])c([H])c([H])c(C([H])([H])[H])c2C([H])([H])[H])c([H])c1Cl


 30 34  0  0  0  0  0  0  0  0999 V2000
   26.1798    8.8192   54.6082 C   0  0  0  0  0  0  0  0  0  0  0  0
   26.0670    7.6418   53.9338 C   0  0  0  0  0  0  0  0  0  0  0  0
   24.8893    6.9671   53.7020 C   0  0  0  0  0  0  0  0  0  0  0  0
   23.7054    7.5101   54.1856 C   0  0  0  0  0  0  0  0  0  0  0  0
   23.7888    8.6983   54.8666 C   0  0  0  0  0  0  0  0  0  0  0  0
   22.3434    9.4797   55.5087 Cl  0  0  0  0  0  0  0  0  0  0  0  0
   24.9693    9.3654   55.0929 C   0  0  0  0  0  0  0  0  0  0  0  0
   22.4034    6.8769   53.9720 C   0  0  0  0  0  0  0  0  0  0  0  0
   22.1820    5.5531   54.3140 C   0  0  0  0  0  0  0  0  0  0  0  0
   20.9675    4.9910   54.1728 N   0  0  0  0  0  0  0  0  0  0  0  0
   19.9184    5.6738   53.6999 N   0  0  0  0  0  0  0  0  0  0  0  0
   18.6413    5.3421   53.4744 C   0  0  0  0  0  0  0  0  0  0  0  0
   18.0568    6.4809   52.9814 N   0  0  0  0  0  0  0  0  0  0  0  0
   18.9432    7.4508   52.9139 N   0  0  0  0  0  0  0  0  0  0  0  0
   20.1177    6.9562   53.3634 C   0  0  0  0  0  0  0  0  0  0  0  0
   21.3624    7.6061   53.4843 C   0  0  0  0  0  0  0  0  0  0  0  0
   21.4309    8.9956   53.0130 C   0  0  0  0  0  0  0  0  0  0  0  0
   17.9580    4.0660   53.6887 C   0  0  0  0  0  0  0  0  0  0  0  0
   16.5468    4.2529   54.2418 C   0  0  0  0  0  0  0  0  0  0  0  0
   15.6690    3.0653   54.3925 C   0  0  0  0  0  0  0  0  0  0  0  0
   15.4426    3.9052   53.1933 C   0  0  0  0  0  0  0  0  0  0  0  0
   27.3496    9.5078   54.8530 O   0  0  0  0  0  0  0  0  0  0  0  0
   28.0578   12.2665   58.8028 C   0  0  0  0  0  0  0  0  0  0  0  0
   28.2115   10.9690   58.1124 C   0  0  0  0  0  0  0  0  0  0  0  0
   28.8102    9.8951   58.7244 C   0  0  0  0  0  0  0  0  0  0  0  0
   28.9350    8.6680   58.0591 C   0  0  0  0  0  0  0  0  0  0  0  0
   28.4475    8.5523   56.7754 C   0  0  0  0  0  0  0  0  0  0  0  0
   27.8337    9.6352   56.1313 C   0  0  0  0  0  0  0  0  0  0  0  0
   27.7370   10.8206   56.8362 C   0  0  0  0  0  0  0  0  0  0  0  0
   27.0582   11.9679   56.2215 C   0  0  0  0  0  0  0  0  0  0  0  0
 23 24  1  0  0  0
 24 25  2  0  0  0
 25 26  1  0  0  0
 26 27  2  0  0  0
 27 28  1  0  0  0
 28 22  1  0  0  0
 22  1  1  0  0  0
  1  2  2  0  0  0
  2  3  1  0  0  0
  3  4  2  0  0  0
  4  5  1  0  0  0
  5  6  1  0  0  0
  5  7  2  0  0  0
  4  8  1  0  0  0
  8  9  1  0  0  0
  9 10  2  0  0  0
 10 11  1  0  0  0
 11 12  1  0  0  0
 12 18  1  0  0  0
 18 19  1  0  0  0
 19 20  1  0  0  0
 20 21  1  0  0  0
 12 13  2  0  0  0
 13 14  1  0  0  0
 14 15  2  0  0  0
 15 16  1  0  0  0
 16 17  1  0  0  0
 28 29  2  0  0  0
 29 30  1  0  0  0
 29 24  1  0  0  0
  7  1  1  0  0  0
 16  8  2  0  0  0
 15 11  1  0  0  0
 21 19  1  0  0  0
M  END
> <minimizedAffinity>
31.23403

> <CNNscore>
0.4156301916

> <CNNaffinity>
6.6372556686

> <CNN_VS>
2.7586438656

> <CNNaffinity_variance>
0.1827485263

$$$$
[H]OC1(c2c([H])c([H])c(Cl)c(Cl)c2[H])C([H])([H])C([H])([H])N(C([H])([H])c2nc3c([H])c([H])c(C#N)c([H])c3n2C([H])([H])[H])C([H])([H])C1([H])[H]


 29 32  0  0  0  0  0  0  0  0999 V2000
   22.4651    8.5292   53.1789 N   0  0  0  0  0  0  0  0  0  0  0  0
   21.5638    8.4131   52.0848 C   0  0  0  0  0  0  0  0  0  0  0  0
   20.6304    7.2420   52.1202 C   0  0  0  0  0  0  0  0  0  0  0  0
   20.0367    6.9617   53.4586 C   0  0  0  0  0  0  0  0  0  0  0  0
   19.0361    7.9107   53.7135 O   0  0  0  0  0  0  0  0  0  0  0  0
   21.0730    6.9994   54.5343 C   0  0  0  0  0  0  0  0  0  0  0  0
   21.9307    8.2562   54.4689 C   0  0  0  0  0  0  0  0  0  0  0  0
   18.9789    8.0176   54.6768 H   0  0  0  0  0  0  0  0  0  0  0  0
   19.4450    5.5903   53.3867 C   0  0  0  0  0  0  0  0  0  0  0  0
   20.2421    4.5421   52.9398 C   0  0  0  0  0  0  0  0  0  0  0  0
   19.6988    3.2839   52.8627 C   0  0  0  0  0  0  0  0  0  0  0  0
   18.3904    3.0615   53.2206 C   0  0  0  0  0  0  0  0  0  0  0  0
   17.7399    1.4499   53.0944 Cl  0  0  0  0  0  0  0  0  0  0  0  0
   17.5781    4.0746   53.6678 C   0  0  0  0  0  0  0  0  0  0  0  0
   15.9018    3.8131   54.1384 Cl  0  0  0  0  0  0  0  0  0  0  0  0
   18.1320    5.3353   53.7422 C   0  0  0  0  0  0  0  0  0  0  0  0
   23.7388    7.9404   52.9696 C   0  0  0  0  0  0  0  0  0  0  0  0
   23.7036    9.3361   55.8206 C   0  0  0  0  0  0  0  0  0  0  0  0
   24.8318    8.8586   55.0723 N   0  0  0  0  0  0  0  0  0  0  0  0
   24.8046    8.2625   53.9039 C   0  0  0  0  0  0  0  0  0  0  0  0
   26.1100    7.9697   53.5845 N   0  0  0  0  0  0  0  0  0  0  0  0
   26.9299    8.3905   54.5593 C   0  0  0  0  0  0  0  0  0  0  0  0
   28.3048    8.3712   54.7406 C   0  0  0  0  0  0  0  0  0  0  0  0
   28.7969    8.9343   55.8925 C   0  0  0  0  0  0  0  0  0  0  0  0
   27.9891    9.5060   56.8476 C   0  0  0  0  0  0  0  0  0  0  0  0
   26.6237    9.5273   56.6729 C   0  0  0  0  0  0  0  0  0  0  0  0
   26.1241    8.9631   55.5214 C   0  0  0  0  0  0  0  0  0  0  0  0
   28.5935   10.0812   58.0267 C   0  0  0  0  0  0  0  0  0  0  0  0
   29.0516   10.5405   58.9738 N   0  0  0  0  0  0  0  0  0  0  0  0
 18 19  1  0  0  0
 19 20  1  0  0  0
 20 17  1  0  0  0
 17  1  1  0  0  0
  1  2  1  0  0  0
  2  3  1  0  0  0
  3  4  1  0  0  0
  4  5  1  0  0  0
  4  6  1  0  0  0
  6  7  1  0  0  0
  4  9  1  0  0  0
  9 10  2  0  0  0
 10 11  1  0  0  0
 11 12  2  0  0  0
 12 13  1  0  0  0
 12 14  1  0  0  0
 14 15  1  0  0  0
 14 16  2  0  0  0
 20 21  2  0  0  0
 21 22  1  0  0  0
 22 23  2  0  0  0
 23 24  1  0  0  0
 24 25  2  0  0  0
 25 26  1  0  0  0
 26 27  2  0  0  0
 25 28  1  0  0  0
 28 29  3  0  0  0
 27 19  1  0  0  0
  7  1  1  0  0  0
 16  9  1  0  0  0
 27 22  1  0  0  0
  5  8  1  0  0  0
M  END
> <minimizedAffinity>
22.97907

> <CNNscore>
0.5797645450

> <CNNaffinity>
6.3375897408

> <CNN_VS>
3.6743097305

> <CNNaffinity_variance>
0.6929769516

$$$$
[H]OC1(c2c([H])c([H])c(Cl)c(Cl)c2[H])C([H])([H])C([H])([H])N(C([H])([H])c2nc3c([H])c([H])c(C#N)c([H])c3n2C([H])([H])[H])C([H])([H])C1([H])[H]


 29 32  0  0  0  0  0  0  0  0999 V2000
   20.6969    9.2872   54.3297 N   0  0  0  0  0  0  0  0  0  0  0  0
   21.1216    8.4716   55.4147 C   0  0  0  0  0  0  0  0  0  0  0  0
   22.6019    8.3204   55.5867 C   0  0  0  0  0  0  0  0  0  0  0  0
   23.3800    9.5784   55.4015 C   0  0  0  0  0  0  0  0  0  0  0  0
   23.2158   10.3798   56.5406 O   0  0  0  0  0  0  0  0  0  0  0  0
   22.9399   10.3177   54.1799 C   0  0  0  0  0  0  0  0  0  0  0  0
   21.4278   10.4897   54.1199 C   0  0  0  0  0  0  0  0  0  0  0  0
   23.3172   11.3038   56.2601 H   0  0  0  0  0  0  0  0  0  0  0  0
   24.8129    9.1783   55.2507 C   0  0  0  0  0  0  0  0  0  0  0  0
   25.1920    8.4692   54.1161 C   0  0  0  0  0  0  0  0  0  0  0  0
   26.5045    8.0913   53.9797 C   0  0  0  0  0  0  0  0  0  0  0  0
   27.4296    8.4074   54.9460 C   0  0  0  0  0  0  0  0  0  0  0  0
   29.0822    7.8960   54.7362 Cl  0  0  0  0  0  0  0  0  0  0  0  0
   27.0878    9.1084   56.0764 C   0  0  0  0  0  0  0  0  0  0  0  0
   28.2559    9.5309   57.3242 Cl  0  0  0  0  0  0  0  0  0  0  0  0
   25.7672    9.4841   56.2053 C   0  0  0  0  0  0  0  0  0  0  0  0
   20.4228    8.5869   53.1267 C   0  0  0  0  0  0  0  0  0  0  0  0
   22.6246    6.3223   52.8085 C   0  0  0  0  0  0  0  0  0  0  0  0
   21.2141    6.1736   53.0304 N   0  0  0  0  0  0  0  0  0  0  0  0
   20.3366    7.1371   53.1821 C   0  0  0  0  0  0  0  0  0  0  0  0
   19.1199    6.5284   53.3853 N   0  0  0  0  0  0  0  0  0  0  0  0
   19.2596    5.1946   53.3547 C   0  0  0  0  0  0  0  0  0  0  0  0
   18.3811    4.1283   53.4778 C   0  0  0  0  0  0  0  0  0  0  0  0
   18.9049    2.8637   53.3654 C   0  0  0  0  0  0  0  0  0  0  0  0
   20.2404    2.6268   53.1369 C   0  0  0  0  0  0  0  0  0  0  0  0
   21.1166    3.6817   53.0145 C   0  0  0  0  0  0  0  0  0  0  0  0
   20.5982    4.9514   53.1279 C   0  0  0  0  0  0  0  0  0  0  0  0
   20.7035    1.2632   53.0260 C   0  0  0  0  0  0  0  0  0  0  0  0
   21.0922    0.1858   52.9493 N   0  0  0  0  0  0  0  0  0  0  0  0
 18 19  1  0  0  0
 19 20  1  0  0  0
 20 17  1  0  0  0
 17  1  1  0  0  0
  1  2  1  0  0  0
  2  3  1  0  0  0
  3  4  1  0  0  0
  4  5  1  0  0  0
  4  6  1  0  0  0
  6  7  1  0  0  0
  4  9  1  0  0  0
  9 10  2  0  0  0
 10 11  1  0  0  0
 11 12  2  0  0  0
 12 13  1  0  0  0
 12 14  1  0  0  0
 14 15  1  0  0  0
 14 16  2  0  0  0
 20 21  2  0  0  0
 21 22  1  0  0  0
 22 23  2  0  0  0
 23 24  1  0  0  0
 24 25  2  0  0  0
 25 26  1  0  0  0
 26 27  2  0  0  0
 25 28  1  0  0  0
 28 29  3  0  0  0
 27 19  1  0  0  0
  7  1  1  0  0  0
 16  9  1  0  0  0
 27 22  1  0  0  0
  5  8  1  0  0  0
M  END
> <minimizedAffinity>
29.35579

> <CNNscore>
0.5039246678

> <CNNaffinity>
6.5753211975

> <CNN_VS>
3.3134665489

> <CNNaffinity_variance>
0.3680899143

$$$$
[H]OC1(c2c([H])c([H])c(Cl)c(Cl)c2[H])C([H])([H])C([H])([H])N(C([H])([H])c2nc3c([H])c([H])c(C#N)c([H])c3n2C([H])([H])[H])C([H])([H])C1([H])[H]


 29 32  0  0  0  0  0  0  0  0999 V2000
   20.6243    8.7251   54.3423 N   0  0  0  0  0  0  0  0  0  0  0  0
   21.1058    8.2868   55.6067 C   0  0  0  0  0  0  0  0  0  0  0  0
   22.5924    8.3056   55.7894 C   0  0  0  0  0  0  0  0  0  0  0  0
   23.2699    9.5154   55.2418 C   0  0  0  0  0  0  0  0  0  0  0  0
   23.0364   10.5922   56.1094 O   0  0  0  0  0  0  0  0  0  0  0  0
   22.7798    9.8408   53.8683 C   0  0  0  0  0  0  0  0  0  0  0  0
   21.2592    9.8713   53.7876 C   0  0  0  0  0  0  0  0  0  0  0  0
   23.0661   11.4033   55.5767 H   0  0  0  0  0  0  0  0  0  0  0  0
   24.7307    9.2009   55.1864 C   0  0  0  0  0  0  0  0  0  0  0  0
   25.2362    8.5754   54.0520 C   0  0  0  0  0  0  0  0  0  0  0  0
   26.5749    8.2759   54.0024 C   0  0  0  0  0  0  0  0  0  0  0  0
   27.4030    8.5881   55.0542 C   0  0  0  0  0  0  0  0  0  0  0  0
   29.0935    8.1775   54.9521 Cl  0  0  0  0  0  0  0  0  0  0  0  0
   26.9353    9.2077   56.1871 C   0  0  0  0  0  0  0  0  0  0  0  0
   27.9775    9.6236   57.5439 Cl  0  0  0  0  0  0  0  0  0  0  0  0
   25.5893    9.5049   56.2284 C   0  0  0  0  0  0  0  0  0  0  0  0
   20.4132    7.6930   53.3922 C   0  0  0  0  0  0  0  0  0  0  0  0
   20.4376    4.5370   53.7348 C   0  0  0  0  0  0  0  0  0  0  0  0
   21.5192    5.4048   53.3632 N   0  0  0  0  0  0  0  0  0  0  0  0
   21.4644    6.7064   53.2071 C   0  0  0  0  0  0  0  0  0  0  0  0
   22.7260    7.1082   52.8345 N   0  0  0  0  0  0  0  0  0  0  0  0
   23.5471    6.0496   52.7667 C   0  0  0  0  0  0  0  0  0  0  0  0
   24.8920    5.8877   52.4685 C   0  0  0  0  0  0  0  0  0  0  0  0
   25.4015    4.6136   52.5255 C   0  0  0  0  0  0  0  0  0  0  0  0
   24.6395    3.5197   52.8639 C   0  0  0  0  0  0  0  0  0  0  0  0
   23.3040    3.6749   53.1601 C   0  0  0  0  0  0  0  0  0  0  0  0
   22.7869    4.9489   53.1032 C   0  0  0  0  0  0  0  0  0  0  0  0
   25.2602    2.2162   52.9051 C   0  0  0  0  0  0  0  0  0  0  0  0
   25.7339    1.1707   52.9269 N   0  0  0  0  0  0  0  0  0  0  0  0
 18 19  1  0  0  0
 19 20  1  0  0  0
 20 17  1  0  0  0
 17  1  1  0  0  0
  1  2  1  0  0  0
  2  3  1  0  0  0
  3  4  1  0  0  0
  4  5  1  0  0  0
  4  6  1  0  0  0
  6  7  1  0  0  0
  4  9  1  0  0  0
  9 10  2  0  0  0
 10 11  1  0  0  0
 11 12  2  0  0  0
 12 13  1  0  0  0
 12 14  1  0  0  0
 14 15  1  0  0  0
 14 16  2  0  0  0
 20 21  2  0  0  0
 21 22  1  0  0  0
 22 23  2  0  0  0
 23 24  1  0  0  0
 24 25  2  0  0  0
 25 26  1  0  0  0
 26 27  2  0  0  0
 25 28  1  0  0  0
 28 29  3  0  0  0
 27 19  1  0  0  0
  7  1  1  0  0  0
 16  9  1  0  0  0
 27 22  1  0  0  0
  5  8  1  0  0  0
M  END
> <minimizedAffinity>
34.48499

> <CNNscore>
0.4863143861

> <CNNaffinity>
6.5369520187

> <CNN_VS>
3.1790137291

> <CNNaffinity_variance>
0.6953686476

$$$$
[H]OC1(c2c([H])c([H])c(Cl)c(Cl)c2[H])C([H])([H])C([H])([H])N(C([H])([H])c2nc3c([H])c([H])c(C#N)c([H])c3n2C([H])([H])[H])C([H])([H])C1([H])[H]


 29 32  0  0  0  0  0  0  0  0999 V2000
   21.8240    7.0032   52.6075 N   0  0  0  0  0  0  0  0  0  0  0  0
   22.2215    5.7805   53.2155 C   0  0  0  0  0  0  0  0  0  0  0  0
   21.1327    4.9809   53.8628 C   0  0  0  0  0  0  0  0  0  0  0  0
   19.8641    4.9139   53.0828 C   0  0  0  0  0  0  0  0  0  0  0  0
   20.0398    4.0211   52.0157 O   0  0  0  0  0  0  0  0  0  0  0  0
   19.4656    6.2603   52.5719 C   0  0  0  0  0  0  0  0  0  0  0  0
   20.6104    6.9742   51.8653 C   0  0  0  0  0  0  0  0  0  0  0  0
   19.4438    4.3029   51.3029 H   0  0  0  0  0  0  0  0  0  0  0  0
   18.8126    4.4058   54.0167 C   0  0  0  0  0  0  0  0  0  0  0  0
   19.2064    3.8767   55.2409 C   0  0  0  0  0  0  0  0  0  0  0  0
   18.2444    3.3998   56.0961 C   0  0  0  0  0  0  0  0  0  0  0  0
   16.9146    3.4437   55.7506 C   0  0  0  0  0  0  0  0  0  0  0  0
   15.7294    2.8151   56.8628 Cl  0  0  0  0  0  0  0  0  0  0  0  0
   16.4932    3.9618   54.5506 C   0  0  0  0  0  0  0  0  0  0  0  0
   14.7957    4.0351   54.0891 Cl  0  0  0  0  0  0  0  0  0  0  0  0
   17.4662    4.4387   53.6977 C   0  0  0  0  0  0  0  0  0  0  0  0
   21.9408    8.1489   53.4361 C   0  0  0  0  0  0  0  0  0  0  0  0
   22.6594    9.6528   56.1378 C   0  0  0  0  0  0  0  0  0  0  0  0
   23.5463    9.0185   55.2040 N   0  0  0  0  0  0  0  0  0  0  0  0
   23.2088    8.3831   54.1069 C   0  0  0  0  0  0  0  0  0  0  0  0
   24.3784    7.9288   53.5434 N   0  0  0  0  0  0  0  0  0  0  0  0
   25.4264    8.2911   54.2985 C   0  0  0  0  0  0  0  0  0  0  0  0
   26.7987    8.1204   54.1919 C   0  0  0  0  0  0  0  0  0  0  0  0
   27.5808    8.6688   55.1787 C   0  0  0  0  0  0  0  0  0  0  0  0
   27.0590    9.3680   56.2420 C   0  0  0  0  0  0  0  0  0  0  0  0
   25.6976    9.5397   56.3528 C   0  0  0  0  0  0  0  0  0  0  0  0
   24.9082    8.9911   55.3681 C   0  0  0  0  0  0  0  0  0  0  0  0
   27.9572    9.9165   57.2313 C   0  0  0  0  0  0  0  0  0  0  0  0
   28.6666   10.3333   58.0319 N   0  0  0  0  0  0  0  0  0  0  0  0
 18 19  1  0  0  0
 19 20  1  0  0  0
 20 17  1  0  0  0
 17  1  1  0  0  0
  1  2  1  0  0  0
  2  3  1  0  0  0
  3  4  1  0  0  0
  4  5  1  0  0  0
  4  6  1  0  0  0
  6  7  1  0  0  0
  4  9  1  0  0  0
  9 10  2  0  0  0
 10 11  1  0  0  0
 11 12  2  0  0  0
 12 13  1  0  0  0
 12 14  1  0  0  0
 14 15  1  0  0  0
 14 16  2  0  0  0
 20 21  2  0  0  0
 21 22  1  0  0  0
 22 23  2  0  0  0
 23 24  1  0  0  0
 24 25  2  0  0  0
 25 26  1  0  0  0
 26 27  2  0  0  0
 25 28  1  0  0  0
 28 29  3  0  0  0
 27 19  1  0  0  0
  7  1  1  0  0  0
 16  9  1  0  0  0
 27 22  1  0  0  0
  5  8  1  0  0  0
M  END
> <minimizedAffinity>
30.55106

> <CNNscore>
0.4815602005

> <CNNaffinity>
6.3167672157

> <CNN_VS>
3.0419037342

> <CNNaffinity_variance>
0.7299400568

$$$$
[H]OC1(c2c([H])c([H])c(Cl)c(Cl)c2[H])C([H])([H])C([H])([H])N(C([H])([H])c2nc3c([H])c([H])c(C#N)c([H])c3n2C([H])([H])[H])C([H])([H])C1([H])[H]


 29 32  0  0  0  0  0  0  0  0999 V2000
   20.7616    7.6229   53.9800 N   0  0  0  0  0  0  0  0  0  0  0  0
   21.2817    7.4030   55.2854 C   0  0  0  0  0  0  0  0  0  0  0  0
   22.7506    7.6392   55.4590 C   0  0  0  0  0  0  0  0  0  0  0  0
   23.2695    8.8554   54.7703 C   0  0  0  0  0  0  0  0  0  0  0  0
   22.8861    9.9860   55.5062 O   0  0  0  0  0  0  0  0  0  0  0  0
   22.7570    8.9502   53.3700 C   0  0  0  0  0  0  0  0  0  0  0  0
   21.2467    8.7700   53.2920 C   0  0  0  0  0  0  0  0  0  0  0  0
   22.8151   10.7260   54.8816 H   0  0  0  0  0  0  0  0  0  0  0  0
   24.7595    8.7322   54.7468 C   0  0  0  0  0  0  0  0  0  0  0  0
   25.3683    8.2115   53.6101 C   0  0  0  0  0  0  0  0  0  0  0  0
   26.7351    8.0874   53.5894 C   0  0  0  0  0  0  0  0  0  0  0  0
   27.4909    8.4708   54.6718 C   0  0  0  0  0  0  0  0  0  0  0  0
   29.2220    8.2832   54.6053 Cl  0  0  0  0  0  0  0  0  0  0  0  0
   26.9204    8.9905   55.8078 C   0  0  0  0  0  0  0  0  0  0  0  0
   27.8676    9.4947   57.2036 Cl  0  0  0  0  0  0  0  0  0  0  0  0
   25.5467    9.1117   55.8200 C   0  0  0  0  0  0  0  0  0  0  0  0
   20.6994    6.4678   53.1587 C   0  0  0  0  0  0  0  0  0  0  0  0
   20.4692    3.3145   52.8741 C   0  0  0  0  0  0  0  0  0  0  0  0
   19.4414    4.2600   53.2063 N   0  0  0  0  0  0  0  0  0  0  0  0
   19.5806    5.5578   53.3394 C   0  0  0  0  0  0  0  0  0  0  0  0
   18.3417    6.0507   53.6774 N   0  0  0  0  0  0  0  0  0  0  0  0
   17.4499    5.0510   53.7472 C   0  0  0  0  0  0  0  0  0  0  0  0
   16.0915    4.9856   54.0194 C   0  0  0  0  0  0  0  0  0  0  0  0
   15.4985    3.7476   53.9752 C   0  0  0  0  0  0  0  0  0  0  0  0
   16.1917    2.5986   53.6734 C   0  0  0  0  0  0  0  0  0  0  0  0
   17.5403    2.6579   53.4030 C   0  0  0  0  0  0  0  0  0  0  0  0
   18.1408    3.8953   53.4474 C   0  0  0  0  0  0  0  0  0  0  0  0
   15.4854    1.3390   53.6431 C   0  0  0  0  0  0  0  0  0  0  0  0
   14.9147    0.3430   53.6410 N   0  0  0  0  0  0  0  0  0  0  0  0
 18 19  1  0  0  0
 19 20  1  0  0  0
 20 17  1  0  0  0
 17  1  1  0  0  0
  1  2  1  0  0  0
  2  3  1  0  0  0
  3  4  1  0  0  0
  4  5  1  0  0  0
  4  6  1  0  0  0
  6  7  1  0  0  0
  4  9  1  0  0  0
  9 10  2  0  0  0
 10 11  1  0  0  0
 11 12  2  0  0  0
 12 13  1  0  0  0
 12 14  1  0  0  0
 14 15  1  0  0  0
 14 16  2  0  0  0
 20 21  2  0  0  0
 21 22  1  0  0  0
 22 23  2  0  0  0
 23 24  1  0  0  0
 24 25  2  0  0  0
 25 26  1  0  0  0
 26 27  2  0  0  0
 25 28  1  0  0  0
 28 29  3  0  0  0
 27 19  1  0  0  0
  7  1  1  0  0  0
 16  9  1  0  0  0
 27 22  1  0  0  0
  5  8  1  0  0  0
M  END
> <minimizedAffinity>
31.62379

> <CNNscore>
0.4787871838

> <CNNaffinity>
6.3826909065

> <CNN_VS>
3.0559506416

> <CNNaffinity_variance>
0.6094610095

$$$$
[H]OC1(c2c([H])c([H])c(Cl)c(Cl)c2[H])C([H])([H])C([H])([H])N(C([H])([H])c2nc3c([H])c([H])c(C#N)c([H])c3n2C([H])([H])[H])C([H])([H])C1([H])[H]


 29 32  0  0  0  0  0  0  0  0999 V2000
   21.6518    6.3608   53.9392 N   0  0  0  0  0  0  0  0  0  0  0  0
   22.7332    5.4678   53.7022 C   0  0  0  0  0  0  0  0  0  0  0  0
   24.1041    6.0709   53.7252 C   0  0  0  0  0  0  0  0  0  0  0  0
   24.3299    7.0579   54.8194 C   0  0  0  0  0  0  0  0  0  0  0  0
   24.4932    6.3614   56.0256 O   0  0  0  0  0  0  0  0  0  0  0  0
   23.1938    8.0224   54.9275 C   0  0  0  0  0  0  0  0  0  0  0  0
   21.8417    7.3228   54.9702 C   0  0  0  0  0  0  0  0  0  0  0  0
   24.1956    6.9480   56.7398 H   0  0  0  0  0  0  0  0  0  0  0  0
   25.5812    7.8008   54.4756 C   0  0  0  0  0  0  0  0  0  0  0  0
   26.4450    8.1647   55.5028 C   0  0  0  0  0  0  0  0  0  0  0  0
   27.5893    8.8559   55.1916 C   0  0  0  0  0  0  0  0  0  0  0  0
   27.8786    9.1835   53.8883 C   0  0  0  0  0  0  0  0  0  0  0  0
   29.3366   10.0726   53.5420 Cl  0  0  0  0  0  0  0  0  0  0  0  0
   27.0476    8.8368   52.8513 C   0  0  0  0  0  0  0  0  0  0  0  0
   27.4000    9.2391   51.1739 Cl  0  0  0  0  0  0  0  0  0  0  0  0
   25.9003    8.1426   53.1729 C   0  0  0  0  0  0  0  0  0  0  0  0
   21.0611    6.9079   52.7712 C   0  0  0  0  0  0  0  0  0  0  0  0
   20.6859    9.3422   54.7740 C   0  0  0  0  0  0  0  0  0  0  0  0
   20.9641    9.3770   53.3661 N   0  0  0  0  0  0  0  0  0  0  0  0
   21.1377    8.3459   52.5736 C   0  0  0  0  0  0  0  0  0  0  0  0
   21.3956    8.8546   51.3220 N   0  0  0  0  0  0  0  0  0  0  0  0
   21.3761   10.1956   51.3551 C   0  0  0  0  0  0  0  0  0  0  0  0
   21.5464   11.1879   50.4012 C   0  0  0  0  0  0  0  0  0  0  0  0
   21.4296   12.4909   50.8192 C   0  0  0  0  0  0  0  0  0  0  0  0
   21.1523   12.8346   52.1218 C   0  0  0  0  0  0  0  0  0  0  0  0
   20.9830   11.8535   53.0726 C   0  0  0  0  0  0  0  0  0  0  0  0
   21.1006   10.5458   52.6605 C   0  0  0  0  0  0  0  0  0  0  0  0
   21.0405   14.2316   52.4717 C   0  0  0  0  0  0  0  0  0  0  0  0
   20.9358   15.3449   52.7315 N   0  0  0  0  0  0  0  0  0  0  0  0
 18 19  1  0  0  0
 19 20  1  0  0  0
 20 17  1  0  0  0
 17  1  1  0  0  0
  1  2  1  0  0  0
  2  3  1  0  0  0
  3  4  1  0  0  0
  4  5  1  0  0  0
  4  6  1  0  0  0
  6  7  1  0  0  0
  4  9  1  0  0  0
  9 10  2  0  0  0
 10 11  1  0  0  0
 11 12  2  0  0  0
 12 13  1  0  0  0
 12 14  1  0  0  0
 14 15  1  0  0  0
 14 16  2  0  0  0
 20 21  2  0  0  0
 21 22  1  0  0  0
 22 23  2  0  0  0
 23 24  1  0  0  0
 24 25  2  0  0  0
 25 26  1  0  0  0
 26 27  2  0  0  0
 25 28  1  0  0  0
 28 29  3  0  0  0
 27 19  1  0  0  0
  7  1  1  0  0  0
 16  9  1  0  0  0
 27 22  1  0  0  0
  5  8  1  0  0  0
M  END
> <minimizedAffinity>
27.26450

> <CNNscore>
0.4727898240

> <CNNaffinity>
6.4225845337

> <CNN_VS>
3.0365326405

> <CNNaffinity_variance>
0.6336367726

$$$$
[H]OC1(c2c([H])c([H])c(Cl)c(Cl)c2[H])C([H])([H])C([H])([H])N(C([H])([H])c2nc3c([H])c([H])c(C#N)c([H])c3n2C([H])([H])[H])C([H])([H])C1([H])[H]


 29 32  0  0  0  0  0  0  0  0999 V2000
   21.8011    8.0836   52.3751 N   0  0  0  0  0  0  0  0  0  0  0  0
   22.4809    6.8629   52.1094 C   0  0  0  0  0  0  0  0  0  0  0  0
   22.7874    6.0058   53.2990 C   0  0  0  0  0  0  0  0  0  0  0  0
   21.6825    5.9082   54.2951 C   0  0  0  0  0  0  0  0  0  0  0  0
   20.6963    5.0491   53.7887 O   0  0  0  0  0  0  0  0  0  0  0  0
   21.0972    7.2499   54.5943 C   0  0  0  0  0  0  0  0  0  0  0  0
   20.7485    8.0251   53.3306 C   0  0  0  0  0  0  0  0  0  0  0  0
   19.8487    5.3247   54.1739 H   0  0  0  0  0  0  0  0  0  0  0  0
   22.2781    5.3367   55.5418 C   0  0  0  0  0  0  0  0  0  0  0  0
   23.5134    4.7030   55.4618 C   0  0  0  0  0  0  0  0  0  0  0  0
   24.0581    4.1681   56.6025 C   0  0  0  0  0  0  0  0  0  0  0  0
   23.3961    4.2564   57.8041 C   0  0  0  0  0  0  0  0  0  0  0  0
   24.1202    3.5517   59.2238 Cl  0  0  0  0  0  0  0  0  0  0  0  0
   22.1764    4.8774   57.9169 C   0  0  0  0  0  0  0  0  0  0  0  0
   21.3129    5.0089   59.4455 Cl  0  0  0  0  0  0  0  0  0  0  0  0
   21.6367    5.4119   56.7659 C   0  0  0  0  0  0  0  0  0  0  0  0
   22.6434    9.2124   52.5454 C   0  0  0  0  0  0  0  0  0  0  0  0
   22.9465    9.9124   55.6269 C   0  0  0  0  0  0  0  0  0  0  0  0
   23.9378    9.3984   54.7247 N   0  0  0  0  0  0  0  0  0  0  0  0
   23.7678    9.0969   53.4592 C   0  0  0  0  0  0  0  0  0  0  0  0
   24.9779    8.6275   53.0037 N   0  0  0  0  0  0  0  0  0  0  0  0
   25.8831    8.6465   53.9936 C   0  0  0  0  0  0  0  0  0  0  0  0
   27.2263    8.3120   54.0807 C   0  0  0  0  0  0  0  0  0  0  0  0
   27.8436    8.4926   55.2942 C   0  0  0  0  0  0  0  0  0  0  0  0
   27.1886    8.9860   56.3984 C   0  0  0  0  0  0  0  0  0  0  0  0
   25.8552    9.3189   56.3174 C   0  0  0  0  0  0  0  0  0  0  0  0
   25.2304    9.1387   55.1046 C   0  0  0  0  0  0  0  0  0  0  0  0
   27.9187    9.1496   57.6339 C   0  0  0  0  0  0  0  0  0  0  0  0
   28.5109    9.2984   58.6060 N   0  0  0  0  0  0  0  0  0  0  0  0
 18 19  1  0  0  0
 19 20  1  0  0  0
 20 17  1  0  0  0
 17  1  1  0  0  0
  1  2  1  0  0  0
  2  3  1  0  0  0
  3  4  1  0  0  0
  4  5  1  0  0  0
  4  6  1  0  0  0
  6  7  1  0  0  0
  4  9  1  0  0  0
  9 10  2  0  0  0
 10 11  1  0  0  0
 11 12  2  0  0  0
 12 13  1  0  0  0
 12 14  1  0  0  0
 14 15  1  0  0  0
 14 16  2  0  0  0
 20 21  2  0  0  0
 21 22  1  0  0  0
 22 23  2  0  0  0
 23 24  1  0  0  0
 24 25  2  0  0  0
 25 26  1  0  0  0
 26 27  2  0  0  0
 25 28  1  0  0  0
 28 29  3  0  0  0
 27 19  1  0  0  0
  7  1  1  0  0  0
 16  9  1  0  0  0
 27 22  1  0  0  0
  5  8  1  0  0  0
M  END
> <minimizedAffinity>
30.08526

> <CNNscore>
0.4524447024

> <CNNaffinity>
5.8329720497

> <CNN_VS>
2.6390972137

> <CNNaffinity_variance>
1.0990542173

$$$$
[H]OC1(c2c([H])c([H])c(Cl)c(Cl)c2[H])C([H])([H])C([H])([H])N(C([H])([H])c2nc3c([H])c([H])c(C#N)c([H])c3n2C([H])([H])[H])C([H])([H])C1([H])[H]


 29 32  0  0  0  0  0  0  0  0999 V2000
   21.4605    6.5937   54.6447 N   0  0  0  0  0  0  0  0  0  0  0  0
   21.9432    7.6347   55.4850 C   0  0  0  0  0  0  0  0  0  0  0  0
   21.9216    9.0152   54.9041 C   0  0  0  0  0  0  0  0  0  0  0  0
   20.6877    9.3462   54.1359 C   0  0  0  0  0  0  0  0  0  0  0  0
   19.6460    9.5897   55.0429 O   0  0  0  0  0  0  0  0  0  0  0  0
   20.3137    8.2420   53.2014 C   0  0  0  0  0  0  0  0  0  0  0  0
   20.2901    6.8835   53.8894 C   0  0  0  0  0  0  0  0  0  0  0  0
   18.8151    9.3611   54.5957 H   0  0  0  0  0  0  0  0  0  0  0  0
   20.9903   10.5815   53.3496 C   0  0  0  0  0  0  0  0  0  0  0  0
   21.8079   10.4762   52.2297 C   0  0  0  0  0  0  0  0  0  0  0  0
   22.0961   11.6100   51.5117 C   0  0  0  0  0  0  0  0  0  0  0  0
   21.5865   12.8290   51.8909 C   0  0  0  0  0  0  0  0  0  0  0  0
   21.9895   14.2435   50.9563 Cl  0  0  0  0  0  0  0  0  0  0  0  0
   20.7745   12.9661   52.9900 C   0  0  0  0  0  0  0  0  0  0  0  0
   20.1044   14.5151   53.4913 Cl  0  0  0  0  0  0  0  0  0  0  0  0
   20.4901   11.8219   53.7055 C   0  0  0  0  0  0  0  0  0  0  0  0
   22.4573    5.9243   53.8892 C   0  0  0  0  0  0  0  0  0  0  0  0
   24.9600    5.3973   55.7698 C   0  0  0  0  0  0  0  0  0  0  0  0
   24.8492    6.3023   54.6609 N   0  0  0  0  0  0  0  0  0  0  0  0
   23.8024    6.4750   53.8890 C   0  0  0  0  0  0  0  0  0  0  0  0
   24.1570    7.4219   52.9565 N   0  0  0  0  0  0  0  0  0  0  0  0
   25.4193    7.8254   53.1645 C   0  0  0  0  0  0  0  0  0  0  0  0
   26.2512    8.7504   52.5513 C   0  0  0  0  0  0  0  0  0  0  0  0
   27.5108    8.9102   53.0750 C   0  0  0  0  0  0  0  0  0  0  0  0
   27.9614    8.2014   54.1642 C   0  0  0  0  0  0  0  0  0  0  0  0
   27.1399    7.2816   54.7761 C   0  0  0  0  0  0  0  0  0  0  0  0
   25.8770    7.1156   54.2551 C   0  0  0  0  0  0  0  0  0  0  0  0
   29.3000    8.4385   54.6523 C   0  0  0  0  0  0  0  0  0  0  0  0
   30.3611    8.6085   55.0561 N   0  0  0  0  0  0  0  0  0  0  0  0
 18 19  1  0  0  0
 19 20  1  0  0  0
 20 17  1  0  0  0
 17  1  1  0  0  0
  1  2  1  0  0  0
  2  3  1  0  0  0
  3  4  1  0  0  0
  4  5  1  0  0  0
  4  6  1  0  0  0
  6  7  1  0  0  0
  4  9  1  0  0  0
  9 10  2  0  0  0
 10 11  1  0  0  0
 11 12  2  0  0  0
 12 13  1  0  0  0
 12 14  1  0  0  0
 14 15  1  0  0  0
 14 16  2  0  0  0
 20 21  2  0  0  0
 21 22  1  0  0  0
 22 23  2  0  0  0
 23 24  1  0  0  0
 24 25  2  0  0  0
 25 26  1  0  0  0
 26 27  2  0  0  0
 25 28  1  0  0  0
 28 29  3  0  0  0
 27 19  1  0  0  0
  7  1  1  0  0  0
 16  9  1  0  0  0
 27 22  1  0  0  0
  5  8  1  0  0  0
M  END
> <minimizedAffinity>
36.94682

> <CNNscore>
0.4331558645

> <CNNaffinity>
6.0958266258

> <CNN_VS>
2.6404430866

> <CNNaffinity_variance>
0.7757839561

$$$$
[H]OC1(c2c([H])c([H])c(Cl)c(Cl)c2[H])C([H])([H])C([H])([H])N(C([H])([H])c2nc3c([H])c([H])c(C#N)c([H])c3n2C([H])([H])[H])C([H])([H])C1([H])[H]


 29 32  0  0  0  0  0  0  0  0999 V2000
   26.5902    8.1880   53.9072 N   0  0  0  0  0  0  0  0  0  0  0  0
   27.8669    8.8044   53.7944 C   0  0  0  0  0  0  0  0  0  0  0  0
   28.2976    9.6474   54.9553 C   0  0  0  0  0  0  0  0  0  0  0  0
   27.9960    9.0624   56.2929 C   0  0  0  0  0  0  0  0  0  0  0  0
   28.9160    8.0361   56.5518 O   0  0  0  0  0  0  0  0  0  0  0  0
   26.5996    8.5347   56.3557 C   0  0  0  0  0  0  0  0  0  0  0  0
   26.2682    7.6303   55.1759 C   0  0  0  0  0  0  0  0  0  0  0  0
   28.4802    7.4005   57.1424 H   0  0  0  0  0  0  0  0  0  0  0  0
   28.1554   10.1657   57.2895 C   0  0  0  0  0  0  0  0  0  0  0  0
   27.6574   11.4256   56.9757 C   0  0  0  0  0  0  0  0  0  0  0  0
   27.8114   12.4432   57.8840 C   0  0  0  0  0  0  0  0  0  0  0  0
   28.4461   12.2230   59.0833 C   0  0  0  0  0  0  0  0  0  0  0  0
   28.6297   13.5478   60.2003 Cl  0  0  0  0  0  0  0  0  0  0  0  0
   28.9467   10.9903   59.4239 C   0  0  0  0  0  0  0  0  0  0  0  0
   29.7570   10.6823   60.9564 Cl  0  0  0  0  0  0  0  0  0  0  0  0
   28.7876    9.9739   58.5056 C   0  0  0  0  0  0  0  0  0  0  0  0
   25.5192    8.9218   53.3352 C   0  0  0  0  0  0  0  0  0  0  0  0
   22.6104   10.1927   53.2979 C   0  0  0  0  0  0  0  0  0  0  0  0
   22.9803    8.8064   53.3453 N   0  0  0  0  0  0  0  0  0  0  0  0
   24.1975    8.3170   53.3341 C   0  0  0  0  0  0  0  0  0  0  0  0
   24.0683    6.9482   53.3757 N   0  0  0  0  0  0  0  0  0  0  0  0
   22.7714    6.6074   53.4142 C   0  0  0  0  0  0  0  0  0  0  0  0
   22.0915    5.4005   53.4836 C   0  0  0  0  0  0  0  0  0  0  0  0
   20.7198    5.4514   53.5294 C   0  0  0  0  0  0  0  0  0  0  0  0
   20.0160    6.6329   53.5125 C   0  0  0  0  0  0  0  0  0  0  0  0
   20.6860    7.8335   53.4430 C   0  0  0  0  0  0  0  0  0  0  0  0
   22.0606    7.7894   53.3951 C   0  0  0  0  0  0  0  0  0  0  0  0
   18.5733    6.5927   53.5706 C   0  0  0  0  0  0  0  0  0  0  0  0
   17.4263    6.5850   53.6184 N   0  0  0  0  0  0  0  0  0  0  0  0
 18 19  1  0  0  0
 19 20  1  0  0  0
 20 17  1  0  0  0
 17  1  1  0  0  0
  1  2  1  0  0  0
  2  3  1  0  0  0
  3  4  1  0  0  0
  4  5  1  0  0  0
  4  6  1  0  0  0
  6  7  1  0  0  0
  4  9  1  0  0  0
  9 10  2  0  0  0
 10 11  1  0  0  0
 11 12  2  0  0  0
 12 13  1  0  0  0
 12 14  1  0  0  0
 14 15  1  0  0  0
 14 16  2  0  0  0
 20 21  2  0  0  0
 21 22  1  0  0  0
 22 23  2  0  0  0
 23 24  1  0  0  0
 24 25  2  0  0  0
 25 26  1  0  0  0
 26 27  2  0  0  0
 25 28  1  0  0  0
 28 29  3  0  0  0
 27 19  1  0  0  0
  7  1  1  0  0  0
 16  9  1  0  0  0
 27 22  1  0  0  0
  5  8  1  0  0  0
M  END
> <minimizedAffinity>
20.92758

> <CNNscore>
0.4321242869

> <CNNaffinity>
5.9327068329

> <CNN_VS>
2.5636668205

> <CNNaffinity_variance>
0.5685312748

$$$$
[H]c1c([H])c(-c2nc(-c3c([H])c(C([H])([H])[H])nc(C([H])([H])[H])c3[H])c3n2C([H])([H])[C@@]([H])(C([H])([H])[H])OC([H])([H])C3([H])[H])c([H])c(F)c1F


 27 30  0  0  0  0  0  0  0  0999 V2000
   20.3152   10.8767   55.7409 C   0  0  0  0  0  0  0  0  0  0  0  0
   20.7125   10.2098   54.4706 C   0  0  0  0  0  0  0  0  0  0  0  0
   20.7226    8.7005   54.6555 C   0  0  0  0  0  0  0  0  0  0  0  0
   22.0806    8.2213   54.6723 N   0  0  0  0  0  0  0  0  0  0  0  0
   23.1890    8.9203   54.9964 C   0  0  0  0  0  0  0  0  0  0  0  0
   23.3851   10.3013   55.5497 C   0  0  0  0  0  0  0  0  0  0  0  0
   22.7883   11.2737   54.5580 C   0  0  0  0  0  0  0  0  0  0  0  0
   21.7925   10.7064   53.8077 O   0  0  0  0  0  0  0  0  0  0  0  0
   24.2509    8.1067   54.7921 C   0  0  0  0  0  0  0  0  0  0  0  0
   23.7464    6.9404   54.3558 N   0  0  0  0  0  0  0  0  0  0  0  0
   22.3949    6.9822   54.2743 C   0  0  0  0  0  0  0  0  0  0  0  0
   21.6366    5.8335   53.8151 C   0  0  0  0  0  0  0  0  0  0  0  0
   22.1453    4.6640   53.3449 C   0  0  0  0  0  0  0  0  0  0  0  0
   21.3105    3.5925   52.9877 C   0  0  0  0  0  0  0  0  0  0  0  0
   19.9452    3.6864   53.0985 C   0  0  0  0  0  0  0  0  0  0  0  0
   19.1100    2.6736   52.7638 F   0  0  0  0  0  0  0  0  0  0  0  0
   19.4039    4.8552   53.5680 C   0  0  0  0  0  0  0  0  0  0  0  0
   18.0540    4.9955   53.6952 F   0  0  0  0  0  0  0  0  0  0  0  0
   20.2211    5.8735   53.9071 C   0  0  0  0  0  0  0  0  0  0  0  0
   25.7015    8.3330   54.9778 C   0  0  0  0  0  0  0  0  0  0  0  0
   26.6355    7.8377   54.1016 C   0  0  0  0  0  0  0  0  0  0  0  0
   27.9591    8.1173   54.3735 C   0  0  0  0  0  0  0  0  0  0  0  0
   28.9778    7.5920   53.4392 C   0  0  0  0  0  0  0  0  0  0  0  0
   28.3559    8.8383   55.4386 N   0  0  0  0  0  0  0  0  0  0  0  0
   27.4601    9.3395   56.3196 C   0  0  0  0  0  0  0  0  0  0  0  0
   27.9168   10.1350   57.4903 C   0  0  0  0  0  0  0  0  0  0  0  0
   26.1361    9.0684   56.0606 C   0  0  0  0  0  0  0  0  0  0  0  0
  1  2  1  0  0  0
  2  3  1  0  0  0
  3  4  1  0  0  0
  4  5  1  0  0  0
  5  6  1  0  0  0
  6  7  1  0  0  0
  7  8  1  0  0  0
  5  9  2  0  0  0
  9 10  1  0  0  0
 10 11  2  0  0  0
 11 12  1  0  0  0
 12 13  2  0  0  0
 13 14  1  0  0  0
 14 15  2  0  0  0
 15 16  1  0  0  0
 15 17  1  0  0  0
 17 18  1  0  0  0
 17 19  2  0  0  0
  9 20  1  0  0  0
 20 21  2  0  0  0
 21 22  1  0  0  0
 22 23  1  0  0  0
 22 24  2  0  0  0
 24 25  1  0  0  0
 25 26  1  0  0  0
 25 27  2  0  0  0
  8  2  1  0  0  0
 19 12  1  0  0  0
 27 20  1  0  0  0
 11  4  1  0  0  0
M  END
> <minimizedAffinity>
29.13033

> <CNNscore>
0.5716349483

> <CNNaffinity>
6.2632474899

> <CNN_VS>
3.5802912712

> <CNNaffinity_variance>
0.3429763913

$$$$
[H]c1c([H])c(-c2nc(-c3c([H])c(C([H])([H])[H])nc(C([H])([H])[H])c3[H])c3n2C([H])([H])[C@@]([H])(C([H])([H])[H])OC([H])([H])C3([H])[H])c([H])c(F)c1F


 27 30  0  0  0  0  0  0  0  0999 V2000
   20.2938   10.9155   55.7189 C   0  0  0  0  0  0  0  0  0  0  0  0
   20.7267   10.2491   54.4601 C   0  0  0  0  0  0  0  0  0  0  0  0
   20.7444    8.7404   54.6486 C   0  0  0  0  0  0  0  0  0  0  0  0
   22.1054    8.2722   54.6991 N   0  0  0  0  0  0  0  0  0  0  0  0
   23.2001    8.9807   55.0479 C   0  0  0  0  0  0  0  0  0  0  0  0
   23.3720   10.3644   55.6026 C   0  0  0  0  0  0  0  0  0  0  0  0
   22.7913   11.3299   54.5947 C   0  0  0  0  0  0  0  0  0  0  0  0
   21.8183   10.7530   53.8221 O   0  0  0  0  0  0  0  0  0  0  0  0
   24.2731    8.1752   54.8710 C   0  0  0  0  0  0  0  0  0  0  0  0
   23.7885    7.0040   54.4255 N   0  0  0  0  0  0  0  0  0  0  0  0
   22.4391    7.0348   54.3116 C   0  0  0  0  0  0  0  0  0  0  0  0
   21.7011    5.8791   53.8370 C   0  0  0  0  0  0  0  0  0  0  0  0
   22.2305    4.7196   53.3647 C   0  0  0  0  0  0  0  0  0  0  0  0
   21.4140    3.6393   52.9918 C   0  0  0  0  0  0  0  0  0  0  0  0
   20.0464    3.7142   53.0888 C   0  0  0  0  0  0  0  0  0  0  0  0
   19.2285    2.6925   52.7388 F   0  0  0  0  0  0  0  0  0  0  0  0
   19.4846    4.8725   53.5601 C   0  0  0  0  0  0  0  0  0  0  0  0
   18.1316    4.9938   53.6740 F   0  0  0  0  0  0  0  0  0  0  0  0
   20.2844    5.8994   53.9144 C   0  0  0  0  0  0  0  0  0  0  0  0
   25.7169    8.4135   55.0909 C   0  0  0  0  0  0  0  0  0  0  0  0
   26.1807    9.1667   56.1412 C   0  0  0  0  0  0  0  0  0  0  0  0
   27.5483    9.3156   56.2490 C   0  0  0  0  0  0  0  0  0  0  0  0
   28.0643   10.1231   57.3751 C   0  0  0  0  0  0  0  0  0  0  0  0
   28.4197    8.7640   55.3841 N   0  0  0  0  0  0  0  0  0  0  0  0
   27.9940    8.0172   54.3396 C   0  0  0  0  0  0  0  0  0  0  0  0
   28.9715    7.4145   53.3945 C   0  0  0  0  0  0  0  0  0  0  0  0
   26.6322    7.8602   54.2200 C   0  0  0  0  0  0  0  0  0  0  0  0
  1  2  1  0  0  0
  2  3  1  0  0  0
  3  4  1  0  0  0
  4  5  1  0  0  0
  5  6  1  0  0  0
  6  7  1  0  0  0
  7  8  1  0  0  0
  5  9  2  0  0  0
  9 10  1  0  0  0
 10 11  2  0  0  0
 11 12  1  0  0  0
 12 13  2  0  0  0
 13 14  1  0  0  0
 14 15  2  0  0  0
 15 16  1  0  0  0
 15 17  1  0  0  0
 17 18  1  0  0  0
 17 19  2  0  0  0
  9 20  1  0  0  0
 20 21  2  0  0  0
 21 22  1  0  0  0
 22 23  1  0  0  0
 22 24  2  0  0  0
 24 25  1  0  0  0
 25 26  1  0  0  0
 25 27  2  0  0  0
  8  2  1  0  0  0
 19 12  1  0  0  0
 27 20  1  0  0  0
 11  4  1  0  0  0
M  END
> <minimizedAffinity>
29.95108

> <CNNscore>
0.5642369390

> <CNNaffinity>
6.2462787628

> <CNN_VS>
3.5243811607

> <CNNaffinity_variance>
0.3610571027

$$$$
[H]c1c([H])c(-c2nc(-c3c([H])c(C([H])([H])[H])nc(C([H])([H])[H])c3[H])c3n2C([H])([H])[C@@]([H])(C([H])([H])[H])OC([H])([H])C3([H])[H])c([H])c(F)c1F


 27 30  0  0  0  0  0  0  0  0999 V2000
   21.0849   11.3258   53.6079 C   0  0  0  0  0  0  0  0  0  0  0  0
   21.7555   10.5207   54.6654 C   0  0  0  0  0  0  0  0  0  0  0  0
   23.0268    9.8936   54.1153 C   0  0  0  0  0  0  0  0  0  0  0  0
   22.8372    8.4757   53.9483 N   0  0  0  0  0  0  0  0  0  0  0  0
   21.6680    7.8228   53.7789 C   0  0  0  0  0  0  0  0  0  0  0  0
   20.2620    8.3069   53.5771 C   0  0  0  0  0  0  0  0  0  0  0  0
   19.8881    9.1258   54.7915 C   0  0  0  0  0  0  0  0  0  0  0  0
   20.9820    9.6784   55.4035 O   0  0  0  0  0  0  0  0  0  0  0  0
   21.9476    6.4990   53.7512 C   0  0  0  0  0  0  0  0  0  0  0  0
   23.2791    6.3977   53.8998 N   0  0  0  0  0  0  0  0  0  0  0  0
   23.8602    7.6152   54.0220 C   0  0  0  0  0  0  0  0  0  0  0  0
   25.2940    7.7457   54.2033 C   0  0  0  0  0  0  0  0  0  0  0  0
   26.2605    7.2730   53.3727 C   0  0  0  0  0  0  0  0  0  0  0  0
   27.6218    7.5166   53.6185 C   0  0  0  0  0  0  0  0  0  0  0  0
   28.0290    8.2418   54.7109 C   0  0  0  0  0  0  0  0  0  0  0  0
   29.3324    8.4963   54.9789 F   0  0  0  0  0  0  0  0  0  0  0  0
   27.0758    8.7293   55.5672 C   0  0  0  0  0  0  0  0  0  0  0  0
   27.4318    9.4546   56.6651 F   0  0  0  0  0  0  0  0  0  0  0  0
   25.7731    8.4863   55.3148 C   0  0  0  0  0  0  0  0  0  0  0  0
   21.0670    5.3205   53.5915 C   0  0  0  0  0  0  0  0  0  0  0  0
   21.5436    4.1060   53.1631 C   0  0  0  0  0  0  0  0  0  0  0  0
   20.6302    3.0771   53.0576 C   0  0  0  0  0  0  0  0  0  0  0  0
   21.1273    1.7623   52.5985 C   0  0  0  0  0  0  0  0  0  0  0  0
   19.3243    3.2184   53.3513 N   0  0  0  0  0  0  0  0  0  0  0  0
   18.8246    4.4017   53.7753 C   0  0  0  0  0  0  0  0  0  0  0  0
   17.3789    4.5391   54.0964 C   0  0  0  0  0  0  0  0  0  0  0  0
   19.7245    5.4369   53.8854 C   0  0  0  0  0  0  0  0  0  0  0  0
  1  2  1  0  0  0
  2  3  1  0  0  0
  3  4  1  0  0  0
  4  5  1  0  0  0
  5  6  1  0  0  0
  6  7  1  0  0  0
  7  8  1  0  0  0
  5  9  2  0  0  0
  9 10  1  0  0  0
 10 11  2  0  0  0
 11 12  1  0  0  0
 12 13  2  0  0  0
 13 14  1  0  0  0
 14 15  2  0  0  0
 15 16  1  0  0  0
 15 17  1  0  0  0
 17 18  1  0  0  0
 17 19  2  0  0  0
  9 20  1  0  0  0
 20 21  2  0  0  0
 21 22  1  0  0  0
 22 23  1  0  0  0
 22 24  2  0  0  0
 24 25  1  0  0  0
 25 26  1  0  0  0
 25 27  2  0  0  0
  8  2  1  0  0  0
 19 12  1  0  0  0
 27 20  1  0  0  0
 11  4  1  0  0  0
M  END
> <minimizedAffinity>
29.14070

> <CNNscore>
0.5043140650

> <CNNaffinity>
6.4580955505

> <CNN_VS>
3.2569084167

> <CNNaffinity_variance>
0.5086480379

$$$$
[H]c1c([H])c(-c2nc(-c3c([H])c(C([H])([H])[H])nc(C([H])([H])[H])c3[H])c3n2C([H])([H])[C@@]([H])(C([H])([H])[H])OC([H])([H])C3([H])[H])c([H])c(F)c1F


 27 30  0  0  0  0  0  0  0  0999 V2000
   21.0910   11.3137   53.5017 C   0  0  0  0  0  0  0  0  0  0  0  0
   21.7455   10.5209   54.5784 C   0  0  0  0  0  0  0  0  0  0  0  0
   23.0036    9.8548   54.0438 C   0  0  0  0  0  0  0  0  0  0  0  0
   22.7850    8.4375   53.9111 N   0  0  0  0  0  0  0  0  0  0  0  0
   21.6026    7.8046   53.7575 C   0  0  0  0  0  0  0  0  0  0  0  0
   20.2067    8.3123   53.5440 C   0  0  0  0  0  0  0  0  0  0  0  0
   19.8501    9.1679   54.7382 C   0  0  0  0  0  0  0  0  0  0  0  0
   20.9554    9.7127   55.3366 O   0  0  0  0  0  0  0  0  0  0  0  0
   21.8552    6.4752   53.7619 C   0  0  0  0  0  0  0  0  0  0  0  0
   23.1844    6.3504   53.9130 N   0  0  0  0  0  0  0  0  0  0  0  0
   23.7902    7.5583   54.0056 C   0  0  0  0  0  0  0  0  0  0  0  0
   25.2264    7.6638   54.1838 C   0  0  0  0  0  0  0  0  0  0  0  0
   26.1825    7.1135   53.3896 C   0  0  0  0  0  0  0  0  0  0  0  0
   27.5490    7.3380   53.6245 C   0  0  0  0  0  0  0  0  0  0  0  0
   27.9721    8.1224   54.6689 C   0  0  0  0  0  0  0  0  0  0  0  0
   29.2810    8.3606   54.9249 F   0  0  0  0  0  0  0  0  0  0  0  0
   27.0297    8.6888   55.4878 C   0  0  0  0  0  0  0  0  0  0  0  0
   27.4017    9.4750   56.5375 F   0  0  0  0  0  0  0  0  0  0  0  0
   25.7218    8.4630   55.2465 C   0  0  0  0  0  0  0  0  0  0  0  0
   20.9506    5.3113   53.6307 C   0  0  0  0  0  0  0  0  0  0  0  0
   19.6118    5.3907   53.9251 C   0  0  0  0  0  0  0  0  0  0  0  0
   18.8653    4.2420   53.7595 C   0  0  0  0  0  0  0  0  0  0  0  0
   17.4215    4.3106   54.0712 C   0  0  0  0  0  0  0  0  0  0  0  0
   19.3892    3.0784   53.3317 N   0  0  0  0  0  0  0  0  0  0  0  0
   20.7042    2.9684   53.0339 C   0  0  0  0  0  0  0  0  0  0  0  0
   21.2655    1.6747   52.5614 C   0  0  0  0  0  0  0  0  0  0  0  0
   21.4608    4.1064   53.1944 C   0  0  0  0  0  0  0  0  0  0  0  0
  1  2  1  0  0  0
  2  3  1  0  0  0
  3  4  1  0  0  0
  4  5  1  0  0  0
  5  6  1  0  0  0
  6  7  1  0  0  0
  7  8  1  0  0  0
  5  9  2  0  0  0
  9 10  1  0  0  0
 10 11  2  0  0  0
 11 12  1  0  0  0
 12 13  2  0  0  0
 13 14  1  0  0  0
 14 15  2  0  0  0
 15 16  1  0  0  0
 15 17  1  0  0  0
 17 18  1  0  0  0
 17 19  2  0  0  0
  9 20  1  0  0  0
 20 21  2  0  0  0
 21 22  1  0  0  0
 22 23  1  0  0  0
 22 24  2  0  0  0
 24 25  1  0  0  0
 25 26  1  0  0  0
 25 27  2  0  0  0
  8  2  1  0  0  0
 19 12  1  0  0  0
 27 20  1  0  0  0
 11  4  1  0  0  0
M  END
> <minimizedAffinity>
30.23426

> <CNNscore>
0.5036287904

> <CNNaffinity>
6.4522123337

> <CNN_VS>
3.2495198250

> <CNNaffinity_variance>
0.5200818181

$$$$
[H]c1c([H])c(-c2nc(-c3c([H])c(C([H])([H])[H])nc(C([H])([H])[H])c3[H])c3n2C([H])([H])[C@@]([H])(C([H])([H])[H])OC([H])([H])C3([H])[H])c([H])c(F)c1F


 27 30  0  0  0  0  0  0  0  0999 V2000
   20.7845    5.5661   53.9633 C   0  0  0  0  0  0  0  0  0  0  0  0
   21.8851    6.0902   53.1087 C   0  0  0  0  0  0  0  0  0  0  0  0
   22.9649    6.7175   53.9763 C   0  0  0  0  0  0  0  0  0  0  0  0
   22.9328    8.1502   53.8333 N   0  0  0  0  0  0  0  0  0  0  0  0
   21.8821    8.9098   53.4578 C   0  0  0  0  0  0  0  0  0  0  0  0
   20.4389    8.5831   53.2078 C   0  0  0  0  0  0  0  0  0  0  0  0
   20.3934    7.5678   52.0888 C   0  0  0  0  0  0  0  0  0  0  0  0
   21.5408    6.8231   52.0148 O   0  0  0  0  0  0  0  0  0  0  0  0
   22.3201   10.1874   53.3731 C   0  0  0  0  0  0  0  0  0  0  0  0
   23.6213   10.1565   53.7060 N   0  0  0  0  0  0  0  0  0  0  0  0
   24.0298    8.8992   54.0008 C   0  0  0  0  0  0  0  0  0  0  0  0
   25.4044    8.6276   54.3781 C   0  0  0  0  0  0  0  0  0  0  0  0
   26.3377    7.9861   53.6265 C   0  0  0  0  0  0  0  0  0  0  0  0
   27.6615    7.8371   54.0718 C   0  0  0  0  0  0  0  0  0  0  0  0
   28.0637    8.3334   55.2871 C   0  0  0  0  0  0  0  0  0  0  0  0
   29.3314    8.2083   55.7481 F   0  0  0  0  0  0  0  0  0  0  0  0
   27.1428    8.9834   56.0676 C   0  0  0  0  0  0  0  0  0  0  0  0
   27.4952    9.4930   57.2818 F   0  0  0  0  0  0  0  0  0  0  0  0
   25.8762    9.1180   55.6233 C   0  0  0  0  0  0  0  0  0  0  0  0
   21.6152   11.4368   53.0097 C   0  0  0  0  0  0  0  0  0  0  0  0
   21.7930   12.0478   51.7929 C   0  0  0  0  0  0  0  0  0  0  0  0
   21.0781   13.2055   51.5633 C   0  0  0  0  0  0  0  0  0  0  0  0
   21.2574   13.8755   50.2574 C   0  0  0  0  0  0  0  0  0  0  0  0
   20.2359   13.7423   52.4656 N   0  0  0  0  0  0  0  0  0  0  0  0
   20.0396   13.1644   53.6728 C   0  0  0  0  0  0  0  0  0  0  0  0
   19.1043   13.7713   54.6571 C   0  0  0  0  0  0  0  0  0  0  0  0
   20.7463   12.0089   53.9154 C   0  0  0  0  0  0  0  0  0  0  0  0
  1  2  1  0  0  0
  2  3  1  0  0  0
  3  4  1  0  0  0
  4  5  1  0  0  0
  5  6  1  0  0  0
  6  7  1  0  0  0
  7  8  1  0  0  0
  5  9  2  0  0  0
  9 10  1  0  0  0
 10 11  2  0  0  0
 11 12  1  0  0  0
 12 13  2  0  0  0
 13 14  1  0  0  0
 14 15  2  0  0  0
 15 16  1  0  0  0
 15 17  1  0  0  0
 17 18  1  0  0  0
 17 19  2  0  0  0
  9 20  1  0  0  0
 20 21  2  0  0  0
 21 22  1  0  0  0
 22 23  1  0  0  0
 22 24  2  0  0  0
 24 25  1  0  0  0
 25 26  1  0  0  0
 25 27  2  0  0  0
  8  2  1  0  0  0
 19 12  1  0  0  0
 27 20  1  0  0  0
 11  4  1  0  0  0
M  END
> <minimizedAffinity>
34.92310

> <CNNscore>
0.4760473371

> <CNNaffinity>
6.0030889511

> <CNN_VS>
2.8577544689

> <CNNaffinity_variance>
0.2075033486

$$$$
[H]c1c([H])c(-c2nc(-c3c([H])c(C([H])([H])[H])nc(C([H])([H])[H])c3[H])c3n2C([H])([H])[C@@]([H])(C([H])([H])[H])OC([H])([H])C3([H])[H])c([H])c(F)c1F


 27 30  0  0  0  0  0  0  0  0999 V2000
   20.7985    5.5280   54.1902 C   0  0  0  0  0  0  0  0  0  0  0  0
   21.8683    6.0629   53.3039 C   0  0  0  0  0  0  0  0  0  0  0  0
   22.9706    6.6939   54.1400 C   0  0  0  0  0  0  0  0  0  0  0  0
   22.9245    8.1270   54.0042 N   0  0  0  0  0  0  0  0  0  0  0  0
   21.8576    8.8810   53.6650 C   0  0  0  0  0  0  0  0  0  0  0  0
   20.4095    8.5456   53.4589 C   0  0  0  0  0  0  0  0  0  0  0  0
   20.3357    7.5346   52.3375 C   0  0  0  0  0  0  0  0  0  0  0  0
   21.4850    6.7979   52.2244 O   0  0  0  0  0  0  0  0  0  0  0  0
   22.2843   10.1619   53.5721 C   0  0  0  0  0  0  0  0  0  0  0  0
   23.5955   10.1384   53.8639 N   0  0  0  0  0  0  0  0  0  0  0  0
   24.0213    8.8826   54.1404 C   0  0  0  0  0  0  0  0  0  0  0  0
   25.4088    8.6187   54.4734 C   0  0  0  0  0  0  0  0  0  0  0  0
   26.3268    8.0019   53.6833 C   0  0  0  0  0  0  0  0  0  0  0  0
   27.6642    7.8586   54.0879 C   0  0  0  0  0  0  0  0  0  0  0  0
   28.0958    8.3360   55.3008 C   0  0  0  0  0  0  0  0  0  0  0  0
   29.3774    8.2159   55.7232 F   0  0  0  0  0  0  0  0  0  0  0  0
   27.1909    8.9610   56.1195 C   0  0  0  0  0  0  0  0  0  0  0  0
   27.5726    9.4510   57.3329 F   0  0  0  0  0  0  0  0  0  0  0  0
   25.9109    9.0903   55.7139 C   0  0  0  0  0  0  0  0  0  0  0  0
   21.5601   11.4080   53.2363 C   0  0  0  0  0  0  0  0  0  0  0  0
   20.6330   11.9641   54.0829 C   0  0  0  0  0  0  0  0  0  0  0  0
   20.0253   13.1308   53.6664 C   0  0  0  0  0  0  0  0  0  0  0  0
   19.0250   13.7432   54.5669 C   0  0  0  0  0  0  0  0  0  0  0  0
   20.3015   13.7263   52.4914 N   0  0  0  0  0  0  0  0  0  0  0  0
   21.2095   13.2031   51.6360 C   0  0  0  0  0  0  0  0  0  0  0  0
   21.5027   13.8756   50.3423 C   0  0  0  0  0  0  0  0  0  0  0  0
   21.8235   12.0394   52.0387 C   0  0  0  0  0  0  0  0  0  0  0  0
  1  2  1  0  0  0
  2  3  1  0  0  0
  3  4  1  0  0  0
  4  5  1  0  0  0
  5  6  1  0  0  0
  6  7  1  0  0  0
  7  8  1  0  0  0
  5  9  2  0  0  0
  9 10  1  0  0  0
 10 11  2  0  0  0
 11 12  1  0  0  0
 12 13  2  0  0  0
 13 14  1  0  0  0
 14 15  2  0  0  0
 15 16  1  0  0  0
 15 17  1  0  0  0
 17 18  1  0  0  0
 17 19  2  0  0  0
  9 20  1  0  0  0
 20 21  2  0  0  0
 21 22  1  0  0  0
 22 23  1  0  0  0
 22 24  2  0  0  0
 24 25  1  0  0  0
 25 26  1  0  0  0
 25 27  2  0  0  0
  8  2  1  0  0  0
 19 12  1  0  0  0
 27 20  1  0  0  0
 11  4  1  0  0  0
M  END
> <minimizedAffinity>
34.24753

> <CNNscore>
0.4638259709

> <CNNaffinity>
6.0198531151

> <CNN_VS>
2.7921643257

> <CNNaffinity_variance>
0.2156638801

$$$$
[H]c1c([H])c(-c2nc(-c3c([H])c(C([H])([H])[H])nc(C([H])([H])[H])c3[H])c3n2C([H])([H])[C@@]([H])(C([H])([H])[H])OC([H])([H])C3([H])[H])c([H])c(F)c1F


 27 30  0  0  0  0  0  0  0  0999 V2000
   21.2255    5.1447   53.3844 C   0  0  0  0  0  0  0  0  0  0  0  0
   21.1648    6.3504   54.2556 C   0  0  0  0  0  0  0  0  0  0  0  0
   21.3290    7.6081   53.4169 C   0  0  0  0  0  0  0  0  0  0  0  0
   22.6230    8.1909   53.6619 N   0  0  0  0  0  0  0  0  0  0  0  0
   23.7307    7.5615   54.1080 C   0  0  0  0  0  0  0  0  0  0  0  0
   24.0370    6.1139   54.3581 C   0  0  0  0  0  0  0  0  0  0  0  0
   23.0621    5.6204   55.4027 C   0  0  0  0  0  0  0  0  0  0  0  0
   21.8944    6.3366   55.4044 O   0  0  0  0  0  0  0  0  0  0  0  0
   24.6876    8.5034   54.2760 C   0  0  0  0  0  0  0  0  0  0  0  0
   24.1259    9.6709   53.9201 N   0  0  0  0  0  0  0  0  0  0  0  0
   22.8394    9.5055   53.5298 C   0  0  0  0  0  0  0  0  0  0  0  0
   22.0327   10.6367   53.1113 C   0  0  0  0  0  0  0  0  0  0  0  0
   21.4489   11.5579   53.9226 C   0  0  0  0  0  0  0  0  0  0  0  0
   20.7410   12.6522   53.3988 C   0  0  0  0  0  0  0  0  0  0  0  0
   20.6099   12.8324   52.0440 C   0  0  0  0  0  0  0  0  0  0  0  0
   19.9350   13.8756   51.5040 F   0  0  0  0  0  0  0  0  0  0  0  0
   21.1869   11.9175   51.2016 C   0  0  0  0  0  0  0  0  0  0  0  0
   21.0835   12.0544   49.8492 F   0  0  0  0  0  0  0  0  0  0  0  0
   21.8637   10.8733   51.7224 C   0  0  0  0  0  0  0  0  0  0  0  0
   26.0891    8.3966   54.7390 C   0  0  0  0  0  0  0  0  0  0  0  0
   27.0539    7.7537   54.0030 C   0  0  0  0  0  0  0  0  0  0  0  0
   28.3278    7.7222   54.5325 C   0  0  0  0  0  0  0  0  0  0  0  0
   29.3788    7.0346   53.7521 C   0  0  0  0  0  0  0  0  0  0  0  0
   28.6489    8.2838   55.7128 N   0  0  0  0  0  0  0  0  0  0  0  0
   27.7212    8.9237   56.4609 C   0  0  0  0  0  0  0  0  0  0  0  0
   28.0945    9.5392   57.7623 C   0  0  0  0  0  0  0  0  0  0  0  0
   26.4462    8.9629   55.9448 C   0  0  0  0  0  0  0  0  0  0  0  0
  1  2  1  0  0  0
  2  3  1  0  0  0
  3  4  1  0  0  0
  4  5  1  0  0  0
  5  6  1  0  0  0
  6  7  1  0  0  0
  7  8  1  0  0  0
  5  9  2  0  0  0
  9 10  1  0  0  0
 10 11  2  0  0  0
 11 12  1  0  0  0
 12 13  2  0  0  0
 13 14  1  0  0  0
 14 15  2  0  0  0
 15 16  1  0  0  0
 15 17  1  0  0  0
 17 18  1  0  0  0
 17 19  2  0  0  0
  9 20  1  0  0  0
 20 21  2  0  0  0
 21 22  1  0  0  0
 22 23  1  0  0  0
 22 24  2  0  0  0
 24 25  1  0  0  0
 25 26  1  0  0  0
 25 27  2  0  0  0
  8  2  1  0  0  0
 19 12  1  0  0  0
 27 20  1  0  0  0
 11  4  1  0  0  0
M  END
> <minimizedAffinity>
27.46270

> <CNNscore>
0.4469033182

> <CNNaffinity>
5.7529058456

> <CNN_VS>
2.5709927082

> <CNNaffinity_variance>
0.1207350641

$$$$
[H]c1c([H])c(-c2nc(-c3c([H])c(C([H])([H])[H])nc(C([H])([H])[H])c3[H])c3n2C([H])([H])[C@@]([H])(C([H])([H])[H])OC([H])([H])C3([H])[H])c([H])c(F)c1F


 27 30  0  0  0  0  0  0  0  0999 V2000
   21.2973    5.1897   53.4285 C   0  0  0  0  0  0  0  0  0  0  0  0
   21.1879    6.4024   54.2849 C   0  0  0  0  0  0  0  0  0  0  0  0
   21.3645    7.6545   53.4403 C   0  0  0  0  0  0  0  0  0  0  0  0
   22.6403    8.2584   53.7261 N   0  0  0  0  0  0  0  0  0  0  0  0
   23.7399    7.6495   54.2181 C   0  0  0  0  0  0  0  0  0  0  0  0
   24.0576    6.2089   54.4934 C   0  0  0  0  0  0  0  0  0  0  0  0
   23.0526    5.7110   55.5070 C   0  0  0  0  0  0  0  0  0  0  0  0
   21.8755    6.4100   55.4595 O   0  0  0  0  0  0  0  0  0  0  0  0
   24.6766    8.6068   54.4113 C   0  0  0  0  0  0  0  0  0  0  0  0
   24.1116    9.7626   54.0238 N   0  0  0  0  0  0  0  0  0  0  0  0
   22.8425    9.5748   53.5890 C   0  0  0  0  0  0  0  0  0  0  0  0
   22.0354   10.6901   53.1304 C   0  0  0  0  0  0  0  0  0  0  0  0
   21.4315   11.6256   53.9099 C   0  0  0  0  0  0  0  0  0  0  0  0
   20.7253   12.7023   53.3487 C   0  0  0  0  0  0  0  0  0  0  0  0
   20.6164   12.8501   51.9880 C   0  0  0  0  0  0  0  0  0  0  0  0
   19.9438   13.8755   51.4123 F   0  0  0  0  0  0  0  0  0  0  0  0
   21.2140   11.9200   51.1772 C   0  0  0  0  0  0  0  0  0  0  0  0
   21.1330   12.0246   49.8204 F   0  0  0  0  0  0  0  0  0  0  0  0
   21.8888   10.8931   51.7337 C   0  0  0  0  0  0  0  0  0  0  0  0
   26.0618    8.5248   54.9255 C   0  0  0  0  0  0  0  0  0  0  0  0
   26.4182    9.0391   56.1478 C   0  0  0  0  0  0  0  0  0  0  0  0
   27.7380    8.8988   56.5253 C   0  0  0  0  0  0  0  0  0  0  0  0
   28.1383    9.4464   57.8392 C   0  0  0  0  0  0  0  0  0  0  0  0
   28.6630    8.2924   55.7582 N   0  0  0  0  0  0  0  0  0  0  0  0
   28.3431    7.7760   54.5496 C   0  0  0  0  0  0  0  0  0  0  0  0
   29.3782    7.1084   53.7160 C   0  0  0  0  0  0  0  0  0  0  0  0
   27.0300    7.9087   54.1604 C   0  0  0  0  0  0  0  0  0  0  0  0
  1  2  1  0  0  0
  2  3  1  0  0  0
  3  4  1  0  0  0
  4  5  1  0  0  0
  5  6  1  0  0  0
  6  7  1  0  0  0
  7  8  1  0  0  0
  5  9  2  0  0  0
  9 10  1  0  0  0
 10 11  2  0  0  0
 11 12  1  0  0  0
 12 13  2  0  0  0
 13 14  1  0  0  0
 14 15  2  0  0  0
 15 16  1  0  0  0
 15 17  1  0  0  0
 17 18  1  0  0  0
 17 19  2  0  0  0
  9 20  1  0  0  0
 20 21  2  0  0  0
 21 22  1  0  0  0
 22 23  1  0  0  0
 22 24  2  0  0  0
 24 25  1  0  0  0
 25 26  1  0  0  0
 25 27  2  0  0  0
  8  2  1  0  0  0
 19 12  1  0  0  0
 27 20  1  0  0  0
 11  4  1  0  0  0
M  END
> <minimizedAffinity>
28.11771

> <CNNscore>
0.4463457465

> <CNNaffinity>
5.7467532158

> <CNN_VS>
2.5650389194

> <CNNaffinity_variance>
0.1177228838

$$$$
[H]c1c([H])c(-c2nc(-c3c([H])c(C([H])([H])[H])nc(C([H])([H])[H])c3[H])c3n2C([H])([H])[C@@]([H])(C([H])([H])[H])OC([H])([H])C3([H])[H])c([H])c(F)c1F


 27 30  0  0  0  0  0  0  0  0999 V2000
   25.7124    7.2064   55.1939 C   0  0  0  0  0  0  0  0  0  0  0  0
   25.1379    7.5053   53.8534 C   0  0  0  0  0  0  0  0  0  0  0  0
   24.0406    8.5505   53.9780 C   0  0  0  0  0  0  0  0  0  0  0  0
   22.7559    7.9350   53.7664 N   0  0  0  0  0  0  0  0  0  0  0  0
   22.4345    6.6356   53.9408 C   0  0  0  0  0  0  0  0  0  0  0  0
   23.1977    5.4748   54.5083 C   0  0  0  0  0  0  0  0  0  0  0  0
   24.4336    5.2884   53.6579 C   0  0  0  0  0  0  0  0  0  0  0  0
   24.8275    6.4512   53.0503 O   0  0  0  0  0  0  0  0  0  0  0  0
   21.1497    6.4830   53.5443 C   0  0  0  0  0  0  0  0  0  0  0  0
   20.7366    7.6985   53.1482 N   0  0  0  0  0  0  0  0  0  0  0  0
   21.7169    8.6242   53.2786 C   0  0  0  0  0  0  0  0  0  0  0  0
   21.4958   10.0074   52.8998 C   0  0  0  0  0  0  0  0  0  0  0  0
   21.4800   11.0813   53.7327 C   0  0  0  0  0  0  0  0  0  0  0  0
   21.3197   12.3875   53.2418 C   0  0  0  0  0  0  0  0  0  0  0  0
   21.1707   12.6296   51.8985 C   0  0  0  0  0  0  0  0  0  0  0  0
   21.0143   13.8755   51.3899 F   0  0  0  0  0  0  0  0  0  0  0  0
   21.1806   11.5649   51.0349 C   0  0  0  0  0  0  0  0  0  0  0  0
   21.0360   11.7556   49.6929 F   0  0  0  0  0  0  0  0  0  0  0  0
   21.3366   10.3175   51.5243 C   0  0  0  0  0  0  0  0  0  0  0  0
   20.2756    5.2894   53.5115 C   0  0  0  0  0  0  0  0  0  0  0  0
   20.7362    4.0580   53.1150 C   0  0  0  0  0  0  0  0  0  0  0  0
   19.8313    3.0164   53.1305 C   0  0  0  0  0  0  0  0  0  0  0  0
   20.3115    1.6834   52.7073 C   0  0  0  0  0  0  0  0  0  0  0  0
   18.5481    3.1612   53.5099 N   0  0  0  0  0  0  0  0  0  0  0  0
   18.0644    4.3609   53.9055 C   0  0  0  0  0  0  0  0  0  0  0  0
   16.6438    4.5019   54.3224 C   0  0  0  0  0  0  0  0  0  0  0  0
   18.9561    5.4089   53.8950 C   0  0  0  0  0  0  0  0  0  0  0  0
  1  2  1  0  0  0
  2  3  1  0  0  0
  3  4  1  0  0  0
  4  5  1  0  0  0
  5  6  1  0  0  0
  6  7  1  0  0  0
  7  8  1  0  0  0
  5  9  2  0  0  0
  9 10  1  0  0  0
 10 11  2  0  0  0
 11 12  1  0  0  0
 12 13  2  0  0  0
 13 14  1  0  0  0
 14 15  2  0  0  0
 15 16  1  0  0  0
 15 17  1  0  0  0
 17 18  1  0  0  0
 17 19  2  0  0  0
  9 20  1  0  0  0
 20 21  2  0  0  0
 21 22  1  0  0  0
 22 23  1  0  0  0
 22 24  2  0  0  0
 24 25  1  0  0  0
 25 26  1  0  0  0
 25 27  2  0  0  0
  8  2  1  0  0  0
 19 12  1  0  0  0
 27 20  1  0  0  0
 11  4  1  0  0  0
M  END
> <minimizedAffinity>
28.30878

> <CNNscore>
0.4376677573

> <CNNaffinity>
6.2795829773

> <CNN_VS>
2.7483708858

> <CNNaffinity_variance>
0.8620002866

$$$$
[H]OC(=O)C1(S[C@]2([H])C([H])([H])[C@](C(=O)O[H])(N([H])[H])[C@@]3([H])[C@@]2([H])[C@]3([H])C(=O)O[H])C([H])([H])C1([H])[H]


 25 27  0  0  0  0  0  0  0  0999 V2000
   20.5700    8.0669   51.7823 N   0  0  0  0  0  0  0  0  0  0  0  0
   21.6773    8.7623   52.5174 C   0  0  0  0  0  0  0  0  0  0  0  0
   22.6706    9.7148   53.1139 C   0  0  0  0  0  0  0  0  0  0  0  0
   23.5984    8.9277   53.9913 C   0  0  0  0  0  0  0  0  0  0  0  0
   23.1784    7.4887   53.9370 C   0  0  0  0  0  0  0  0  0  0  0  0
   22.5364    6.1561   53.6884 C   0  0  0  0  0  0  0  0  0  0  0  0
   21.9911    7.3865   53.0261 C   0  0  0  0  0  0  0  0  0  0  0  0
   19.6422    8.8540   50.9049 H   0  0  0  0  0  0  0  0  0  0  0  0
   20.2484    6.6020   51.8101 H   0  0  0  0  0  0  0  0  0  0  0  0
   23.4101    5.2832   54.5398 C   0  0  0  0  0  0  0  0  0  0  0  0
   24.3092    4.2684   53.8982 O   0  0  0  0  0  0  0  0  0  0  0  0
   23.3846    5.4252   56.0329 O   0  0  0  0  0  0  0  0  0  0  0  0
   25.1828    3.3956   54.7497 H   0  0  0  0  0  0  0  0  0  0  0  0
   21.1320    9.9926   51.8550 C   0  0  0  0  0  0  0  0  0  0  0  0
   21.5123   11.3506   52.3661 O   0  0  0  0  0  0  0  0  0  0  0  0
   20.3784   10.0376   50.9029 O   0  0  0  0  0  0  0  0  0  0  0  0
   20.9669   12.5811   51.7036 H   0  0  0  0  0  0  0  0  0  0  0  0
   24.6603    8.4193   54.9207 S   0  0  0  0  0  0  0  0  0  0  0  0
   26.1070    8.5354   54.5417 C   0  0  0  0  0  0  0  0  0  0  0  0
   27.3635    8.4354   53.7285 C   0  0  0  0  0  0  0  0  0  0  0  0
   26.0617    7.9536   53.1598 C   0  0  0  0  0  0  0  0  0  0  0  0
   26.6547    9.1574   55.7919 C   0  0  0  0  0  0  0  0  0  0  0  0
   28.1339    9.1627   56.0412 O   0  0  0  0  0  0  0  0  0  0  0  0
   25.7233    9.7743   56.7929 O   0  0  0  0  0  0  0  0  0  0  0  0
   28.6815    9.7847   57.2913 H   0  0  0  0  0  0  0  0  0  0  0  0
  1  2  1  0  0  0
  2  3  1  0  0  0
  3  4  1  0  0  0
  4 18  1  0  0  0
 18 19  1  0  0  0
 19 20  1  0  0  0
 20 21  1  0  0  0
 19 22  1  0  0  0
 22 23  1  0  0  0
 22 24  2  0  0  0
  4  5  1  0  0  0
  5  6  1  0  0  0
  6  7  1  0  0  0
  6 10  1  0  0  0
 10 11  1  0  0  0
 10 12  2  0  0  0
  2 14  1  0  0  0
 14 15  1  0  0  0
 14 16  2  0  0  0
  7  2  1  0  0  0
 21 19  1  0  0  0
  7  5  1  0  0  0
  1  8  1  0  0  0
  1  9  1  0  0  0
 23 25  1  0  0  0
 11 13  1  0  0  0
 15 17  1  0  0  0
M  END
> <minimizedAffinity>
3.01469

> <CNNscore>
0.7404465675

> <CNNaffinity>
6.1747355461

> <CNN_VS>
4.5720615387

> <CNNaffinity_variance>
0.3765979707

$$$$
[H]OC(=O)C1(S[C@]2([H])C([H])([H])[C@](C(=O)O[H])(N([H])[H])[C@@]3([H])[C@@]2([H])[C@]3([H])C(=O)O[H])C([H])([H])C1([H])[H]


 25 27  0  0  0  0  0  0  0  0999 V2000
   21.3926    6.0121   53.0252 N   0  0  0  0  0  0  0  0  0  0  0  0
   22.7412    6.3137   53.6085 C   0  0  0  0  0  0  0  0  0  0  0  0
   24.1442    6.3109   54.1393 C   0  0  0  0  0  0  0  0  0  0  0  0
   24.4696    7.7020   54.5962 C   0  0  0  0  0  0  0  0  0  0  0  0
   23.2678    8.5646   54.3478 C   0  0  0  0  0  0  0  0  0  0  0  0
   21.9400    9.1625   53.9882 C   0  0  0  0  0  0  0  0  0  0  0  0
   22.1996    7.7066   53.7373 C   0  0  0  0  0  0  0  0  0  0  0  0
   21.0671    4.6209   52.5683 H   0  0  0  0  0  0  0  0  0  0  0  0
   20.2592    6.9745   52.8266 H   0  0  0  0  0  0  0  0  0  0  0  0
   22.1692   10.5820   54.4154 C   0  0  0  0  0  0  0  0  0  0  0  0
   22.8219   10.8721   55.7343 O   0  0  0  0  0  0  0  0  0  0  0  0
   21.7455   11.7113   53.5237 O   0  0  0  0  0  0  0  0  0  0  0  0
   23.0511   12.2917   56.1616 H   0  0  0  0  0  0  0  0  0  0  0  0
   23.0008    4.8578   53.3576 C   0  0  0  0  0  0  0  0  0  0  0  0
   24.3930    4.3844   53.0617 O   0  0  0  0  0  0  0  0  0  0  0  0
   22.1844    3.9579   53.3628 O   0  0  0  0  0  0  0  0  0  0  0  0
   24.6526    2.9284   52.8109 H   0  0  0  0  0  0  0  0  0  0  0  0
   25.0727    8.9682   55.1283 S   0  0  0  0  0  0  0  0  0  0  0  0
   26.5330    9.0186   55.4675 C   0  0  0  0  0  0  0  0  0  0  0  0
   27.7951    9.3097   56.2241 C   0  0  0  0  0  0  0  0  0  0  0  0
   26.4695    9.7291   56.7871 C   0  0  0  0  0  0  0  0  0  0  0  0
   27.1037    8.3257   54.2658 C   0  0  0  0  0  0  0  0  0  0  0  0
   27.2509    9.0687   52.9711 O   0  0  0  0  0  0  0  0  0  0  0  0
   27.5271    6.8897   54.3587 O   0  0  0  0  0  0  0  0  0  0  0  0
   27.8216    8.3757   51.7694 H   0  0  0  0  0  0  0  0  0  0  0  0
  1  2  1  0  0  0
  2  3  1  0  0  0
  3  4  1  0  0  0
  4 18  1  0  0  0
 18 19  1  0  0  0
 19 20  1  0  0  0
 20 21  1  0  0  0
 19 22  1  0  0  0
 22 23  1  0  0  0
 22 24  2  0  0  0
  4  5  1  0  0  0
  5  6  1  0  0  0
  6  7  1  0  0  0
  6 10  1  0  0  0
 10 11  1  0  0  0
 10 12  2  0  0  0
  2 14  1  0  0  0
 14 15  1  0  0  0
 14 16  2  0  0  0
  7  2  1  0  0  0
 21 19  1  0  0  0
  7  5  1  0  0  0
  1  8  1  0  0  0
  1  9  1  0  0  0
 23 25  1  0  0  0
 11 13  1  0  0  0
 15 17  1  0  0  0
M  END
> <minimizedAffinity>
11.32519

> <CNNscore>
0.7095589042

> <CNNaffinity>
5.8675894737

> <CNN_VS>
4.1634001732

> <CNNaffinity_variance>
0.5784947872

$$$$
[H]OC(=O)C1(S[C@]2([H])C([H])([H])[C@](C(=O)O[H])(N([H])[H])[C@@]3([H])[C@@]2([H])[C@]3([H])C(=O)O[H])C([H])([H])C1([H])[H]


 25 27  0  0  0  0  0  0  0  0999 V2000
   22.2452    5.8967   52.7124 N   0  0  0  0  0  0  0  0  0  0  0  0
   23.5575    6.3440   53.2849 C   0  0  0  0  0  0  0  0  0  0  0  0
   24.9787    6.5269   53.7283 C   0  0  0  0  0  0  0  0  0  0  0  0
   25.0619    7.8106   54.4999 C   0  0  0  0  0  0  0  0  0  0  0  0
   23.6921    8.4209   54.5333 C   0  0  0  0  0  0  0  0  0  0  0  0
   22.2415    8.7785   54.3996 C   0  0  0  0  0  0  0  0  0  0  0  0
   22.7623    7.5145   53.7824 C   0  0  0  0  0  0  0  0  0  0  0  0
   22.1619    4.6131   51.9407 H   0  0  0  0  0  0  0  0  0  0  0  0
   20.9269    6.6051   52.8154 H   0  0  0  0  0  0  0  0  0  0  0  0
   22.2222   10.0747   55.1543 C   0  0  0  0  0  0  0  0  0  0  0  0
   22.9150   10.1809   56.4804 O   0  0  0  0  0  0  0  0  0  0  0  0
   21.5099   11.2647   54.5829 O   0  0  0  0  0  0  0  0  0  0  0  0
   22.8957   11.4771   57.2351 H   0  0  0  0  0  0  0  0  0  0  0  0
   24.0783    5.0800   52.6676 C   0  0  0  0  0  0  0  0  0  0  0  0
   24.0411    3.7962   53.4426 O   0  0  0  0  0  0  0  0  0  0  0  0
   24.5545    4.9506   51.5573 O   0  0  0  0  0  0  0  0  0  0  0  0
   24.5620    2.5322   52.8253 H   0  0  0  0  0  0  0  0  0  0  0  0
   25.4483    9.0194   55.2994 S   0  0  0  0  0  0  0  0  0  0  0  0
   26.8786    9.2273   55.7009 C   0  0  0  0  0  0  0  0  0  0  0  0
   28.0680    9.6506   56.5110 C   0  0  0  0  0  0  0  0  0  0  0  0
   26.6817    9.9199   57.0168 C   0  0  0  0  0  0  0  0  0  0  0  0
   27.5723    8.6069   54.5245 C   0  0  0  0  0  0  0  0  0  0  0  0
   28.5581    7.4961   54.7352 O   0  0  0  0  0  0  0  0  0  0  0  0
   27.2801    9.0973   53.1373 O   0  0  0  0  0  0  0  0  0  0  0  0
   29.2516    6.8758   53.5587 H   0  0  0  0  0  0  0  0  0  0  0  0
  1  2  1  0  0  0
  2  3  1  0  0  0
  3  4  1  0  0  0
  4 18  1  0  0  0
 18 19  1  0  0  0
 19 20  1  0  0  0
 20 21  1  0  0  0
 19 22  1  0  0  0
 22 23  1  0  0  0
 22 24  2  0  0  0
  4  5  1  0  0  0
  5  6  1  0  0  0
  6  7  1  0  0  0
  6 10  1  0  0  0
 10 11  1  0  0  0
 10 12  2  0  0  0
  2 14  1  0  0  0
 14 15  1  0  0  0
 14 16  2  0  0  0
  7  2  1  0  0  0
 21 19  1  0  0  0
  7  5  1  0  0  0
  1  8  1  0  0  0
  1  9  1  0  0  0
 23 25  1  0  0  0
 11 13  1  0  0  0
 15 17  1  0  0  0
M  END
> <minimizedAffinity>
11.73771

> <CNNscore>
0.7046046853

> <CNNaffinity>
5.6535024643

> <CNN_VS>
3.9834842682

> <CNNaffinity_variance>
0.3600819707

$$$$
[H]OC(=O)C1(S[C@]2([H])C([H])([H])[C@](C(=O)O[H])(N([H])[H])[C@@]3([H])[C@@]2([H])[C@]3([H])C(=O)O[H])C([H])([H])C1([H])[H]


 25 27  0  0  0  0  0  0  0  0999 V2000
   20.4531    8.9191   54.2034 N   0  0  0  0  0  0  0  0  0  0  0  0
   21.8553    9.3321   54.5400 C   0  0  0  0  0  0  0  0  0  0  0  0
   23.1349   10.0335   54.8872 C   0  0  0  0  0  0  0  0  0  0  0  0
   24.2188    9.0008   54.9810 C   0  0  0  0  0  0  0  0  0  0  0  0
   23.6090    7.6612   54.6918 C   0  0  0  0  0  0  0  0  0  0  0  0
   22.7344    6.4861   54.3689 C   0  0  0  0  0  0  0  0  0  0  0  0
   22.1482    7.8659   54.4193 C   0  0  0  0  0  0  0  0  0  0  0  0
   19.3691    9.9518   54.1095 H   0  0  0  0  0  0  0  0  0  0  0  0
   19.9621    7.5279   53.9320 H   0  0  0  0  0  0  0  0  0  0  0  0
   23.7464    5.3811   54.4392 C   0  0  0  0  0  0  0  0  0  0  0  0
   24.0601    4.7341   55.7556 O   0  0  0  0  0  0  0  0  0  0  0  0
   24.4446    4.9232   53.1931 O   0  0  0  0  0  0  0  0  0  0  0  0
   25.0721    3.6290   55.8259 H   0  0  0  0  0  0  0  0  0  0  0  0
   21.2691   10.7118   54.5903 C   0  0  0  0  0  0  0  0  0  0  0  0
   21.3036   11.5863   53.3721 O   0  0  0  0  0  0  0  0  0  0  0  0
   20.7387   11.2467   55.5437 O   0  0  0  0  0  0  0  0  0  0  0  0
   20.7174   12.9661   53.4224 H   0  0  0  0  0  0  0  0  0  0  0  0
   25.4855    8.2138   55.1424 S   0  0  0  0  0  0  0  0  0  0  0  0
   26.6615    8.4950   54.2546 C   0  0  0  0  0  0  0  0  0  0  0  0
   27.4711    8.6894   53.0070 C   0  0  0  0  0  0  0  0  0  0  0  0
   26.0149    8.3424   52.9097 C   0  0  0  0  0  0  0  0  0  0  0  0
   27.7164    8.7454   55.2912 C   0  0  0  0  0  0  0  0  0  0  0  0
   27.3930    9.5594   56.5091 O   0  0  0  0  0  0  0  0  0  0  0  0
   29.0946    8.1817   55.1101 O   0  0  0  0  0  0  0  0  0  0  0  0
   28.4479    9.8096   57.5456 H   0  0  0  0  0  0  0  0  0  0  0  0
  1  2  1  0  0  0
  2  3  1  0  0  0
  3  4  1  0  0  0
  4 18  1  0  0  0
 18 19  1  0  0  0
 19 20  1  0  0  0
 20 21  1  0  0  0
 19 22  1  0  0  0
 22 23  1  0  0  0
 22 24  2  0  0  0
  4  5  1  0  0  0
  5  6  1  0  0  0
  6  7  1  0  0  0
  6 10  1  0  0  0
 10 11  1  0  0  0
 10 12  2  0  0  0
  2 14  1  0  0  0
 14 15  1  0  0  0
 14 16  2  0  0  0
  7  2  1  0  0  0
 21 19  1  0  0  0
  7  5  1  0  0  0
  1  8  1  0  0  0
  1  9  1  0  0  0
 23 25  1  0  0  0
 11 13  1  0  0  0
 15 17  1  0  0  0
M  END
> <minimizedAffinity>
4.44209

> <CNNscore>
0.7002253532

> <CNNaffinity>
5.9202384949

> <CNN_VS>
4.1455011368

> <CNNaffinity_variance>
0.4121926427

$$$$
[H]OC(=O)C1(S[C@]2([H])C([H])([H])[C@](C(=O)O[H])(N([H])[H])[C@@]3([H])[C@@]2([H])[C@]3([H])C(=O)O[H])C([H])([H])C1([H])[H]


 25 27  0  0  0  0  0  0  0  0999 V2000
   19.6551    6.7674   52.6780 N   0  0  0  0  0  0  0  0  0  0  0  0
   20.9625    6.7675   53.4133 C   0  0  0  0  0  0  0  0  0  0  0  0
   22.2246    6.4576   54.1624 C   0  0  0  0  0  0  0  0  0  0  0  0
   22.9481    7.7488   54.4055 C   0  0  0  0  0  0  0  0  0  0  0  0
   22.1333    8.8568   53.8067 C   0  0  0  0  0  0  0  0  0  0  0  0
   21.1230    9.7330   53.1274 C   0  0  0  0  0  0  0  0  0  0  0  0
   20.9061    8.2503   53.1935 C   0  0  0  0  0  0  0  0  0  0  0  0
   18.9314    5.4762   52.4348 H   0  0  0  0  0  0  0  0  0  0  0  0
   18.9326    7.9581   52.1207 H   0  0  0  0  0  0  0  0  0  0  0  0
   21.7688   11.0731   53.3205 C   0  0  0  0  0  0  0  0  0  0  0  0
   21.8864   12.0224   52.1652 O   0  0  0  0  0  0  0  0  0  0  0  0
   22.2968   11.4638   54.6691 O   0  0  0  0  0  0  0  0  0  0  0  0
   22.5321   13.3625   52.3584 H   0  0  0  0  0  0  0  0  0  0  0  0
   20.7455    5.2848   53.4794 C   0  0  0  0  0  0  0  0  0  0  0  0
   19.3564    4.7255   53.3927 O   0  0  0  0  0  0  0  0  0  0  0  0
   21.5964    4.4259   53.6010 O   0  0  0  0  0  0  0  0  0  0  0  0
   19.1395    3.2426   53.4588 H   0  0  0  0  0  0  0  0  0  0  0  0
   23.8830    8.8568   54.7907 S   0  0  0  0  0  0  0  0  0  0  0  0
   25.3642    8.6203   54.7972 C   0  0  0  0  0  0  0  0  0  0  0  0
   26.7890    8.6169   55.2660 C   0  0  0  0  0  0  0  0  0  0  0  0
   25.7163    9.2096   56.1309 C   0  0  0  0  0  0  0  0  0  0  0  0
   25.5266    7.9487   53.4657 C   0  0  0  0  0  0  0  0  0  0  0  0
   26.3430    8.6026   52.3905 O   0  0  0  0  0  0  0  0  0  0  0  0
   24.8726    6.6234   53.2094 O   0  0  0  0  0  0  0  0  0  0  0  0
   26.5053    7.9311   51.0592 H   0  0  0  0  0  0  0  0  0  0  0  0
  1  2  1  0  0  0
  2  3  1  0  0  0
  3  4  1  0  0  0
  4 18  1  0  0  0
 18 19  1  0  0  0
 19 20  1  0  0  0
 20 21  1  0  0  0
 19 22  1  0  0  0
 22 23  1  0  0  0
 22 24  2  0  0  0
  4  5  1  0  0  0
  5  6  1  0  0  0
  6  7  1  0  0  0
  6 10  1  0  0  0
 10 11  1  0  0  0
 10 12  2  0  0  0
  2 14  1  0  0  0
 14 15  1  0  0  0
 14 16  2  0  0  0
  7  2  1  0  0  0
 21 19  1  0  0  0
  7  5  1  0  0  0
  1  8  1  0  0  0
  1  9  1  0  0  0
 23 25  1  0  0  0
 11 13  1  0  0  0
 15 17  1  0  0  0
M  END
> <minimizedAffinity>
5.06830

> <CNNscore>
0.6845577955

> <CNNaffinity>
6.0318489075

> <CNN_VS>
4.1291489601

> <CNNaffinity_variance>
0.5806785822

$$$$
[H]OC(=O)C1(S[C@]2([H])C([H])([H])[C@](C(=O)O[H])(N([H])[H])[C@@]3([H])[C@@]2([H])[C@]3([H])C(=O)O[H])C([H])([H])C1([H])[H]


 25 27  0  0  0  0  0  0  0  0999 V2000
   19.6288    6.7577   52.9118 N   0  0  0  0  0  0  0  0  0  0  0  0
   20.9945    6.6716   53.5262 C   0  0  0  0  0  0  0  0  0  0  0  0
   22.3119    6.2760   54.1245 C   0  0  0  0  0  0  0  0  0  0  0  0
   23.0716    7.5297   54.4424 C   0  0  0  0  0  0  0  0  0  0  0  0
   22.2239    8.7001   54.0404 C   0  0  0  0  0  0  0  0  0  0  0  0
   21.1712    9.6498   53.5506 C   0  0  0  0  0  0  0  0  0  0  0  0
   20.9401    8.1697   53.4742 C   0  0  0  0  0  0  0  0  0  0  0  0
   18.8690    5.5040   52.5939 H   0  0  0  0  0  0  0  0  0  0  0  0
   18.8778    8.0053   52.5519 H   0  0  0  0  0  0  0  0  0  0  0  0
   21.8498   10.9579   53.8310 C   0  0  0  0  0  0  0  0  0  0  0  0
   22.4980   11.1962   55.1625 O   0  0  0  0  0  0  0  0  0  0  0  0
   21.8801   12.0275   52.7799 O   0  0  0  0  0  0  0  0  0  0  0  0
   23.1765   12.5043   55.4429 H   0  0  0  0  0  0  0  0  0  0  0  0
   20.7634    5.1915   53.4497 C   0  0  0  0  0  0  0  0  0  0  0  0
   19.3664    4.6548   53.3485 O   0  0  0  0  0  0  0  0  0  0  0  0
   21.6080    4.3180   53.4594 O   0  0  0  0  0  0  0  0  0  0  0  0
   19.1353    3.1746   53.2720 H   0  0  0  0  0  0  0  0  0  0  0  0
   24.0515    8.5848   54.8626 S   0  0  0  0  0  0  0  0  0  0  0  0
   25.4775    8.5098   54.4032 C   0  0  0  0  0  0  0  0  0  0  0  0
   26.6658    8.2103   53.5383 C   0  0  0  0  0  0  0  0  0  0  0  0
   25.2884    7.8372   53.0758 C   0  0  0  0  0  0  0  0  0  0  0  0
   26.1617    9.1564   55.5710 C   0  0  0  0  0  0  0  0  0  0  0  0
   25.3545    9.8870   56.6029 O   0  0  0  0  0  0  0  0  0  0  0  0
   27.6532    9.0725   55.7070 O   0  0  0  0  0  0  0  0  0  0  0  0
   26.0388   10.5335   57.7706 H   0  0  0  0  0  0  0  0  0  0  0  0
  1  2  1  0  0  0
  2  3  1  0  0  0
  3  4  1  0  0  0
  4 18  1  0  0  0
 18 19  1  0  0  0
 19 20  1  0  0  0
 20 21  1  0  0  0
 19 22  1  0  0  0
 22 23  1  0  0  0
 22 24  2  0  0  0
  4  5  1  0  0  0
  5  6  1  0  0  0
  6  7  1  0  0  0
  6 10  1  0  0  0
 10 11  1  0  0  0
 10 12  2  0  0  0
  2 14  1  0  0  0
 14 15  1  0  0  0
 14 16  2  0  0  0
  7  2  1  0  0  0
 21 19  1  0  0  0
  7  5  1  0  0  0
  1  8  1  0  0  0
  1  9  1  0  0  0
 23 25  1  0  0  0
 11 13  1  0  0  0
 15 17  1  0  0  0
M  END
> <minimizedAffinity>
5.08017

> <CNNscore>
0.6691671014

> <CNNaffinity>
5.9995880127

> <CNN_VS>
4.0147271156

> <CNNaffinity_variance>
0.3604585528

$$$$
[H]OC(=O)C1(S[C@]2([H])C([H])([H])[C@](C(=O)O[H])(N([H])[H])[C@@]3([H])[C@@]2([H])[C@]3([H])C(=O)O[H])C([H])([H])C1([H])[H]


 25 27  0  0  0  0  0  0  0  0999 V2000
   20.0066    7.3177   52.8218 N   0  0  0  0  0  0  0  0  0  0  0  0
   21.3850    7.8882   52.6649 C   0  0  0  0  0  0  0  0  0  0  0  0
   22.6285    8.6381   52.2889 C   0  0  0  0  0  0  0  0  0  0  0  0
   23.7539    8.1243   53.1371 C   0  0  0  0  0  0  0  0  0  0  0  0
   23.2059    7.0569   54.0374 C   0  0  0  0  0  0  0  0  0  0  0  0
   22.3869    6.0531   54.7933 C   0  0  0  0  0  0  0  0  0  0  0  0
   21.7418    6.9110   53.7455 C   0  0  0  0  0  0  0  0  0  0  0  0
   18.8812    7.8314   51.9736 H   0  0  0  0  0  0  0  0  0  0  0  0
   19.5793    6.2375   53.7709 H   0  0  0  0  0  0  0  0  0  0  0  0
   23.4439    5.4740   55.6863 C   0  0  0  0  0  0  0  0  0  0  0  0
   23.0511    4.7213   56.9229 O   0  0  0  0  0  0  0  0  0  0  0  0
   24.8936    5.6475   55.3426 O   0  0  0  0  0  0  0  0  0  0  0  0
   24.1081    4.1422   57.8159 H   0  0  0  0  0  0  0  0  0  0  0  0
   20.7399    8.7461   51.6171 C   0  0  0  0  0  0  0  0  0  0  0  0
   21.1112   10.1948   51.5010 O   0  0  0  0  0  0  0  0  0  0  0  0
   19.9072    8.4026   50.8017 O   0  0  0  0  0  0  0  0  0  0  0  0
   20.4661   11.0527   50.4531 H   0  0  0  0  0  0  0  0  0  0  0  0
   25.0505    7.8205   53.8273 S   0  0  0  0  0  0  0  0  0  0  0  0
   25.5305    8.7006   54.9431 C   0  0  0  0  0  0  0  0  0  0  0  0
   25.4964    9.6542   56.1005 C   0  0  0  0  0  0  0  0  0  0  0  0
   24.2170    9.2176   55.4505 C   0  0  0  0  0  0  0  0  0  0  0  0
   27.0107    8.4893   54.8233 C   0  0  0  0  0  0  0  0  0  0  0  0
   27.9526    9.2703   55.6911 O   0  0  0  0  0  0  0  0  0  0  0  0
   27.5491    7.4970   53.8356 O   0  0  0  0  0  0  0  0  0  0  0  0
   29.4327    9.0589   55.5712 H   0  0  0  0  0  0  0  0  0  0  0  0
  1  2  1  0  0  0
  2  3  1  0  0  0
  3  4  1  0  0  0
  4 18  1  0  0  0
 18 19  1  0  0  0
 19 20  1  0  0  0
 20 21  1  0  0  0
 19 22  1  0  0  0
 22 23  1  0  0  0
 22 24  2  0  0  0
  4  5  1  0  0  0
  5  6  1  0  0  0
  6  7  1  0  0  0
  6 10  1  0  0  0
 10 11  1  0  0  0
 10 12  2  0  0  0
  2 14  1  0  0  0
 14 15  1  0  0  0
 14 16  2  0  0  0
  7  2  1  0  0  0
 21 19  1  0  0  0
  7  5  1  0  0  0
  1  8  1  0  0  0
  1  9  1  0  0  0
 23 25  1  0  0  0
 11 13  1  0  0  0
 15 17  1  0  0  0
M  END
> <minimizedAffinity>
1.96799

> <CNNscore>
0.6674666405

> <CNNaffinity>
6.0222954750

> <CNN_VS>
4.0196814537

> <CNNaffinity_variance>
0.3064611554

$$$$
[H]OC(=O)C1(S[C@]2([H])C([H])([H])[C@](C(=O)O[H])(N([H])[H])[C@@]3([H])[C@@]2([H])[C@]3([H])C(=O)O[H])C([H])([H])C1([H])[H]


 25 27  0  0  0  0  0  0  0  0999 V2000
   20.1523    7.6760   52.1818 N   0  0  0  0  0  0  0  0  0  0  0  0
   21.3562    8.4246   52.6716 C   0  0  0  0  0  0  0  0  0  0  0  0
   22.4817    9.3796   52.9387 C   0  0  0  0  0  0  0  0  0  0  0  0
   23.3012    8.8263   54.0667 C   0  0  0  0  0  0  0  0  0  0  0  0
   22.6822    7.5294   54.4966 C   0  0  0  0  0  0  0  0  0  0  0  0
   21.8558    6.2942   54.6996 C   0  0  0  0  0  0  0  0  0  0  0  0
   21.4801    7.2811   53.6344 C   0  0  0  0  0  0  0  0  0  0  0  0
   19.3327    8.2293   51.0537 H   0  0  0  0  0  0  0  0  0  0  0  0
   19.6282    6.3700   52.7012 H   0  0  0  0  0  0  0  0  0  0  0  0
   22.6093    5.6596   55.8308 C   0  0  0  0  0  0  0  0  0  0  0  0
   24.0060    5.1577   55.6134 O   0  0  0  0  0  0  0  0  0  0  0  0
   21.9662    5.5271   57.1795 O   0  0  0  0  0  0  0  0  0  0  0  0
   24.7596    4.5231   56.7446 H   0  0  0  0  0  0  0  0  0  0  0  0
   20.9806    9.4116   51.6064 C   0  0  0  0  0  0  0  0  0  0  0  0
   21.4718   10.8265   51.6880 O   0  0  0  0  0  0  0  0  0  0  0  0
   20.2902    9.2045   50.6282 O   0  0  0  0  0  0  0  0  0  0  0  0
   21.0961   11.8135   50.6227 H   0  0  0  0  0  0  0  0  0  0  0  0
   24.2934    8.5312   55.1522 S   0  0  0  0  0  0  0  0  0  0  0  0
   25.7617    8.5257   54.8450 C   0  0  0  0  0  0  0  0  0  0  0  0
   27.2392    8.7152   55.0207 C   0  0  0  0  0  0  0  0  0  0  0  0
   26.2985    9.0853   56.1290 C   0  0  0  0  0  0  0  0  0  0  0  0
   25.7348    7.9642   53.4543 C   0  0  0  0  0  0  0  0  0  0  0  0
   24.9451    6.7229   53.1618 O   0  0  0  0  0  0  0  0  0  0  0  0
   26.4975    8.6440   52.3560 O   0  0  0  0  0  0  0  0  0  0  0  0
   24.9182    6.1615   51.7711 H   0  0  0  0  0  0  0  0  0  0  0  0
  1  2  1  0  0  0
  2  3  1  0  0  0
  3  4  1  0  0  0
  4 18  1  0  0  0
 18 19  1  0  0  0
 19 20  1  0  0  0
 20 21  1  0  0  0
 19 22  1  0  0  0
 22 23  1  0  0  0
 22 24  2  0  0  0
  4  5  1  0  0  0
  5  6  1  0  0  0
  6  7  1  0  0  0
  6 10  1  0  0  0
 10 11  1  0  0  0
 10 12  2  0  0  0
  2 14  1  0  0  0
 14 15  1  0  0  0
 14 16  2  0  0  0
  7  2  1  0  0  0
 21 19  1  0  0  0
  7  5  1  0  0  0
  1  8  1  0  0  0
  1  9  1  0  0  0
 23 25  1  0  0  0
 11 13  1  0  0  0
 15 17  1  0  0  0
M  END
> <minimizedAffinity>
2.15816

> <CNNscore>
0.6430453658

> <CNNaffinity>
6.0832252502

> <CNN_VS>
3.9117898941

> <CNNaffinity_variance>
0.4022280574

$$$$
[H]OC(=O)C1(S[C@]2([H])C([H])([H])[C@](C(=O)O[H])(N([H])[H])[C@@]3([H])[C@@]2([H])[C@]3([H])C(=O)O[H])C([H])([H])C1([H])[H]


 25 27  0  0  0  0  0  0  0  0999 V2000
   27.0952    7.6530   54.1917 N   0  0  0  0  0  0  0  0  0  0  0  0
   25.9216    8.3403   54.8244 C   0  0  0  0  0  0  0  0  0  0  0  0
   24.9680    9.1935   55.6071 C   0  0  0  0  0  0  0  0  0  0  0  0
   23.5722    8.7837   55.2414 C   0  0  0  0  0  0  0  0  0  0  0  0
   23.6632    7.6772   54.2327 C   0  0  0  0  0  0  0  0  0  0  0  0
   24.0635    6.6098   53.2579 C   0  0  0  0  0  0  0  0  0  0  0  0
   25.1152    7.4032   53.9750 C   0  0  0  0  0  0  0  0  0  0  0  0
   28.4911    8.0628   54.5575 H   0  0  0  0  0  0  0  0  0  0  0  0
   27.0554    6.5445   53.1819 H   0  0  0  0  0  0  0  0  0  0  0  0
   22.7094    6.1291   52.8273 C   0  0  0  0  0  0  0  0  0  0  0  0
   21.9313    5.1942   53.7052 O   0  0  0  0  0  0  0  0  0  0  0  0
   22.1334    6.5833   51.5190 O   0  0  0  0  0  0  0  0  0  0  0  0
   20.5772    4.7135   53.2746 H   0  0  0  0  0  0  0  0  0  0  0  0
   26.9733    9.1337   55.5416 C   0  0  0  0  0  0  0  0  0  0  0  0
   28.3335    9.3001   54.9315 O   0  0  0  0  0  0  0  0  0  0  0  0
   26.8629    9.6926   56.6148 O   0  0  0  0  0  0  0  0  0  0  0  0
   29.3853   10.0935   55.6487 H   0  0  0  0  0  0  0  0  0  0  0  0
   22.0927    8.5970   55.0794 S   0  0  0  0  0  0  0  0  0  0  0  0
   21.3979    9.1325   53.8626 C   0  0  0  0  0  0  0  0  0  0  0  0
   20.5708    9.1653   52.6117 C   0  0  0  0  0  0  0  0  0  0  0  0
   20.7756    7.8709   53.3417 C   0  0  0  0  0  0  0  0  0  0  0  0
   21.7789   10.5800   53.9609 C   0  0  0  0  0  0  0  0  0  0  0  0
   22.1605   11.1666   55.2877 O   0  0  0  0  0  0  0  0  0  0  0  0
   21.7783   11.4408   52.7325 O   0  0  0  0  0  0  0  0  0  0  0  0
   22.5415   12.6141   55.3859 H   0  0  0  0  0  0  0  0  0  0  0  0
  1  2  1  0  0  0
  2  3  1  0  0  0
  3  4  1  0  0  0
  4 18  1  0  0  0
 18 19  1  0  0  0
 19 20  1  0  0  0
 20 21  1  0  0  0
 19 22  1  0  0  0
 22 23  1  0  0  0
 22 24  2  0  0  0
  4  5  1  0  0  0
  5  6  1  0  0  0
  6  7  1  0  0  0
  6 10  1  0  0  0
 10 11  1  0  0  0
 10 12  2  0  0  0
  2 14  1  0  0  0
 14 15  1  0  0  0
 14 16  2  0  0  0
  7  2  1  0  0  0
 21 19  1  0  0  0
  7  5  1  0  0  0
  1  8  1  0  0  0
  1  9  1  0  0  0
 23 25  1  0  0  0
 11 13  1  0  0  0
 15 17  1  0  0  0
M  END
> <minimizedAffinity>
0.88572

> <CNNscore>
0.6327456236

> <CNNaffinity>
5.8695230484

> <CNN_VS>
3.7139151096

> <CNNaffinity_variance>
0.1834107786

$$$$
[H]c1c([H])c(-c2c([H])c([H])c3c(c2[H])c(C([H])([H])N2C([H])([H])[C@]([H])(C([H])([H])[H])O[C@]2([H])C([H])([H])[H])c([H])n3C2([H])C([H])([H])C([H])([H])C([H])([H])C([H])([H])C2([H])[H])c(F)c([H])c1F


 31 35  0  0  0  0  0  0  0  0999 V2000
   20.5509    8.4894   54.1863 C   0  0  0  0  0  0  0  0  0  0  0  0
   19.7566    7.4288   53.7608 C   0  0  0  0  0  0  0  0  0  0  0  0
   20.3869    6.3155   53.7610 N   0  0  0  0  0  0  0  0  0  0  0  0
   21.6419    6.5337   54.1933 C   0  0  0  0  0  0  0  0  0  0  0  0
   22.7893    5.7712   54.1893 C   0  0  0  0  0  0  0  0  0  0  0  0
   24.0127    6.2620   54.4342 C   0  0  0  0  0  0  0  0  0  0  0  0
   24.1316    7.5982   54.7814 C   0  0  0  0  0  0  0  0  0  0  0  0
   23.0311    8.3812   54.8516 C   0  0  0  0  0  0  0  0  0  0  0  0
   21.7584    7.8447   54.4915 C   0  0  0  0  0  0  0  0  0  0  0  0
   25.4193    8.1453   54.7058 C   0  0  0  0  0  0  0  0  0  0  0  0
   26.0359    8.6101   55.9818 C   0  0  0  0  0  0  0  0  0  0  0  0
   27.3459    9.0395   55.8447 C   0  0  0  0  0  0  0  0  0  0  0  0
   28.0732    9.1079   54.7132 C   0  0  0  0  0  0  0  0  0  0  0  0
   29.3790    9.2144   54.6590 F   0  0  0  0  0  0  0  0  0  0  0  0
   27.4301    8.7054   53.4932 C   0  0  0  0  0  0  0  0  0  0  0  0
   26.1777    8.2517   53.6381 C   0  0  0  0  0  0  0  0  0  0  0  0
   25.4511    7.9914   52.3795 F   0  0  0  0  0  0  0  0  0  0  0  0
   19.9456    5.0027   53.3343 C   0  0  0  0  0  0  0  0  0  0  0  0
   18.7510    4.5065   54.1036 C   0  0  0  0  0  0  0  0  0  0  0  0
   18.1613    3.3458   53.3109 C   0  0  0  0  0  0  0  0  0  0  0  0
   19.1837    2.2848   53.0129 C   0  0  0  0  0  0  0  0  0  0  0  0
   20.4424    2.8252   52.3917 C   0  0  0  0  0  0  0  0  0  0  0  0
   20.9695    3.9301   53.3271 C   0  0  0  0  0  0  0  0  0  0  0  0
   20.3454    9.9386   54.3029 C   0  0  0  0  0  0  0  0  0  0  0  0
   21.8327   13.2280   51.1150 C   0  0  0  0  0  0  0  0  0  0  0  0
   22.0429   11.8995   51.7852 C   0  0  0  0  0  0  0  0  0  0  0  0
   21.4820   11.8804   53.2256 C   0  0  0  0  0  0  0  0  0  0  0  0
   21.3558   10.5319   53.4367 N   0  0  0  0  0  0  0  0  0  0  0  0
   21.3453    9.8541   52.1371 C   0  0  0  0  0  0  0  0  0  0  0  0
   20.2558    8.8648   51.9111 C   0  0  0  0  0  0  0  0  0  0  0  0
   21.3010   10.8743   51.1890 O   0  0  0  0  0  0  0  0  0  0  0  0
 25 26  1  0  0  0
 26 27  1  0  0  0
 27 28  1  0  0  0
 28 24  1  0  0  0
 24  1  1  0  0  0
  1  2  2  0  0  0
  2  3  1  0  0  0
  3 18  1  0  0  0
 18 19  1  0  0  0
 19 20  1  0  0  0
 20 21  1  0  0  0
 21 22  1  0  0  0
 22 23  1  0  0  0
  3  4  1  0  0  0
  4  5  2  0  0  0
  5  6  1  0  0  0
  6  7  2  0  0  0
  7  8  1  0  0  0
  8  9  2  0  0  0
  7 10  1  0  0  0
 10 11  2  0  0  0
 11 12  1  0  0  0
 12 13  2  0  0  0
 13 14  1  0  0  0
 13 15  1  0  0  0
 15 16  2  0  0  0
 16 17  1  0  0  0
 28 29  1  0  0  0
 29 30  1  0  0  0
 29 31  1  0  0  0
 31 26  1  0  0  0
  9  1  1  0  0  0
 16 10  1  0  0  0
 23 18  1  0  0  0
  9  4  1  0  0  0
M  END
> <minimizedAffinity>
25.24847

> <CNNscore>
0.5548788905

> <CNNaffinity>
6.8764200211

> <CNN_VS>
3.8155803680

> <CNNaffinity_variance>
0.4417447150

$$$$
[H]c1c([H])c(-c2c([H])c([H])c3c(c2[H])c(C([H])([H])N2C([H])([H])[C@]([H])(C([H])([H])[H])O[C@]2([H])C([H])([H])[H])c([H])n3C2([H])C([H])([H])C([H])([H])C([H])([H])C([H])([H])C2([H])[H])c(F)c([H])c1F


 31 35  0  0  0  0  0  0  0  0999 V2000
   23.0640    8.8721   52.4489 C   0  0  0  0  0  0  0  0  0  0  0  0
   24.3023    9.1849   53.0017 C   0  0  0  0  0  0  0  0  0  0  0  0
   24.8477    8.1813   53.5781 N   0  0  0  0  0  0  0  0  0  0  0  0
   24.0322    7.1191   53.4512 C   0  0  0  0  0  0  0  0  0  0  0  0
   24.0009    5.8751   54.0424 C   0  0  0  0  0  0  0  0  0  0  0  0
   22.9523    5.0423   53.9743 C   0  0  0  0  0  0  0  0  0  0  0  0
   21.8596    5.4164   53.2086 C   0  0  0  0  0  0  0  0  0  0  0  0
   21.8585    6.6051   52.5636 C   0  0  0  0  0  0  0  0  0  0  0  0
   22.9533    7.5042   52.7377 C   0  0  0  0  0  0  0  0  0  0  0  0
   20.6776    4.6953   53.4228 C   0  0  0  0  0  0  0  0  0  0  0  0
   19.5316    5.4336   54.0279 C   0  0  0  0  0  0  0  0  0  0  0  0
   18.3680    4.6864   54.1113 C   0  0  0  0  0  0  0  0  0  0  0  0
   18.1891    3.4021   53.7471 C   0  0  0  0  0  0  0  0  0  0  0  0
   17.0275    2.8281   53.5456 F   0  0  0  0  0  0  0  0  0  0  0  0
   19.3286    2.7036   53.2201 C   0  0  0  0  0  0  0  0  0  0  0  0
   20.4397    3.4433   53.1028 C   0  0  0  0  0  0  0  0  0  0  0  0
   21.6559    2.6990   52.7198 F   0  0  0  0  0  0  0  0  0  0  0  0
   26.0906    8.1033   54.3192 C   0  0  0  0  0  0  0  0  0  0  0  0
   26.1466    9.0668   55.4740 C   0  0  0  0  0  0  0  0  0  0  0  0
   27.2863    8.6123   56.3786 C   0  0  0  0  0  0  0  0  0  0  0  0
   28.5831    8.4737   55.6310 C   0  0  0  0  0  0  0  0  0  0  0  0
   28.4689    7.6383   54.3855 C   0  0  0  0  0  0  0  0  0  0  0  0
   27.3399    8.2493   53.5337 C   0  0  0  0  0  0  0  0  0  0  0  0
   22.0259    9.6490   51.7600 C   0  0  0  0  0  0  0  0  0  0  0  0
   21.1020   10.5464   56.4008 C   0  0  0  0  0  0  0  0  0  0  0  0
   20.6149   10.4881   54.9804 C   0  0  0  0  0  0  0  0  0  0  0  0
   21.7449   10.7788   53.9663 C   0  0  0  0  0  0  0  0  0  0  0  0
   21.2192   10.2268   52.8271 N   0  0  0  0  0  0  0  0  0  0  0  0
   20.1641    9.2834   53.2085 C   0  0  0  0  0  0  0  0  0  0  0  0
   20.2229    7.9319   52.5864 C   0  0  0  0  0  0  0  0  0  0  0  0
   20.2287    9.1991   54.5979 O   0  0  0  0  0  0  0  0  0  0  0  0
 25 26  1  0  0  0
 26 27  1  0  0  0
 27 28  1  0  0  0
 28 24  1  0  0  0
 24  1  1  0  0  0
  1  2  2  0  0  0
  2  3  1  0  0  0
  3 18  1  0  0  0
 18 19  1  0  0  0
 19 20  1  0  0  0
 20 21  1  0  0  0
 21 22  1  0  0  0
 22 23  1  0  0  0
  3  4  1  0  0  0
  4  5  2  0  0  0
  5  6  1  0  0  0
  6  7  2  0  0  0
  7  8  1  0  0  0
  8  9  2  0  0  0
  7 10  1  0  0  0
 10 11  2  0  0  0
 11 12  1  0  0  0
 12 13  2  0  0  0
 13 14  1  0  0  0
 13 15  1  0  0  0
 15 16  2  0  0  0
 16 17  1  0  0  0
 28 29  1  0  0  0
 29 30  1  0  0  0
 29 31  1  0  0  0
 31 26  1  0  0  0
  9  1  1  0  0  0
 16 10  1  0  0  0
 23 18  1  0  0  0
  9  4  1  0  0  0
M  END
> <minimizedAffinity>
34.19271

> <CNNscore>
0.5510070324

> <CNNaffinity>
6.7760925293

> <CNN_VS>
3.7336745262

> <CNNaffinity_variance>
0.4333906174

$$$$
[H]c1c([H])c(-c2c([H])c([H])c3c(c2[H])c(C([H])([H])N2C([H])([H])[C@]([H])(C([H])([H])[H])O[C@]2([H])C([H])([H])[H])c([H])n3C2([H])C([H])([H])C([H])([H])C([H])([H])C([H])([H])C2([H])[H])c(F)c([H])c1F


 31 35  0  0  0  0  0  0  0  0999 V2000
   20.9697    8.7369   54.4789 C   0  0  0  0  0  0  0  0  0  0  0  0
   20.1066    7.6850   54.1866 C   0  0  0  0  0  0  0  0  0  0  0  0
   20.6952    6.5493   54.2090 N   0  0  0  0  0  0  0  0  0  0  0  0
   21.9881    6.7429   54.5260 C   0  0  0  0  0  0  0  0  0  0  0  0
   23.1038    5.9360   54.4807 C   0  0  0  0  0  0  0  0  0  0  0  0
   24.3596    6.3913   54.5963 C   0  0  0  0  0  0  0  0  0  0  0  0
   24.5533    7.7405   54.8461 C   0  0  0  0  0  0  0  0  0  0  0  0
   23.4904    8.5700   54.9522 C   0  0  0  0  0  0  0  0  0  0  0  0
   22.1746    8.0640   54.7289 C   0  0  0  0  0  0  0  0  0  0  0  0
   25.8491    8.2295   54.6342 C   0  0  0  0  0  0  0  0  0  0  0  0
   26.3692    8.1920   53.2369 C   0  0  0  0  0  0  0  0  0  0  0  0
   27.6112    8.7873   53.0874 C   0  0  0  0  0  0  0  0  0  0  0  0
   28.3767    9.3414   54.0472 C   0  0  0  0  0  0  0  0  0  0  0  0
   29.3790   10.1601   53.8360 F   0  0  0  0  0  0  0  0  0  0  0  0
   27.8705    9.3104   55.3913 C   0  0  0  0  0  0  0  0  0  0  0  0
   26.6509    8.7711   55.5231 C   0  0  0  0  0  0  0  0  0  0  0  0
   26.1906    8.5837   56.9132 F   0  0  0  0  0  0  0  0  0  0  0  0
   20.1748    5.2317   53.9039 C   0  0  0  0  0  0  0  0  0  0  0  0
   20.7917    4.6280   52.6710 C   0  0  0  0  0  0  0  0  0  0  0  0
   20.4716    3.1379   52.6965 C   0  0  0  0  0  0  0  0  0  0  0  0
   18.9979    2.8766   52.8365 C   0  0  0  0  0  0  0  0  0  0  0  0
   18.3647    3.6208   53.9800 C   0  0  0  0  0  0  0  0  0  0  0  0
   18.7011    5.1122   53.7898 C   0  0  0  0  0  0  0  0  0  0  0  0
   20.8256   10.1976   54.5177 C   0  0  0  0  0  0  0  0  0  0  0  0
   21.7192   13.1426   50.8131 C   0  0  0  0  0  0  0  0  0  0  0  0
   22.0437   11.8790   51.5588 C   0  0  0  0  0  0  0  0  0  0  0  0
   21.7534   12.0064   53.0718 C   0  0  0  0  0  0  0  0  0  0  0  0
   21.6638   10.6865   53.4306 N   0  0  0  0  0  0  0  0  0  0  0  0
   21.4158    9.8901   52.2253 C   0  0  0  0  0  0  0  0  0  0  0  0
   20.3005    8.9061   52.2954 C   0  0  0  0  0  0  0  0  0  0  0  0
   21.2031   10.8174   51.2073 O   0  0  0  0  0  0  0  0  0  0  0  0
 25 26  1  0  0  0
 26 27  1  0  0  0
 27 28  1  0  0  0
 28 24  1  0  0  0
 24  1  1  0  0  0
  1  2  2  0  0  0
  2  3  1  0  0  0
  3 18  1  0  0  0
 18 19  1  0  0  0
 19 20  1  0  0  0
 20 21  1  0  0  0
 21 22  1  0  0  0
 22 23  1  0  0  0
  3  4  1  0  0  0
  4  5  2  0  0  0
  5  6  1  0  0  0
  6  7  2  0  0  0
  7  8  1  0  0  0
  8  9  2  0  0  0
  7 10  1  0  0  0
 10 11  2  0  0  0
 11 12  1  0  0  0
 12 13  2  0  0  0
 13 14  1  0  0  0
 13 15  1  0  0  0
 15 16  2  0  0  0
 16 17  1  0  0  0
 28 29  1  0  0  0
 29 30  1  0  0  0
 29 31  1  0  0  0
 31 26  1  0  0  0
  9  1  1  0  0  0
 16 10  1  0  0  0
 23 18  1  0  0  0
  9  4  1  0  0  0
M  END
> <minimizedAffinity>
25.47889

> <CNNscore>
0.5418826342

> <CNNaffinity>
6.7709693909

> <CNN_VS>
3.6690707207

> <CNNaffinity_variance>
0.4969319403

$$$$
[H]c1c([H])c(-c2c([H])c([H])c3c(c2[H])c(C([H])([H])N2C([H])([H])[C@]([H])(C([H])([H])[H])O[C@]2([H])C([H])([H])[H])c([H])n3C2([H])C([H])([H])C([H])([H])C([H])([H])C([H])([H])C2([H])[H])c(F)c([H])c1F


 31 35  0  0  0  0  0  0  0  0999 V2000
   22.3412    9.5296   53.8337 C   0  0  0  0  0  0  0  0  0  0  0  0
   23.6621    9.6892   54.2418 C   0  0  0  0  0  0  0  0  0  0  0  0
   24.2947    8.5784   54.2950 N   0  0  0  0  0  0  0  0  0  0  0  0
   23.4607    7.5920   53.9197 C   0  0  0  0  0  0  0  0  0  0  0  0
   23.5270    6.2179   53.9950 C   0  0  0  0  0  0  0  0  0  0  0  0
   22.4765    5.4080   53.7997 C   0  0  0  0  0  0  0  0  0  0  0  0
   21.2658    5.9727   53.4315 C   0  0  0  0  0  0  0  0  0  0  0  0
   21.1574    7.3136   53.2920 C   0  0  0  0  0  0  0  0  0  0  0  0
   22.2733    8.1483   53.6007 C   0  0  0  0  0  0  0  0  0  0  0  0
   20.1365    5.1532   53.5582 C   0  0  0  0  0  0  0  0  0  0  0  0
   18.8799    5.7976   54.0381 C   0  0  0  0  0  0  0  0  0  0  0  0
   17.7830    4.9514   54.0370 C   0  0  0  0  0  0  0  0  0  0  0  0
   17.7509    3.6496   53.6928 C   0  0  0  0  0  0  0  0  0  0  0  0
   16.6670    2.9706   53.4036 F   0  0  0  0  0  0  0  0  0  0  0  0
   18.9903    3.0457   53.2891 C   0  0  0  0  0  0  0  0  0  0  0  0
   20.0389    3.8792   53.2519 C   0  0  0  0  0  0  0  0  0  0  0  0
   21.3452    3.2393   52.9996 F   0  0  0  0  0  0  0  0  0  0  0  0
   25.6511    8.3063   54.7265 C   0  0  0  0  0  0  0  0  0  0  0  0
   26.1352    9.2657   55.7803 C   0  0  0  0  0  0  0  0  0  0  0  0
   27.3726    8.6423   56.4157 C   0  0  0  0  0  0  0  0  0  0  0  0
   28.4125    8.2771   55.3934 C   0  0  0  0  0  0  0  0  0  0  0  0
   27.8711    7.4522   54.2582 C   0  0  0  0  0  0  0  0  0  0  0  0
   26.6814    8.2291   53.6627 C   0  0  0  0  0  0  0  0  0  0  0  0
   21.2016   10.4422   53.6776 C   0  0  0  0  0  0  0  0  0  0  0  0
   20.4758   14.2506   50.8202 C   0  0  0  0  0  0  0  0  0  0  0  0
   21.3468   13.0958   51.2275 C   0  0  0  0  0  0  0  0  0  0  0  0
   21.1875   12.7478   52.7252 C   0  0  0  0  0  0  0  0  0  0  0  0
   21.6625   11.4622   52.7446 N   0  0  0  0  0  0  0  0  0  0  0  0
   21.6255   10.9293   51.3796 C   0  0  0  0  0  0  0  0  0  0  0  0
   21.0017    9.5887   51.2051 C   0  0  0  0  0  0  0  0  0  0  0  0
   20.9610   11.8938   50.6247 O   0  0  0  0  0  0  0  0  0  0  0  0
 25 26  1  0  0  0
 26 27  1  0  0  0
 27 28  1  0  0  0
 28 24  1  0  0  0
 24  1  1  0  0  0
  1  2  2  0  0  0
  2  3  1  0  0  0
  3 18  1  0  0  0
 18 19  1  0  0  0
 19 20  1  0  0  0
 20 21  1  0  0  0
 21 22  1  0  0  0
 22 23  1  0  0  0
  3  4  1  0  0  0
  4  5  2  0  0  0
  5  6  1  0  0  0
  6  7  2  0  0  0
  7  8  1  0  0  0
  8  9  2  0  0  0
  7 10  1  0  0  0
 10 11  2  0  0  0
 11 12  1  0  0  0
 12 13  2  0  0  0
 13 14  1  0  0  0
 13 15  1  0  0  0
 15 16  2  0  0  0
 16 17  1  0  0  0
 28 29  1  0  0  0
 29 30  1  0  0  0
 29 31  1  0  0  0
 31 26  1  0  0  0
  9  1  1  0  0  0
 16 10  1  0  0  0
 23 18  1  0  0  0
  9  4  1  0  0  0
M  END
> <minimizedAffinity>
29.71570

> <CNNscore>
0.5416194201

> <CNNaffinity>
6.5791563988

> <CNN_VS>
3.5633988380

> <CNNaffinity_variance>
0.2745807767

$$$$
[H]c1c([H])c(-c2c([H])c([H])c3c(c2[H])c(C([H])([H])N2C([H])([H])[C@]([H])(C([H])([H])[H])O[C@]2([H])C([H])([H])[H])c([H])n3C2([H])C([H])([H])C([H])([H])C([H])([H])C([H])([H])C2([H])[H])c(F)c([H])c1F


 31 35  0  0  0  0  0  0  0  0999 V2000
   22.9052    9.7045   54.7845 C   0  0  0  0  0  0  0  0  0  0  0  0
   24.2436    9.8238   55.1469 C   0  0  0  0  0  0  0  0  0  0  0  0
   24.9220    8.7770   54.8628 N   0  0  0  0  0  0  0  0  0  0  0  0
   24.1040    7.8811   54.2815 C   0  0  0  0  0  0  0  0  0  0  0  0
   24.2298    6.5430   53.9787 C   0  0  0  0  0  0  0  0  0  0  0  0
   23.2014    5.7566   53.6300 C   0  0  0  0  0  0  0  0  0  0  0  0
   21.9470    6.3296   53.4956 C   0  0  0  0  0  0  0  0  0  0  0  0
   21.7761    7.6506   53.7300 C   0  0  0  0  0  0  0  0  0  0  0  0
   22.8764    8.4342   54.1908 C   0  0  0  0  0  0  0  0  0  0  0  0
   20.8623    5.4434   53.4582 C   0  0  0  0  0  0  0  0  0  0  0  0
   21.1723    3.9985   53.2562 C   0  0  0  0  0  0  0  0  0  0  0  0
   20.0625    3.1731   53.3362 C   0  0  0  0  0  0  0  0  0  0  0  0
   18.7812    3.5374   53.5351 C   0  0  0  0  0  0  0  0  0  0  0  0
   17.8169    2.7338   53.9144 F   0  0  0  0  0  0  0  0  0  0  0  0
   18.5104    4.9419   53.6697 C   0  0  0  0  0  0  0  0  0  0  0  0
   19.5924    5.7315   53.6333 C   0  0  0  0  0  0  0  0  0  0  0  0
   19.3150    7.1813   53.6048 F   0  0  0  0  0  0  0  0  0  0  0  0
   26.3144    8.4767   55.1291 C   0  0  0  0  0  0  0  0  0  0  0  0
   26.9294    9.3994   56.1468 C   0  0  0  0  0  0  0  0  0  0  0  0
   28.2217    8.7434   56.6195 C   0  0  0  0  0  0  0  0  0  0  0  0
   29.1330    8.3962   55.4755 C   0  0  0  0  0  0  0  0  0  0  0  0
   28.4539    7.6110   54.3871 C   0  0  0  0  0  0  0  0  0  0  0  0
   27.2158    8.4186   53.9529 C   0  0  0  0  0  0  0  0  0  0  0  0
   21.7222   10.5595   54.9441 C   0  0  0  0  0  0  0  0  0  0  0  0
   20.8260    8.2738   50.8008 C   0  0  0  0  0  0  0  0  0  0  0  0
   20.5435    9.4288   51.7196 C   0  0  0  0  0  0  0  0  0  0  0  0
   20.7557    9.0553   53.2046 C   0  0  0  0  0  0  0  0  0  0  0  0
   20.9073   10.2969   53.7651 N   0  0  0  0  0  0  0  0  0  0  0  0
   21.2576   11.2483   52.7064 C   0  0  0  0  0  0  0  0  0  0  0  0
   22.4252   12.1345   52.9675 C   0  0  0  0  0  0  0  0  0  0  0  0
   21.4612   10.4734   51.5663 O   0  0  0  0  0  0  0  0  0  0  0  0
 25 26  1  0  0  0
 26 27  1  0  0  0
 27 28  1  0  0  0
 28 24  1  0  0  0
 24  1  1  0  0  0
  1  2  2  0  0  0
  2  3  1  0  0  0
  3 18  1  0  0  0
 18 19  1  0  0  0
 19 20  1  0  0  0
 20 21  1  0  0  0
 21 22  1  0  0  0
 22 23  1  0  0  0
  3  4  1  0  0  0
  4  5  2  0  0  0
  5  6  1  0  0  0
  6  7  2  0  0  0
  7  8  1  0  0  0
  8  9  2  0  0  0
  7 10  1  0  0  0
 10 11  2  0  0  0
 11 12  1  0  0  0
 12 13  2  0  0  0
 13 14  1  0  0  0
 13 15  1  0  0  0
 15 16  2  0  0  0
 16 17  1  0  0  0
 28 29  1  0  0  0
 29 30  1  0  0  0
 29 31  1  0  0  0
 31 26  1  0  0  0
  9  1  1  0  0  0
 16 10  1  0  0  0
 23 18  1  0  0  0
  9  4  1  0  0  0
M  END
> <minimizedAffinity>
24.14243

> <CNNscore>
0.5349947214

> <CNNaffinity>
6.8196358681

> <CNN_VS>
3.6484692097

> <CNNaffinity_variance>
0.4046044350

$$$$
[H]c1c([H])c(-c2c([H])c([H])c3c(c2[H])c(C([H])([H])N2C([H])([H])[C@]([H])(C([H])([H])[H])O[C@]2([H])C([H])([H])[H])c([H])n3C2([H])C([H])([H])C([H])([H])C([H])([H])C([H])([H])C2([H])[H])c(F)c([H])c1F


 31 35  0  0  0  0  0  0  0  0999 V2000
   22.5696    9.7497   54.0241 C   0  0  0  0  0  0  0  0  0  0  0  0
   23.8809    9.8804   54.4716 C   0  0  0  0  0  0  0  0  0  0  0  0
   24.5090    8.7659   54.4763 N   0  0  0  0  0  0  0  0  0  0  0  0
   23.6815    7.8058   54.0260 C   0  0  0  0  0  0  0  0  0  0  0  0
   23.7422    6.4294   54.0244 C   0  0  0  0  0  0  0  0  0  0  0  0
   22.6944    5.6362   53.7587 C   0  0  0  0  0  0  0  0  0  0  0  0
   21.4944    6.2259   53.3948 C   0  0  0  0  0  0  0  0  0  0  0  0
   21.3930    7.5729   53.3293 C   0  0  0  0  0  0  0  0  0  0  0  0
   22.5034    8.3842   53.7113 C   0  0  0  0  0  0  0  0  0  0  0  0
   20.3601    5.4051   53.4481 C   0  0  0  0  0  0  0  0  0  0  0  0
   20.5820    3.9329   53.3586 C   0  0  0  0  0  0  0  0  0  0  0  0
   19.4286    3.1836   53.5244 C   0  0  0  0  0  0  0  0  0  0  0  0
   18.1750    3.6376   53.7151 C   0  0  0  0  0  0  0  0  0  0  0  0
   17.1747    2.9252   54.1748 F   0  0  0  0  0  0  0  0  0  0  0  0
   17.9884    5.0618   53.7399 C   0  0  0  0  0  0  0  0  0  0  0  0
   19.1129    5.7808   53.6210 C   0  0  0  0  0  0  0  0  0  0  0  0
   18.9187    7.2375   53.4797 F   0  0  0  0  0  0  0  0  0  0  0  0
   25.8541    8.4641   54.9235 C   0  0  0  0  0  0  0  0  0  0  0  0
   26.3483    9.4151   55.9802 C   0  0  0  0  0  0  0  0  0  0  0  0
   27.5641    8.7654   56.6307 C   0  0  0  0  0  0  0  0  0  0  0  0
   28.6066    8.3740   55.6209 C   0  0  0  0  0  0  0  0  0  0  0  0
   28.0590    7.5586   54.4817 C   0  0  0  0  0  0  0  0  0  0  0  0
   26.8939    8.3607   53.8713 C   0  0  0  0  0  0  0  0  0  0  0  0
   21.4365   10.6744   53.8934 C   0  0  0  0  0  0  0  0  0  0  0  0
   20.5209   14.2493   50.7988 C   0  0  0  0  0  0  0  0  0  0  0  0
   21.4065   13.1126   51.2251 C   0  0  0  0  0  0  0  0  0  0  0  0
   21.3742   12.8932   52.7550 C   0  0  0  0  0  0  0  0  0  0  0  0
   21.8292   11.6031   52.8416 N   0  0  0  0  0  0  0  0  0  0  0  0
   21.6640   10.9604   51.5346 C   0  0  0  0  0  0  0  0  0  0  0  0
   21.0066    9.6244   51.5281 C   0  0  0  0  0  0  0  0  0  0  0  0
   20.9506   11.8741   50.7613 O   0  0  0  0  0  0  0  0  0  0  0  0
 25 26  1  0  0  0
 26 27  1  0  0  0
 27 28  1  0  0  0
 28 24  1  0  0  0
 24  1  1  0  0  0
  1  2  2  0  0  0
  2  3  1  0  0  0
  3 18  1  0  0  0
 18 19  1  0  0  0
 19 20  1  0  0  0
 20 21  1  0  0  0
 21 22  1  0  0  0
 22 23  1  0  0  0
  3  4  1  0  0  0
  4  5  2  0  0  0
  5  6  1  0  0  0
  6  7  2  0  0  0
  7  8  1  0  0  0
  8  9  2  0  0  0
  7 10  1  0  0  0
 10 11  2  0  0  0
 11 12  1  0  0  0
 12 13  2  0  0  0
 13 14  1  0  0  0
 13 15  1  0  0  0
 15 16  2  0  0  0
 16 17  1  0  0  0
 28 29  1  0  0  0
 29 30  1  0  0  0
 29 31  1  0  0  0
 31 26  1  0  0  0
  9  1  1  0  0  0
 16 10  1  0  0  0
 23 18  1  0  0  0
  9  4  1  0  0  0
M  END
> <minimizedAffinity>
27.45377

> <CNNscore>
0.5348240137

> <CNNaffinity>
6.5756125450

> <CNN_VS>
3.5167953968

> <CNNaffinity_variance>
0.2079438865

$$$$
[H]c1c([H])c(-c2c([H])c([H])c3c(c2[H])c(C([H])([H])N2C([H])([H])[C@]([H])(C([H])([H])[H])O[C@]2([H])C([H])([H])[H])c([H])n3C2([H])C([H])([H])C([H])([H])C([H])([H])C([H])([H])C2([H])[H])c(F)c([H])c1F


 31 35  0  0  0  0  0  0  0  0999 V2000
   25.6442    7.7635   54.2127 C   0  0  0  0  0  0  0  0  0  0  0  0
   26.0613    8.0130   55.5168 C   0  0  0  0  0  0  0  0  0  0  0  0
   27.0336    8.8429   55.5686 N   0  0  0  0  0  0  0  0  0  0  0  0
   27.3391    9.2237   54.3151 C   0  0  0  0  0  0  0  0  0  0  0  0
   28.4036    9.9052   53.7669 C   0  0  0  0  0  0  0  0  0  0  0  0
   28.6544    9.9641   52.4512 C   0  0  0  0  0  0  0  0  0  0  0  0
   27.7575    9.3671   51.5798 C   0  0  0  0  0  0  0  0  0  0  0  0
   26.6668    8.7287   52.0613 C   0  0  0  0  0  0  0  0  0  0  0  0
   26.4853    8.6065   53.4718 C   0  0  0  0  0  0  0  0  0  0  0  0
   28.2100    9.1628   50.2696 C   0  0  0  0  0  0  0  0  0  0  0  0
   28.7039    7.7979   49.9265 C   0  0  0  0  0  0  0  0  0  0  0  0
   29.0342    7.6435   48.5899 C   0  0  0  0  0  0  0  0  0  0  0  0
   28.9878    8.5766   47.6198 C   0  0  0  0  0  0  0  0  0  0  0  0
   29.0016    8.3297   46.3320 F   0  0  0  0  0  0  0  0  0  0  0  0
   28.5611    9.8957   47.9964 C   0  0  0  0  0  0  0  0  0  0  0  0
   28.2031   10.0281   49.2809 C   0  0  0  0  0  0  0  0  0  0  0  0
   27.9216   11.4098   49.7184 F   0  0  0  0  0  0  0  0  0  0  0  0
   27.7880    9.3135   56.7130 C   0  0  0  0  0  0  0  0  0  0  0  0
   27.6234    8.4367   57.9251 C   0  0  0  0  0  0  0  0  0  0  0  0
   28.7456    8.7973   58.8916 C   0  0  0  0  0  0  0  0  0  0  0  0
   28.7795   10.2686   59.1980 C   0  0  0  0  0  0  0  0  0  0  0  0
   28.7779   11.1355   57.9689 C   0  0  0  0  0  0  0  0  0  0  0  0
   27.5583   10.7196   57.1244 C   0  0  0  0  0  0  0  0  0  0  0  0
   24.6468    6.8695   53.6113 C   0  0  0  0  0  0  0  0  0  0  0  0
   21.8259   10.4281   55.2157 C   0  0  0  0  0  0  0  0  0  0  0  0
   21.9624    9.1368   54.4593 C   0  0  0  0  0  0  0  0  0  0  0  0
   23.3532    8.9942   53.7997 C   0  0  0  0  0  0  0  0  0  0  0  0
   23.4093    7.6388   53.6034 N   0  0  0  0  0  0  0  0  0  0  0  0
   22.4291    6.9977   54.4849 C   0  0  0  0  0  0  0  0  0  0  0  0
   22.9160    5.8496   55.2983 C   0  0  0  0  0  0  0  0  0  0  0  0
   21.9417    8.0182   55.2990 O   0  0  0  0  0  0  0  0  0  0  0  0
 25 26  1  0  0  0
 26 27  1  0  0  0
 27 28  1  0  0  0
 28 24  1  0  0  0
 24  1  1  0  0  0
  1  2  2  0  0  0
  2  3  1  0  0  0
  3 18  1  0  0  0
 18 19  1  0  0  0
 19 20  1  0  0  0
 20 21  1  0  0  0
 21 22  1  0  0  0
 22 23  1  0  0  0
  3  4  1  0  0  0
  4  5  2  0  0  0
  5  6  1  0  0  0
  6  7  2  0  0  0
  7  8  1  0  0  0
  8  9  2  0  0  0
  7 10  1  0  0  0
 10 11  2  0  0  0
 11 12  1  0  0  0
 12 13  2  0  0  0
 13 14  1  0  0  0
 13 15  1  0  0  0
 15 16  2  0  0  0
 16 17  1  0  0  0
 28 29  1  0  0  0
 29 30  1  0  0  0
 29 31  1  0  0  0
 31 26  1  0  0  0
  9  1  1  0  0  0
 16 10  1  0  0  0
 23 18  1  0  0  0
  9  4  1  0  0  0
M  END
> <minimizedAffinity>
30.36713

> <CNNscore>
0.5311965942

> <CNNaffinity>
6.3029880524

> <CNN_VS>
3.3481256962

> <CNNaffinity_variance>
0.3228352070

$$$$
[H]c1c([H])c(-c2c([H])c([H])c3c(c2[H])c(C([H])([H])N2C([H])([H])[C@]([H])(C([H])([H])[H])O[C@]2([H])C([H])([H])[H])c([H])n3C2([H])C([H])([H])C([H])([H])C([H])([H])C([H])([H])C2([H])[H])c(F)c([H])c1F


 31 35  0  0  0  0  0  0  0  0999 V2000
   21.2372    8.1643   52.1989 C   0  0  0  0  0  0  0  0  0  0  0  0
   20.3175    7.1199   52.2073 C   0  0  0  0  0  0  0  0  0  0  0  0
   20.5793    6.2453   53.1036 N   0  0  0  0  0  0  0  0  0  0  0  0
   21.6805    6.6331   53.7719 C   0  0  0  0  0  0  0  0  0  0  0  0
   22.5194    5.9981   54.6612 C   0  0  0  0  0  0  0  0  0  0  0  0
   23.7196    6.4728   55.0244 C   0  0  0  0  0  0  0  0  0  0  0  0
   24.1176    7.7071   54.5364 C   0  0  0  0  0  0  0  0  0  0  0  0
   23.3100    8.3984   53.7005 C   0  0  0  0  0  0  0  0  0  0  0  0
   22.0823    7.8167   53.2629 C   0  0  0  0  0  0  0  0  0  0  0  0
   25.4790    8.0134   54.6636 C   0  0  0  0  0  0  0  0  0  0  0  0
   26.4171    7.3446   53.7164 C   0  0  0  0  0  0  0  0  0  0  0  0
   27.7287    7.7754   53.8324 C   0  0  0  0  0  0  0  0  0  0  0  0
   28.2231    8.6752   54.7042 C   0  0  0  0  0  0  0  0  0  0  0  0
   29.3777    9.2857   54.5874 F   0  0  0  0  0  0  0  0  0  0  0  0
   27.3022    9.2585   55.6399 C   0  0  0  0  0  0  0  0  0  0  0  0
   26.0281    8.8695   55.4955 C   0  0  0  0  0  0  0  0  0  0  0  0
   25.1036    9.3317   56.5496 F   0  0  0  0  0  0  0  0  0  0  0  0
   19.9126    4.9923   53.3959 C   0  0  0  0  0  0  0  0  0  0  0  0
   20.1770    3.9317   52.3612 C   0  0  0  0  0  0  0  0  0  0  0  0
   19.7710    2.5976   52.9769 C   0  0  0  0  0  0  0  0  0  0  0  0
   18.3582    2.6162   53.4900 C   0  0  0  0  0  0  0  0  0  0  0  0
   18.0665    3.7806   54.3963 C   0  0  0  0  0  0  0  0  0  0  0  0
   18.4492    5.0590   53.6265 C   0  0  0  0  0  0  0  0  0  0  0  0
   21.4309    9.3498   51.3546 C   0  0  0  0  0  0  0  0  0  0  0  0
   20.6690   12.4180   54.9879 C   0  0  0  0  0  0  0  0  0  0  0  0
   21.5031   12.0024   53.8091 C   0  0  0  0  0  0  0  0  0  0  0  0
   21.4662   10.4738   53.5813 C   0  0  0  0  0  0  0  0  0  0  0  0
   21.8620   10.3973   52.2713 N   0  0  0  0  0  0  0  0  0  0  0  0
   21.6629   11.7077   51.6453 C   0  0  0  0  0  0  0  0  0  0  0  0
   20.9450   11.7201   50.3410 C   0  0  0  0  0  0  0  0  0  0  0  0
   20.9893   12.4723   52.5958 O   0  0  0  0  0  0  0  0  0  0  0  0
 25 26  1  0  0  0
 26 27  1  0  0  0
 27 28  1  0  0  0
 28 24  1  0  0  0
 24  1  1  0  0  0
  1  2  2  0  0  0
  2  3  1  0  0  0
  3 18  1  0  0  0
 18 19  1  0  0  0
 19 20  1  0  0  0
 20 21  1  0  0  0
 21 22  1  0  0  0
 22 23  1  0  0  0
  3  4  1  0  0  0
  4  5  2  0  0  0
  5  6  1  0  0  0
  6  7  2  0  0  0
  7  8  1  0  0  0
  8  9  2  0  0  0
  7 10  1  0  0  0
 10 11  2  0  0  0
 11 12  1  0  0  0
 12 13  2  0  0  0
 13 14  1  0  0  0
 13 15  1  0  0  0
 15 16  2  0  0  0
 16 17  1  0  0  0
 28 29  1  0  0  0
 29 30  1  0  0  0
 29 31  1  0  0  0
 31 26  1  0  0  0
  9  1  1  0  0  0
 16 10  1  0  0  0
 23 18  1  0  0  0
  9  4  1  0  0  0
M  END
> <minimizedAffinity>
31.55564

> <CNNscore>
0.5224087834

> <CNNaffinity>
6.7577309608

> <CNN_VS>
3.5302979946

> <CNNaffinity_variance>
0.5071380734

$$$$
[H]c1c([H])c(-c2c([H])c([H])c3c(c2[H])c(C([H])([H])N2C([H])([H])[C@]([H])(C([H])([H])[H])O[C@]2([H])C([H])([H])[H])c([H])n3C2([H])C([H])([H])C([H])([H])C([H])([H])C([H])([H])C2([H])[H])c(F)c([H])c1F


 31 35  0  0  0  0  0  0  0  0999 V2000
   21.1090    8.0986   52.6761 C   0  0  0  0  0  0  0  0  0  0  0  0
   20.2815    6.9817   52.6086 C   0  0  0  0  0  0  0  0  0  0  0  0
   20.7260    6.0016   53.3004 N   0  0  0  0  0  0  0  0  0  0  0  0
   21.8728    6.3805   53.8925 C   0  0  0  0  0  0  0  0  0  0  0  0
   22.8684    5.6934   54.5519 C   0  0  0  0  0  0  0  0  0  0  0  0
   24.0661    6.2175   54.8495 C   0  0  0  0  0  0  0  0  0  0  0  0
   24.3000    7.5484   54.5428 C   0  0  0  0  0  0  0  0  0  0  0  0
   23.3381    8.2851   53.9418 C   0  0  0  0  0  0  0  0  0  0  0  0
   22.1116    7.6654   53.5559 C   0  0  0  0  0  0  0  0  0  0  0  0
   25.6386    7.9619   54.5612 C   0  0  0  0  0  0  0  0  0  0  0  0
   26.4777    7.6002   53.3825 C   0  0  0  0  0  0  0  0  0  0  0  0
   27.7562    8.1321   53.4232 C   0  0  0  0  0  0  0  0  0  0  0  0
   28.3024    8.8826   54.3991 C   0  0  0  0  0  0  0  0  0  0  0  0
   29.3790    9.6204   54.2726 F   0  0  0  0  0  0  0  0  0  0  0  0
   27.4850    9.1653   55.5463 C   0  0  0  0  0  0  0  0  0  0  0  0
   26.2362    8.6837   55.4823 C   0  0  0  0  0  0  0  0  0  0  0  0
   25.4415    8.8241   56.7186 F   0  0  0  0  0  0  0  0  0  0  0  0
   20.2022    4.6581   53.4440 C   0  0  0  0  0  0  0  0  0  0  0  0
   20.4253    3.8076   52.2225 C   0  0  0  0  0  0  0  0  0  0  0  0
   20.2046    2.3588   52.6420 C   0  0  0  0  0  0  0  0  0  0  0  0
   18.8665    2.1550   53.2960 C   0  0  0  0  0  0  0  0  0  0  0  0
   18.5927    3.1253   54.4122 C   0  0  0  0  0  0  0  0  0  0  0  0
   18.7763    4.5417   53.8346 C   0  0  0  0  0  0  0  0  0  0  0  0
   21.0975    9.4202   52.0364 C   0  0  0  0  0  0  0  0  0  0  0  0
   23.5380   11.0014   55.8756 C   0  0  0  0  0  0  0  0  0  0  0  0
   22.2844   11.0299   55.0473 C   0  0  0  0  0  0  0  0  0  0  0  0
   22.5678   10.7455   53.5545 C   0  0  0  0  0  0  0  0  0  0  0  0
   21.3240   10.3649   53.1224 N   0  0  0  0  0  0  0  0  0  0  0  0
   20.5242    9.9730   54.2866 C   0  0  0  0  0  0  0  0  0  0  0  0
   19.8101    8.6697   54.1954 C   0  0  0  0  0  0  0  0  0  0  0  0
   21.4086    9.9859   55.3634 O   0  0  0  0  0  0  0  0  0  0  0  0
 25 26  1  0  0  0
 26 27  1  0  0  0
 27 28  1  0  0  0
 28 24  1  0  0  0
 24  1  1  0  0  0
  1  2  2  0  0  0
  2  3  1  0  0  0
  3 18  1  0  0  0
 18 19  1  0  0  0
 19 20  1  0  0  0
 20 21  1  0  0  0
 21 22  1  0  0  0
 22 23  1  0  0  0
  3  4  1  0  0  0
  4  5  2  0  0  0
  5  6  1  0  0  0
  6  7  2  0  0  0
  7  8  1  0  0  0
  8  9  2  0  0  0
  7 10  1  0  0  0
 10 11  2  0  0  0
 11 12  1  0  0  0
 12 13  2  0  0  0
 13 14  1  0  0  0
 13 15  1  0  0  0
 15 16  2  0  0  0
 16 17  1  0  0  0
 28 29  1  0  0  0
 29 30  1  0  0  0
 29 31  1  0  0  0
 31 26  1  0  0  0
  9  1  1  0  0  0
 16 10  1  0  0  0
 23 18  1  0  0  0
  9  4  1  0  0  0
M  END
> <minimizedAffinity>
30.54364

> <CNNscore>
0.5137637258

> <CNNaffinity>
6.7528433800

> <CNN_VS>
3.4693660736

> <CNNaffinity_variance>
0.4374280572

$$$$
[H]c1c([H])c(-c2nc(-c3c([H])c(C([H])([H])[H])nc(C([H])([H])[H])c3[H])c3n2C([H])([H])[C@@]([H])(C([H])([H])[H])OC([H])([H])C3([H])[H])c([H])c(Cl)c1OC(F)(F)F


 31 34  0  0  0  0  0  0  0  0999 V2000
   20.7437   10.5454   56.1293 C   0  0  0  0  0  0  0  0  0  0  0  0
   20.6475   10.7117   54.6281 C   0  0  0  0  0  0  0  0  0  0  0  0
   20.6544    9.3683   53.9392 C   0  0  0  0  0  0  0  0  0  0  0  0
   21.8515    8.6247   54.0660 N   0  0  0  0  0  0  0  0  0  0  0  0
   23.1149    9.1045   54.3284 C   0  0  0  0  0  0  0  0  0  0  0  0
   23.4916   10.5202   54.4664 C   0  0  0  0  0  0  0  0  0  0  0  0
   22.6108   11.3076   53.5096 C   0  0  0  0  0  0  0  0  0  0  0  0
   21.4906   11.6563   54.2063 O   0  0  0  0  0  0  0  0  0  0  0  0
   23.9915    8.0652   54.4249 C   0  0  0  0  0  0  0  0  0  0  0  0
   23.2753    6.9791   54.2234 N   0  0  0  0  0  0  0  0  0  0  0  0
   21.9722    7.3035   54.0020 C   0  0  0  0  0  0  0  0  0  0  0  0
   25.4414    8.1834   54.7007 C   0  0  0  0  0  0  0  0  0  0  0  0
   25.9395    8.9161   55.7566 C   0  0  0  0  0  0  0  0  0  0  0  0
   27.2748    9.0401   56.0315 C   0  0  0  0  0  0  0  0  0  0  0  0
   27.7961    9.8368   57.1780 C   0  0  0  0  0  0  0  0  0  0  0  0
   28.1360    8.4043   55.2152 N   0  0  0  0  0  0  0  0  0  0  0  0
   27.7169    7.6698   54.1629 C   0  0  0  0  0  0  0  0  0  0  0  0
   28.7590    7.0160   53.3354 C   0  0  0  0  0  0  0  0  0  0  0  0
   26.3687    7.5510   53.8940 C   0  0  0  0  0  0  0  0  0  0  0  0
   20.9868    6.2473   53.7748 C   0  0  0  0  0  0  0  0  0  0  0  0
   19.6374    6.5964   53.8767 C   0  0  0  0  0  0  0  0  0  0  0  0
   18.6458    5.6587   53.7227 C   0  0  0  0  0  0  0  0  0  0  0  0
   18.9285    4.3396   53.4624 C   0  0  0  0  0  0  0  0  0  0  0  0
   20.2479    3.9878   53.3612 C   0  0  0  0  0  0  0  0  0  0  0  0
   20.6830    2.3115   53.0240 Cl  0  0  0  0  0  0  0  0  0  0  0  0
   21.2621    4.9353   53.5173 C   0  0  0  0  0  0  0  0  0  0  0  0
   17.9001    3.4316   53.3142 O   0  0  0  0  0  0  0  0  0  0  0  0
   16.6778    3.6471   53.9865 C   0  0  0  0  0  0  0  0  0  0  0  0
   16.8610    3.4576   55.3571 F   0  0  0  0  0  0  0  0  0  0  0  0
   16.1413    4.8823   53.7513 F   0  0  0  0  0  0  0  0  0  0  0  0
   15.7765    2.6974   53.5378 F   0  0  0  0  0  0  0  0  0  0  0  0
  1  2  1  0  0  0
  2  3  1  0  0  0
  3  4  1  0  0  0
  4  5  1  0  0  0
  5  6  1  0  0  0
  6  7  1  0  0  0
  7  8  1  0  0  0
  5  9  2  0  0  0
  9 10  1  0  0  0
 10 11  2  0  0  0
 11 20  1  0  0  0
 20 21  2  0  0  0
 21 22  1  0  0  0
 22 23  2  0  0  0
 23 27  1  0  0  0
 27 28  1  0  0  0
 28 29  1  0  0  0
 28 30  1  0  0  0
 28 31  1  0  0  0
 23 24  1  0  0  0
 24 25  1  0  0  0
 24 26  2  0  0  0
  9 12  1  0  0  0
 12 13  2  0  0  0
 13 14  1  0  0  0
 14 15  1  0  0  0
 14 16  2  0  0  0
 16 17  1  0  0  0
 17 18  1  0  0  0
 17 19  2  0  0  0
  8  2  1  0  0  0
 26 20  1  0  0  0
 19 12  1  0  0  0
 11  4  1  0  0  0
M  END
> <minimizedAffinity>
32.35233

> <CNNscore>
0.5041473508

> <CNNaffinity>
6.5262017250

> <CNN_VS>
3.2901673317

> <CNNaffinity_variance>
0.5229288340

$$$$
[H]c1c([H])c(-c2nc(-c3c([H])c(C([H])([H])[H])nc(C([H])([H])[H])c3[H])c3n2C([H])([H])[C@@]([H])(C([H])([H])[H])OC([H])([H])C3([H])[H])c([H])c(Cl)c1OC(F)(F)F


 31 34  0  0  0  0  0  0  0  0999 V2000
   20.7460   10.5592   56.1118 C   0  0  0  0  0  0  0  0  0  0  0  0
   20.6542   10.7190   54.6096 C   0  0  0  0  0  0  0  0  0  0  0  0
   20.6618    9.3726   53.9267 C   0  0  0  0  0  0  0  0  0  0  0  0
   21.8578    8.6284   54.0602 N   0  0  0  0  0  0  0  0  0  0  0  0
   23.1210    9.1083   54.3242 C   0  0  0  0  0  0  0  0  0  0  0  0
   23.4986   10.5242   54.4569 C   0  0  0  0  0  0  0  0  0  0  0  0
   22.6212   11.3082   53.4941 C   0  0  0  0  0  0  0  0  0  0  0  0
   21.4994   11.6609   54.1860 O   0  0  0  0  0  0  0  0  0  0  0  0
   23.9963    8.0686   54.4278 C   0  0  0  0  0  0  0  0  0  0  0  0
   23.2797    6.9823   54.2290 N   0  0  0  0  0  0  0  0  0  0  0  0
   21.9775    7.3069   54.0025 C   0  0  0  0  0  0  0  0  0  0  0  0
   25.4456    8.1866   54.7072 C   0  0  0  0  0  0  0  0  0  0  0  0
   26.4036    7.5604   53.9393 C   0  0  0  0  0  0  0  0  0  0  0  0
   27.7483    7.6546   54.1778 C   0  0  0  0  0  0  0  0  0  0  0  0
   28.7709    6.9703   53.3369 C   0  0  0  0  0  0  0  0  0  0  0  0
   28.1398    8.4048   55.2248 N   0  0  0  0  0  0  0  0  0  0  0  0
   27.2551    9.0455   56.0182 C   0  0  0  0  0  0  0  0  0  0  0  0
   27.8056    9.8421   57.1409 C   0  0  0  0  0  0  0  0  0  0  0  0
   25.9016    8.9443   55.7695 C   0  0  0  0  0  0  0  0  0  0  0  0
   20.9918    6.2506   53.7770 C   0  0  0  0  0  0  0  0  0  0  0  0
   19.6426    6.5991   53.8834 C   0  0  0  0  0  0  0  0  0  0  0  0
   18.6508    5.6612   53.7314 C   0  0  0  0  0  0  0  0  0  0  0  0
   18.9332    4.3425   53.4689 C   0  0  0  0  0  0  0  0  0  0  0  0
   20.2524    3.9913   53.3633 C   0  0  0  0  0  0  0  0  0  0  0  0
   20.6870    2.3154   53.0230 Cl  0  0  0  0  0  0  0  0  0  0  0  0
   21.2668    4.9389   53.5173 C   0  0  0  0  0  0  0  0  0  0  0  0
   17.9047    3.4343   53.3228 O   0  0  0  0  0  0  0  0  0  0  0  0
   16.6794    3.6561   53.9876 C   0  0  0  0  0  0  0  0  0  0  0  0
   16.8509    3.4559   55.3582 F   0  0  0  0  0  0  0  0  0  0  0  0
   16.1555    4.8975   53.7568 F   0  0  0  0  0  0  0  0  0  0  0  0
   15.7732    2.7174   53.5260 F   0  0  0  0  0  0  0  0  0  0  0  0
  1  2  1  0  0  0
  2  3  1  0  0  0
  3  4  1  0  0  0
  4  5  1  0  0  0
  5  6  1  0  0  0
  6  7  1  0  0  0
  7  8  1  0  0  0
  5  9  2  0  0  0
  9 10  1  0  0  0
 10 11  2  0  0  0
 11 20  1  0  0  0
 20 21  2  0  0  0
 21 22  1  0  0  0
 22 23  2  0  0  0
 23 27  1  0  0  0
 27 28  1  0  0  0
 28 29  1  0  0  0
 28 30  1  0  0  0
 28 31  1  0  0  0
 23 24  1  0  0  0
 24 25  1  0  0  0
 24 26  2  0  0  0
  9 12  1  0  0  0
 12 13  2  0  0  0
 13 14  1  0  0  0
 14 15  1  0  0  0
 14 16  2  0  0  0
 16 17  1  0  0  0
 17 18  1  0  0  0
 17 19  2  0  0  0
  8  2  1  0  0  0
 26 20  1  0  0  0
 19 12  1  0  0  0
 11  4  1  0  0  0
M  END
> <minimizedAffinity>
32.44717

> <CNNscore>
0.5035173297

> <CNNaffinity>
6.5230765343

> <CNN_VS>
3.2844820023

> <CNNaffinity_variance>
0.5239886045

$$$$
[H]c1c([H])c(-c2nc(-c3c([H])c(C([H])([H])[H])nc(C([H])([H])[H])c3[H])c3n2C([H])([H])[C@@]([H])(C([H])([H])[H])OC([H])([H])C3([H])[H])c([H])c(Cl)c1OC(F)(F)F


 31 34  0  0  0  0  0  0  0  0999 V2000
   24.2336    6.3106   54.3445 C   0  0  0  0  0  0  0  0  0  0  0  0
   23.7684    7.6500   53.8154 C   0  0  0  0  0  0  0  0  0  0  0  0
   24.8666    8.3260   53.0304 C   0  0  0  0  0  0  0  0  0  0  0  0
   26.0095    8.6976   53.7773 N   0  0  0  0  0  0  0  0  0  0  0  0
   26.0879    8.9343   55.1313 C   0  0  0  0  0  0  0  0  0  0  0  0
   24.9634    8.9128   56.0802 C   0  0  0  0  0  0  0  0  0  0  0  0
   23.7438    9.4273   55.3324 C   0  0  0  0  0  0  0  0  0  0  0  0
   23.1416    8.3393   54.7709 O   0  0  0  0  0  0  0  0  0  0  0  0
   27.3760    9.2174   55.4756 C   0  0  0  0  0  0  0  0  0  0  0  0
   28.0631    9.1555   54.3544 N   0  0  0  0  0  0  0  0  0  0  0  0
   27.2453    8.8421   53.3126 C   0  0  0  0  0  0  0  0  0  0  0  0
   27.8551    9.5251   56.8424 C   0  0  0  0  0  0  0  0  0  0  0  0
   27.9159   10.8104   57.3365 C   0  0  0  0  0  0  0  0  0  0  0  0
   28.3549   11.1195   58.5958 C   0  0  0  0  0  0  0  0  0  0  0  0
   28.4141   12.5156   59.1139 C   0  0  0  0  0  0  0  0  0  0  0  0
   28.7451   10.0992   59.3826 N   0  0  0  0  0  0  0  0  0  0  0  0
   28.7116    8.8167   58.9626 C   0  0  0  0  0  0  0  0  0  0  0  0
   29.1665    7.7789   59.9188 C   0  0  0  0  0  0  0  0  0  0  0  0
   28.2674    8.5153   57.6914 C   0  0  0  0  0  0  0  0  0  0  0  0
   27.8010    8.6981   51.9677 C   0  0  0  0  0  0  0  0  0  0  0  0
   27.7688    9.8214   51.1368 C   0  0  0  0  0  0  0  0  0  0  0  0
   28.2281    9.7640   49.8438 C   0  0  0  0  0  0  0  0  0  0  0  0
   28.7389    8.6075   49.3058 C   0  0  0  0  0  0  0  0  0  0  0  0
   28.7741    7.5014   50.1122 C   0  0  0  0  0  0  0  0  0  0  0  0
   29.4214    5.9836   49.4873 Cl  0  0  0  0  0  0  0  0  0  0  0  0
   28.3083    7.5515   51.4278 C   0  0  0  0  0  0  0  0  0  0  0  0
   29.1901    8.5957   48.0019 O   0  0  0  0  0  0  0  0  0  0  0  0
   28.4128    9.1995   46.9900 C   0  0  0  0  0  0  0  0  0  0  0  0
   27.0593    9.0788   47.3086 F   0  0  0  0  0  0  0  0  0  0  0  0
   28.7290   10.5120   46.7755 F   0  0  0  0  0  0  0  0  0  0  0  0
   28.6410    8.5073   45.8134 F   0  0  0  0  0  0  0  0  0  0  0  0
  1  2  1  0  0  0
  2  3  1  0  0  0
  3  4  1  0  0  0
  4  5  1  0  0  0
  5  6  1  0  0  0
  6  7  1  0  0  0
  7  8  1  0  0  0
  5  9  2  0  0  0
  9 10  1  0  0  0
 10 11  2  0  0  0
 11 20  1  0  0  0
 20 21  2  0  0  0
 21 22  1  0  0  0
 22 23  2  0  0  0
 23 27  1  0  0  0
 27 28  1  0  0  0
 28 29  1  0  0  0
 28 30  1  0  0  0
 28 31  1  0  0  0
 23 24  1  0  0  0
 24 25  1  0  0  0
 24 26  2  0  0  0
  9 12  1  0  0  0
 12 13  2  0  0  0
 13 14  1  0  0  0
 14 15  1  0  0  0
 14 16  2  0  0  0
 16 17  1  0  0  0
 17 18  1  0  0  0
 17 19  2  0  0  0
  8  2  1  0  0  0
 26 20  1  0  0  0
 19 12  1  0  0  0
 11  4  1  0  0  0
M  END
> <minimizedAffinity>
39.07703

> <CNNscore>
0.4948368967

> <CNNaffinity>
5.7113351822

> <CNN_VS>
2.8261792660

> <CNNaffinity_variance>
0.5104891658

$$$$
[H]c1c([H])c(-c2nc(-c3c([H])c(C([H])([H])[H])nc(C([H])([H])[H])c3[H])c3n2C([H])([H])[C@@]([H])(C([H])([H])[H])OC([H])([H])C3([H])[H])c([H])c(Cl)c1OC(F)(F)F


 31 34  0  0  0  0  0  0  0  0999 V2000
   20.3168    7.1747   54.2010 C   0  0  0  0  0  0  0  0  0  0  0  0
   21.1701    6.9302   52.9753 C   0  0  0  0  0  0  0  0  0  0  0  0
   22.5409    7.5390   53.1474 C   0  0  0  0  0  0  0  0  0  0  0  0
   22.5737    8.9506   53.2387 N   0  0  0  0  0  0  0  0  0  0  0  0
   21.6400    9.8451   52.7659 C   0  0  0  0  0  0  0  0  0  0  0  0
   20.4309    9.5089   51.9976 C   0  0  0  0  0  0  0  0  0  0  0  0
   20.7773    8.3093   51.1302 C   0  0  0  0  0  0  0  0  0  0  0  0
   20.4814    7.1976   51.8639 O   0  0  0  0  0  0  0  0  0  0  0  0
   22.0090   11.1146   53.0976 C   0  0  0  0  0  0  0  0  0  0  0  0
   23.1427   10.9924   53.7556 N   0  0  0  0  0  0  0  0  0  0  0  0
   23.4997    9.6823   53.8480 C   0  0  0  0  0  0  0  0  0  0  0  0
   21.2570   12.3457   52.7641 C   0  0  0  0  0  0  0  0  0  0  0  0
   20.3131   12.8911   53.6075 C   0  0  0  0  0  0  0  0  0  0  0  0
   19.6056   14.0275   53.3213 C   0  0  0  0  0  0  0  0  0  0  0  0
   18.5880   14.6035   54.2453 C   0  0  0  0  0  0  0  0  0  0  0  0
   19.8583   14.6339   52.1462 N   0  0  0  0  0  0  0  0  0  0  0  0
   20.7694   14.1541   51.2733 C   0  0  0  0  0  0  0  0  0  0  0  0
   20.9608   14.9084   50.0113 C   0  0  0  0  0  0  0  0  0  0  0  0
   21.4775   13.0078   51.5710 C   0  0  0  0  0  0  0  0  0  0  0  0
   24.7208    9.3082   54.5602 C   0  0  0  0  0  0  0  0  0  0  0  0
   24.8668    9.7725   55.8703 C   0  0  0  0  0  0  0  0  0  0  0  0
   26.0011    9.5065   56.5976 C   0  0  0  0  0  0  0  0  0  0  0  0
   27.0419    8.7758   56.0775 C   0  0  0  0  0  0  0  0  0  0  0  0
   26.9082    8.3170   54.7943 C   0  0  0  0  0  0  0  0  0  0  0  0
   28.2047    7.3682   54.0650 Cl  0  0  0  0  0  0  0  0  0  0  0  0
   25.7583    8.5838   54.0480 C   0  0  0  0  0  0  0  0  0  0  0  0
   28.1626    8.5319   56.8447 O   0  0  0  0  0  0  0  0  0  0  0  0
   28.2300    9.0383   58.1606 C   0  0  0  0  0  0  0  0  0  0  0  0
   29.1818    8.3209   58.8869 F   0  0  0  0  0  0  0  0  0  0  0  0
   28.5105   10.3753   58.2122 F   0  0  0  0  0  0  0  0  0  0  0  0
   26.9957    8.8375   58.7535 F   0  0  0  0  0  0  0  0  0  0  0  0
  1  2  1  0  0  0
  2  3  1  0  0  0
  3  4  1  0  0  0
  4  5  1  0  0  0
  5  6  1  0  0  0
  6  7  1  0  0  0
  7  8  1  0  0  0
  5  9  2  0  0  0
  9 10  1  0  0  0
 10 11  2  0  0  0
 11 20  1  0  0  0
 20 21  2  0  0  0
 21 22  1  0  0  0
 22 23  2  0  0  0
 23 27  1  0  0  0
 27 28  1  0  0  0
 28 29  1  0  0  0
 28 30  1  0  0  0
 28 31  1  0  0  0
 23 24  1  0  0  0
 24 25  1  0  0  0
 24 26  2  0  0  0
  9 12  1  0  0  0
 12 13  2  0  0  0
 13 14  1  0  0  0
 14 15  1  0  0  0
 14 16  2  0  0  0
 16 17  1  0  0  0
 17 18  1  0  0  0
 17 19  2  0  0  0
  8  2  1  0  0  0
 26 20  1  0  0  0
 19 12  1  0  0  0
 11  4  1  0  0  0
M  END
> <minimizedAffinity>
35.24435

> <CNNscore>
0.4598200321

> <CNNaffinity>
5.9525918961

> <CNN_VS>
2.7371211052

> <CNNaffinity_variance>
0.1573198885

$$$$
[H]c1c([H])c(-c2nc(-c3c([H])c(C([H])([H])[H])nc(C([H])([H])[H])c3[H])c3n2C([H])([H])[C@@]([H])(C([H])([H])[H])OC([H])([H])C3([H])[H])c([H])c(Cl)c1OC(F)(F)F


 31 34  0  0  0  0  0  0  0  0999 V2000
   20.7900   10.8304   56.1825 C   0  0  0  0  0  0  0  0  0  0  0  0
   20.7237   10.9298   54.6739 C   0  0  0  0  0  0  0  0  0  0  0  0
   20.7713    9.5583   54.0446 C   0  0  0  0  0  0  0  0  0  0  0  0
   21.9793    8.8448   54.2289 N   0  0  0  0  0  0  0  0  0  0  0  0
   23.2273    9.3607   54.4969 C   0  0  0  0  0  0  0  0  0  0  0  0
   23.5738   10.7883   54.5809 C   0  0  0  0  0  0  0  0  0  0  0  0
   22.6994   11.5159   53.5722 C   0  0  0  0  0  0  0  0  0  0  0  0
   21.5577   11.8719   54.2291 O   0  0  0  0  0  0  0  0  0  0  0  0
   24.1211    8.3443   54.6572 C   0  0  0  0  0  0  0  0  0  0  0  0
   23.4303    7.2364   54.4882 N   0  0  0  0  0  0  0  0  0  0  0  0
   22.1265    7.5248   54.2253 C   0  0  0  0  0  0  0  0  0  0  0  0
   25.5621    8.5032   54.9582 C   0  0  0  0  0  0  0  0  0  0  0  0
   26.0185    9.1541   56.0841 C   0  0  0  0  0  0  0  0  0  0  0  0
   27.3447    9.3135   56.3836 C   0  0  0  0  0  0  0  0  0  0  0  0
   27.8207   10.0205   57.6062 C   0  0  0  0  0  0  0  0  0  0  0  0
   28.2401    8.7997   55.5195 N   0  0  0  0  0  0  0  0  0  0  0  0
   27.8626    8.1504   54.3978 C   0  0  0  0  0  0  0  0  0  0  0  0
   28.9396    7.6281   53.5228 C   0  0  0  0  0  0  0  0  0  0  0  0
   26.5232    7.9948   54.1047 C   0  0  0  0  0  0  0  0  0  0  0  0
   21.1666    6.4403   54.0236 C   0  0  0  0  0  0  0  0  0  0  0  0
   21.6821    5.1680   53.7617 C   0  0  0  0  0  0  0  0  0  0  0  0
   20.8534    4.1008   53.5157 C   0  0  0  0  0  0  0  0  0  0  0  0
   19.4855    4.2294   53.5148 C   0  0  0  0  0  0  0  0  0  0  0  0
   18.9710    5.4724   53.7700 C   0  0  0  0  0  0  0  0  0  0  0  0
   17.2225    5.7085   53.7887 Cl  0  0  0  0  0  0  0  0  0  0  0  0
   19.8070    6.5628   54.0202 C   0  0  0  0  0  0  0  0  0  0  0  0
   18.6910    3.1295   53.2635 O   0  0  0  0  0  0  0  0  0  0  0  0
   19.0265    2.2539   52.2084 C   0  0  0  0  0  0  0  0  0  0  0  0
   19.1938    2.9859   51.0318 F   0  0  0  0  0  0  0  0  0  0  0  0
   20.1439    1.5074   52.4593 F   0  0  0  0  0  0  0  0  0  0  0  0
   17.9643    1.3854   52.0271 F   0  0  0  0  0  0  0  0  0  0  0  0
  1  2  1  0  0  0
  2  3  1  0  0  0
  3  4  1  0  0  0
  4  5  1  0  0  0
  5  6  1  0  0  0
  6  7  1  0  0  0
  7  8  1  0  0  0
  5  9  2  0  0  0
  9 10  1  0  0  0
 10 11  2  0  0  0
 11 20  1  0  0  0
 20 21  2  0  0  0
 21 22  1  0  0  0
 22 23  2  0  0  0
 23 27  1  0  0  0
 27 28  1  0  0  0
 28 29  1  0  0  0
 28 30  1  0  0  0
 28 31  1  0  0  0
 23 24  1  0  0  0
 24 25  1  0  0  0
 24 26  2  0  0  0
  9 12  1  0  0  0
 12 13  2  0  0  0
 13 14  1  0  0  0
 14 15  1  0  0  0
 14 16  2  0  0  0
 16 17  1  0  0  0
 17 18  1  0  0  0
 17 19  2  0  0  0
  8  2  1  0  0  0
 26 20  1  0  0  0
 19 12  1  0  0  0
 11  4  1  0  0  0
M  END
> <minimizedAffinity>
41.61209

> <CNNscore>
0.4372184277

> <CNNaffinity>
6.3448338509

> <CNN_VS>
2.7740783691

> <CNNaffinity_variance>
0.4587060809

$$$$
[H]c1c([H])c(-c2nc(-c3c([H])c(C([H])([H])[H])nc(C([H])([H])[H])c3[H])c3n2C([H])([H])[C@@]([H])(C([H])([H])[H])OC([H])([H])C3([H])[H])c([H])c(Cl)c1OC(F)(F)F


 31 34  0  0  0  0  0  0  0  0999 V2000
   24.8896    6.7844   53.0582 C   0  0  0  0  0  0  0  0  0  0  0  0
   24.4350    6.8370   54.5007 C   0  0  0  0  0  0  0  0  0  0  0  0
   22.9484    6.5942   54.6025 C   0  0  0  0  0  0  0  0  0  0  0  0
   22.1275    7.5829   54.0103 N   0  0  0  0  0  0  0  0  0  0  0  0
   22.4448    8.8990   53.7602 C   0  0  0  0  0  0  0  0  0  0  0  0
   23.7017    9.5709   54.1264 C   0  0  0  0  0  0  0  0  0  0  0  0
   24.1637    8.9596   55.4396 C   0  0  0  0  0  0  0  0  0  0  0  0
   24.9582    7.8978   55.1186 O   0  0  0  0  0  0  0  0  0  0  0  0
   21.4030    9.5124   53.1307 C   0  0  0  0  0  0  0  0  0  0  0  0
   20.4737    8.5886   53.0037 N   0  0  0  0  0  0  0  0  0  0  0  0
   20.8991    7.4103   53.5355 C   0  0  0  0  0  0  0  0  0  0  0  0
   21.3701   10.9282   52.6986 C   0  0  0  0  0  0  0  0  0  0  0  0
   22.0706   11.3874   51.6040 C   0  0  0  0  0  0  0  0  0  0  0  0
   22.0557   12.6906   51.1854 C   0  0  0  0  0  0  0  0  0  0  0  0
   22.8196   13.1700   49.9989 C   0  0  0  0  0  0  0  0  0  0  0  0
   21.3102   13.5594   51.8937 N   0  0  0  0  0  0  0  0  0  0  0  0
   20.5994   13.1777   52.9761 C   0  0  0  0  0  0  0  0  0  0  0  0
   19.8160   14.2243   53.6753 C   0  0  0  0  0  0  0  0  0  0  0  0
   20.6208   11.8615   53.3901 C   0  0  0  0  0  0  0  0  0  0  0  0
   20.0327    6.2334   53.4858 C   0  0  0  0  0  0  0  0  0  0  0  0
   18.6763    6.4233   53.7639 C   0  0  0  0  0  0  0  0  0  0  0  0
   17.7988    5.3669   53.7835 C   0  0  0  0  0  0  0  0  0  0  0  0
   18.2075    4.0794   53.5323 C   0  0  0  0  0  0  0  0  0  0  0  0
   19.5348    3.8833   53.2592 C   0  0  0  0  0  0  0  0  0  0  0  0
   20.1276    2.2558   52.9230 Cl  0  0  0  0  0  0  0  0  0  0  0  0
   20.4336    4.9521   53.2382 C   0  0  0  0  0  0  0  0  0  0  0  0
   17.2909    3.0483   53.5617 O   0  0  0  0  0  0  0  0  0  0  0  0
   15.9483    3.3189   53.9032 C   0  0  0  0  0  0  0  0  0  0  0  0
   15.8594    3.5774   55.2719 F   0  0  0  0  0  0  0  0  0  0  0  0
   15.4078    4.3552   53.1941 F   0  0  0  0  0  0  0  0  0  0  0  0
   15.2066    2.1825   53.6312 F   0  0  0  0  0  0  0  0  0  0  0  0
  1  2  1  0  0  0
  2  3  1  0  0  0
  3  4  1  0  0  0
  4  5  1  0  0  0
  5  6  1  0  0  0
  6  7  1  0  0  0
  7  8  1  0  0  0
  5  9  2  0  0  0
  9 10  1  0  0  0
 10 11  2  0  0  0
 11 20  1  0  0  0
 20 21  2  0  0  0
 21 22  1  0  0  0
 22 23  2  0  0  0
 23 27  1  0  0  0
 27 28  1  0  0  0
 28 29  1  0  0  0
 28 30  1  0  0  0
 28 31  1  0  0  0
 23 24  1  0  0  0
 24 25  1  0  0  0
 24 26  2  0  0  0
  9 12  1  0  0  0
 12 13  2  0  0  0
 13 14  1  0  0  0
 14 15  1  0  0  0
 14 16  2  0  0  0
 16 17  1  0  0  0
 17 18  1  0  0  0
 17 19  2  0  0  0
  8  2  1  0  0  0
 26 20  1  0  0  0
 19 12  1  0  0  0
 11  4  1  0  0  0
M  END
> <minimizedAffinity>
40.79902

> <CNNscore>
0.4118255079

> <CNNaffinity>
6.1941518784

> <CNN_VS>
2.5509097576

> <CNNaffinity_variance>
0.5456255078

$$$$
[H]c1c([H])c(-c2nc(-c3c([H])c(C([H])([H])[H])nc(C([H])([H])[H])c3[H])c3n2C([H])([H])[C@@]([H])(C([H])([H])[H])OC([H])([H])C3([H])[H])c([H])c(Cl)c1OC(F)(F)F


 31 34  0  0  0  0  0  0  0  0999 V2000
   29.0505    7.3164   55.0567 C   0  0  0  0  0  0  0  0  0  0  0  0
   28.4375    8.6194   55.5223 C   0  0  0  0  0  0  0  0  0  0  0  0
   27.0032    8.7299   55.0642 C   0  0  0  0  0  0  0  0  0  0  0  0
   26.8153    8.8124   53.6642 N   0  0  0  0  0  0  0  0  0  0  0  0
   27.7197    9.2413   52.7189 C   0  0  0  0  0  0  0  0  0  0  0  0
   29.0654    9.7726   52.9870 C   0  0  0  0  0  0  0  0  0  0  0  0
   28.9867   10.5341   54.3005 C   0  0  0  0  0  0  0  0  0  0  0  0
   29.2682    9.6376   55.2898 O   0  0  0  0  0  0  0  0  0  0  0  0
   27.1767    9.1219   51.4744 C   0  0  0  0  0  0  0  0  0  0  0  0
   25.9687    8.6331   51.6614 N   0  0  0  0  0  0  0  0  0  0  0  0
   25.7339    8.4413   52.9882 C   0  0  0  0  0  0  0  0  0  0  0  0
   27.8464    9.4813   50.2037 C   0  0  0  0  0  0  0  0  0  0  0  0
   28.0090   10.7869   49.7930 C   0  0  0  0  0  0  0  0  0  0  0  0
   28.6243   11.1437   48.6234 C   0  0  0  0  0  0  0  0  0  0  0  0
   28.7916   12.5612   48.1947 C   0  0  0  0  0  0  0  0  0  0  0  0
   29.0910   10.1515   47.8423 N   0  0  0  0  0  0  0  0  0  0  0  0
   28.9657    8.8514   48.1835 C   0  0  0  0  0  0  0  0  0  0  0  0
   29.5191    7.8480   47.2427 C   0  0  0  0  0  0  0  0  0  0  0  0
   28.3438    8.5019   49.3647 C   0  0  0  0  0  0  0  0  0  0  0  0
   24.4564    7.8826   53.4289 C   0  0  0  0  0  0  0  0  0  0  0  0
   24.2896    6.4993   53.3198 C   0  0  0  0  0  0  0  0  0  0  0  0
   23.1065    5.8952   53.6684 C   0  0  0  0  0  0  0  0  0  0  0  0
   22.0349    6.6152   54.1386 C   0  0  0  0  0  0  0  0  0  0  0  0
   22.1887    7.9714   54.2484 C   0  0  0  0  0  0  0  0  0  0  0  0
   20.8545    8.9572   54.8494 Cl  0  0  0  0  0  0  0  0  0  0  0  0
   23.3883    8.5933   53.8953 C   0  0  0  0  0  0  0  0  0  0  0  0
   20.8653    5.9664   54.4778 O   0  0  0  0  0  0  0  0  0  0  0  0
   19.8480    5.8129   53.5113 C   0  0  0  0  0  0  0  0  0  0  0  0
   19.5708    4.4558   53.3392 F   0  0  0  0  0  0  0  0  0  0  0  0
   18.7015    6.4904   53.8202 F   0  0  0  0  0  0  0  0  0  0  0  0
   20.3275    6.3093   52.3117 F   0  0  0  0  0  0  0  0  0  0  0  0
  1  2  1  0  0  0
  2  3  1  0  0  0
  3  4  1  0  0  0
  4  5  1  0  0  0
  5  6  1  0  0  0
  6  7  1  0  0  0
  7  8  1  0  0  0
  5  9  2  0  0  0
  9 10  1  0  0  0
 10 11  2  0  0  0
 11 20  1  0  0  0
 20 21  2  0  0  0
 21 22  1  0  0  0
 22 23  2  0  0  0
 23 27  1  0  0  0
 27 28  1  0  0  0
 28 29  1  0  0  0
 28 30  1  0  0  0
 28 31  1  0  0  0
 23 24  1  0  0  0
 24 25  1  0  0  0
 24 26  2  0  0  0
  9 12  1  0  0  0
 12 13  2  0  0  0
 13 14  1  0  0  0
 14 15  1  0  0  0
 14 16  2  0  0  0
 16 17  1  0  0  0
 17 18  1  0  0  0
 17 19  2  0  0  0
  8  2  1  0  0  0
 26 20  1  0  0  0
 19 12  1  0  0  0
 11  4  1  0  0  0
M  END
> <minimizedAffinity>
36.04761

> <CNNscore>
0.4034681618

> <CNNaffinity>
5.8526253700

> <CNN_VS>
2.3613479137

> <CNNaffinity_variance>
0.0314034373

$$$$
[H]c1c([H])c(-c2nc(-c3c([H])c(C([H])([H])[H])nc(C([H])([H])[H])c3[H])c3n2C([H])([H])[C@@]([H])(C([H])([H])[H])OC([H])([H])C3([H])[H])c([H])c(Cl)c1OC(F)(F)F


 31 34  0  0  0  0  0  0  0  0999 V2000
   29.0014    7.3659   55.1685 C   0  0  0  0  0  0  0  0  0  0  0  0
   28.3770    8.6712   55.6119 C   0  0  0  0  0  0  0  0  0  0  0  0
   26.9462    8.7677   55.1397 C   0  0  0  0  0  0  0  0  0  0  0  0
   26.7703    8.8313   53.7372 N   0  0  0  0  0  0  0  0  0  0  0  0
   27.6807    9.2531   52.7945 C   0  0  0  0  0  0  0  0  0  0  0  0
   29.0210    9.7955   53.0676 C   0  0  0  0  0  0  0  0  0  0  0  0
   28.9264   10.5733   54.3705 C   0  0  0  0  0  0  0  0  0  0  0  0
   29.2041    9.6911   55.3737 O   0  0  0  0  0  0  0  0  0  0  0  0
   27.1495    9.1148   51.5469 C   0  0  0  0  0  0  0  0  0  0  0  0
   25.9426    8.6216   51.7295 N   0  0  0  0  0  0  0  0  0  0  0  0
   25.6971    8.4454   53.0565 C   0  0  0  0  0  0  0  0  0  0  0  0
   27.8285    9.4617   50.2777 C   0  0  0  0  0  0  0  0  0  0  0  0
   28.3302    8.5078   49.4186 C   0  0  0  0  0  0  0  0  0  0  0  0
   28.9613    8.8038   48.2405 C   0  0  0  0  0  0  0  0  0  0  0  0
   29.4980    7.7590   47.3232 C   0  0  0  0  0  0  0  0  0  0  0  0
   29.0909   10.1045   47.9181 N   0  0  0  0  0  0  0  0  0  0  0  0
   28.6230   11.0901   48.7131 C   0  0  0  0  0  0  0  0  0  0  0  0
   28.8245   12.4848   48.2523 C   0  0  0  0  0  0  0  0  0  0  0  0
   27.9881   10.7814   49.8987 C   0  0  0  0  0  0  0  0  0  0  0  0
   24.4189    7.8851   53.4930 C   0  0  0  0  0  0  0  0  0  0  0  0
   24.2271    6.5120   53.3175 C   0  0  0  0  0  0  0  0  0  0  0  0
   23.0407    5.9095   53.6580 C   0  0  0  0  0  0  0  0  0  0  0  0
   21.9902    6.6215   54.1845 C   0  0  0  0  0  0  0  0  0  0  0  0
   22.1685    7.9677   54.3597 C   0  0  0  0  0  0  0  0  0  0  0  0
   20.8622    8.9425   55.0353 Cl  0  0  0  0  0  0  0  0  0  0  0  0
   23.3715    8.5879   54.0153 C   0  0  0  0  0  0  0  0  0  0  0  0
   20.8164    5.9747   54.5131 O   0  0  0  0  0  0  0  0  0  0  0  0
   19.8218    5.7925   53.5281 C   0  0  0  0  0  0  0  0  0  0  0  0
   19.5683    4.4292   53.3696 F   0  0  0  0  0  0  0  0  0  0  0  0
   18.6593    6.4569   53.8037 F   0  0  0  0  0  0  0  0  0  0  0  0
   20.3189    6.2794   52.3317 F   0  0  0  0  0  0  0  0  0  0  0  0
  1  2  1  0  0  0
  2  3  1  0  0  0
  3  4  1  0  0  0
  4  5  1  0  0  0
  5  6  1  0  0  0
  6  7  1  0  0  0
  7  8  1  0  0  0
  5  9  2  0  0  0
  9 10  1  0  0  0
 10 11  2  0  0  0
 11 20  1  0  0  0
 20 21  2  0  0  0
 21 22  1  0  0  0
 22 23  2  0  0  0
 23 27  1  0  0  0
 27 28  1  0  0  0
 28 29  1  0  0  0
 28 30  1  0  0  0
 28 31  1  0  0  0
 23 24  1  0  0  0
 24 25  1  0  0  0
 24 26  2  0  0  0
  9 12  1  0  0  0
 12 13  2  0  0  0
 13 14  1  0  0  0
 14 15  1  0  0  0
 14 16  2  0  0  0
 16 17  1  0  0  0
 17 18  1  0  0  0
 17 19  2  0  0  0
  8  2  1  0  0  0
 26 20  1  0  0  0
 19 12  1  0  0  0
 11  4  1  0  0  0
M  END
> <minimizedAffinity>
35.87745

> <CNNscore>
0.3986657262

> <CNNaffinity>
5.8463516235

> <CNN_VS>
2.3307399750

> <CNNaffinity_variance>
0.0359307453

$$$$
[H]c1c([H])c(-c2nc(-c3c([H])c(C([H])([H])[H])nc(C([H])([H])[H])c3[H])c3n2C([H])([H])[C@@]([H])(C([H])([H])[H])OC([H])([H])C3([H])[H])c([H])c(Cl)c1OC(F)(F)F


 31 34  0  0  0  0  0  0  0  0999 V2000
   27.5119    9.6106   51.9092 C   0  0  0  0  0  0  0  0  0  0  0  0
   27.3924    8.1326   52.2116 C   0  0  0  0  0  0  0  0  0  0  0  0
   26.1143    7.8412   52.9605 C   0  0  0  0  0  0  0  0  0  0  0  0
   26.0253    8.4037   54.2558 N   0  0  0  0  0  0  0  0  0  0  0  0
   27.0607    8.7834   55.0799 C   0  0  0  0  0  0  0  0  0  0  0  0
   28.4956    8.6154   54.8003 C   0  0  0  0  0  0  0  0  0  0  0  0
   28.6444    7.3243   54.0115 C   0  0  0  0  0  0  0  0  0  0  0  0
   28.5433    7.6580   52.6923 O   0  0  0  0  0  0  0  0  0  0  0  0
   26.5617    9.3299   56.2245 C   0  0  0  0  0  0  0  0  0  0  0  0
   25.2523    9.2808   56.0978 N   0  0  0  0  0  0  0  0  0  0  0  0
   24.9110    8.7185   54.9063 C   0  0  0  0  0  0  0  0  0  0  0  0
   27.3665    9.8564   57.3504 C   0  0  0  0  0  0  0  0  0  0  0  0
   27.3801   11.1912   57.6935 C   0  0  0  0  0  0  0  0  0  0  0  0
   28.1155   11.7012   58.7294 C   0  0  0  0  0  0  0  0  0  0  0  0
   28.1184   13.1480   59.0866 C   0  0  0  0  0  0  0  0  0  0  0  0
   28.8617   10.8369   59.4426 N   0  0  0  0  0  0  0  0  0  0  0  0
   28.8951    9.5170   59.1612 C   0  0  0  0  0  0  0  0  0  0  0  0
   29.7540    8.6638   60.0170 C   0  0  0  0  0  0  0  0  0  0  0  0
   28.1501    9.0126   58.1150 C   0  0  0  0  0  0  0  0  0  0  0  0
   23.5013    8.5819   54.5422 C   0  0  0  0  0  0  0  0  0  0  0  0
   22.7012    7.7834   55.3640 C   0  0  0  0  0  0  0  0  0  0  0  0
   21.3771    7.5638   55.0722 C   0  0  0  0  0  0  0  0  0  0  0  0
   20.7769    8.1143   53.9657 C   0  0  0  0  0  0  0  0  0  0  0  0
   21.5531    8.8978   53.1542 C   0  0  0  0  0  0  0  0  0  0  0  0
   20.8457    9.6401   51.7183 Cl  0  0  0  0  0  0  0  0  0  0  0  0
   22.9003    9.1253   53.4436 C   0  0  0  0  0  0  0  0  0  0  0  0
   19.4433    7.8675   53.7118 O   0  0  0  0  0  0  0  0  0  0  0  0
   19.0693    6.6850   53.0377 C   0  0  0  0  0  0  0  0  0  0  0  0
   19.9035    5.6391   53.4356 F   0  0  0  0  0  0  0  0  0  0  0  0
   17.7607    6.3415   53.2331 F   0  0  0  0  0  0  0  0  0  0  0  0
   19.2584    6.8941   51.6827 F   0  0  0  0  0  0  0  0  0  0  0  0
  1  2  1  0  0  0
  2  3  1  0  0  0
  3  4  1  0  0  0
  4  5  1  0  0  0
  5  6  1  0  0  0
  6  7  1  0  0  0
  7  8  1  0  0  0
  5  9  2  0  0  0
  9 10  1  0  0  0
 10 11  2  0  0  0
 11 20  1  0  0  0
 20 21  2  0  0  0
 21 22  1  0  0  0
 22 23  2  0  0  0
 23 27  1  0  0  0
 27 28  1  0  0  0
 28 29  1  0  0  0
 28 30  1  0  0  0
 28 31  1  0  0  0
 23 24  1  0  0  0
 24 25  1  0  0  0
 24 26  2  0  0  0
  9 12  1  0  0  0
 12 13  2  0  0  0
 13 14  1  0  0  0
 14 15  1  0  0  0
 14 16  2  0  0  0
 16 17  1  0  0  0
 17 18  1  0  0  0
 17 19  2  0  0  0
  8  2  1  0  0  0
 26 20  1  0  0  0
 19 12  1  0  0  0
 11  4  1  0  0  0
M  END
> <minimizedAffinity>
28.15917

> <CNNscore>
0.3955510855

> <CNNaffinity>
6.1568937302

> <CNN_VS>
2.4353659153

> <CNNaffinity_variance>
0.1890230626

$$$$
[H]c1nc2c(nc(C(F)(F)F)n2C([H])([H])C([H])([H])[H])c(Cl)c1N([H])C(=O)C([H])([H])C1([H])C([H])([H])C([H])([H])OC([H])([H])C1([H])[H]


 27 29  0  0  0  0  0  0  0  0999 V2000
   27.8282    8.9066   55.5059 N   0  0  0  0  0  0  0  0  0  0  0  0
   27.3142    9.2109   56.6770 C   0  0  0  0  0  0  0  0  0  0  0  0
   25.9651    9.0744   56.6880 N   0  0  0  0  0  0  0  0  0  0  0  0
   25.6026    8.6612   55.4512 C   0  0  0  0  0  0  0  0  0  0  0  0
   24.3760    8.4540   54.8920 C   0  0  0  0  0  0  0  0  0  0  0  0
   22.9103    8.5831   55.8081 Cl  0  0  0  0  0  0  0  0  0  0  0  0
   24.3450    8.1280   53.5242 C   0  0  0  0  0  0  0  0  0  0  0  0
   25.4905    8.0132   52.8188 C   0  0  0  0  0  0  0  0  0  0  0  0
   26.6974    8.2300   53.4146 N   0  0  0  0  0  0  0  0  0  0  0  0
   26.7659    8.5605   54.7270 C   0  0  0  0  0  0  0  0  0  0  0  0
   23.0280    8.0869   52.9489 N   0  0  0  0  0  0  0  0  0  0  0  0
   22.2375    9.2611   52.8026 C   0  0  0  0  0  0  0  0  0  0  0  0
   22.6584   10.3632   53.1015 O   0  0  0  0  0  0  0  0  0  0  0  0
   22.6732    7.1525   52.6451 H   0  0  0  0  0  0  0  0  0  0  0  0
   20.8510    9.0417   52.2920 C   0  0  0  0  0  0  0  0  0  0  0  0
   20.4908    7.6605   52.7305 C   0  0  0  0  0  0  0  0  0  0  0  0
   19.1297    7.1741   52.4961 C   0  0  0  0  0  0  0  0  0  0  0  0
   18.9161    6.0004   53.5131 C   0  0  0  0  0  0  0  0  0  0  0  0
   19.9332    5.0956   53.3964 O   0  0  0  0  0  0  0  0  0  0  0  0
   21.1834    5.5635   53.6698 C   0  0  0  0  0  0  0  0  0  0  0  0
   21.5235    6.5878   52.5667 C   0  0  0  0  0  0  0  0  0  0  0  0
   27.9878    9.6777   57.9010 C   0  0  0  0  0  0  0  0  0  0  0  0
   27.0799    9.4690   58.9636 F   0  0  0  0  0  0  0  0  0  0  0  0
   28.3243   10.9795   57.9814 F   0  0  0  0  0  0  0  0  0  0  0  0
   29.0593    8.8679   58.1793 F   0  0  0  0  0  0  0  0  0  0  0  0
   29.3789   10.1141   54.0637 C   0  0  0  0  0  0  0  0  0  0  0  0
   29.1788    8.9695   55.0635 C   0  0  0  0  0  0  0  0  0  0  0  0
 26 27  1  0  0  0
 27  1  1  0  0  0
  1  2  1  0  0  0
  2  3  2  0  0  0
  3  4  1  0  0  0
  4  5  2  0  0  0
  5  6  1  0  0  0
  5  7  1  0  0  0
  7 11  1  0  0  0
 11 12  1  0  0  0
 12 13  2  0  0  0
 12 15  1  0  0  0
 15 16  1  0  0  0
 16 17  1  0  0  0
 17 18  1  0  0  0
 18 19  1  0  0  0
 19 20  1  0  0  0
 20 21  1  0  0  0
  7  8  2  0  0  0
  8  9  1  0  0  0
  9 10  2  0  0  0
  2 22  1  0  0  0
 22 23  1  0  0  0
 22 24  1  0  0  0
 22 25  1  0  0  0
 10  1  1  0  0  0
 10  4  1  0  0  0
 21 16  1  0  0  0
 11 14  1  0  0  0
M  END
> <minimizedAffinity>
15.97480

> <CNNscore>
0.5026186109

> <CNNaffinity>
6.1416759491

> <CNN_VS>
3.0869207382

> <CNNaffinity_variance>
0.2578782141

$$$$
[H]c1nc2c(nc(C(F)(F)F)n2C([H])([H])C([H])([H])[H])c(Cl)c1N([H])C(=O)C([H])([H])C1([H])C([H])([H])C([H])([H])OC([H])([H])C1([H])[H]


 27 29  0  0  0  0  0  0  0  0999 V2000
   21.3285    8.2634   53.7846 N   0  0  0  0  0  0  0  0  0  0  0  0
   21.6120    8.1032   52.5109 C   0  0  0  0  0  0  0  0  0  0  0  0
   22.9482    8.1357   52.2824 N   0  0  0  0  0  0  0  0  0  0  0  0
   23.5466    8.3295   53.4808 C   0  0  0  0  0  0  0  0  0  0  0  0
   24.8542    8.5246   53.8160 C   0  0  0  0  0  0  0  0  0  0  0  0
   26.1308    8.4272   52.6478 Cl  0  0  0  0  0  0  0  0  0  0  0  0
   25.1312    8.8128   55.1644 C   0  0  0  0  0  0  0  0  0  0  0  0
   24.1347    8.8719   56.0735 C   0  0  0  0  0  0  0  0  0  0  0  0
   22.8394    8.6724   55.6977 N   0  0  0  0  0  0  0  0  0  0  0  0
   22.5325    8.4070   54.4048 C   0  0  0  0  0  0  0  0  0  0  0  0
   26.4970    9.1746   55.4303 N   0  0  0  0  0  0  0  0  0  0  0  0
   27.5862    8.4073   54.9303 C   0  0  0  0  0  0  0  0  0  0  0  0
   27.4175    7.4439   54.2061 O   0  0  0  0  0  0  0  0  0  0  0  0
   26.6560   10.0272   56.0127 H   0  0  0  0  0  0  0  0  0  0  0  0
   28.9407    8.8448   55.3832 C   0  0  0  0  0  0  0  0  0  0  0  0
   28.7151    9.4922   56.7097 C   0  0  0  0  0  0  0  0  0  0  0  0
   29.0663    8.7574   57.9266 C   0  0  0  0  0  0  0  0  0  0  0  0
   28.2336    9.4188   59.0785 C   0  0  0  0  0  0  0  0  0  0  0  0
   28.4389   10.7696   59.0815 O   0  0  0  0  0  0  0  0  0  0  0  0
   28.0560   11.4346   57.9555 C   0  0  0  0  0  0  0  0  0  0  0  0
   28.9901   10.9605   56.8223 C   0  0  0  0  0  0  0  0  0  0  0  0
   20.7027    7.9262   51.3657 C   0  0  0  0  0  0  0  0  0  0  0  0
   20.1459    9.1965   51.0948 F   0  0  0  0  0  0  0  0  0  0  0  0
   19.6440    7.1075   51.5182 F   0  0  0  0  0  0  0  0  0  0  0  0
   21.4246    7.6037   50.2449 F   0  0  0  0  0  0  0  0  0  0  0  0
   20.1085    9.3248   55.6088 C   0  0  0  0  0  0  0  0  0  0  0  0
   20.0631    8.3469   54.4292 C   0  0  0  0  0  0  0  0  0  0  0  0
 26 27  1  0  0  0
 27  1  1  0  0  0
  1  2  1  0  0  0
  2  3  2  0  0  0
  3  4  1  0  0  0
  4  5  2  0  0  0
  5  6  1  0  0  0
  5  7  1  0  0  0
  7 11  1  0  0  0
 11 12  1  0  0  0
 12 13  2  0  0  0
 12 15  1  0  0  0
 15 16  1  0  0  0
 16 17  1  0  0  0
 17 18  1  0  0  0
 18 19  1  0  0  0
 19 20  1  0  0  0
 20 21  1  0  0  0
  7  8  2  0  0  0
  8  9  1  0  0  0
  9 10  2  0  0  0
  2 22  1  0  0  0
 22 23  1  0  0  0
 22 24  1  0  0  0
 22 25  1  0  0  0
 10  1  1  0  0  0
 10  4  1  0  0  0
 21 16  1  0  0  0
 11 14  1  0  0  0
M  END
> <minimizedAffinity>
15.64310

> <CNNscore>
0.4777880907

> <CNNaffinity>
5.9428839684

> <CNN_VS>
2.8394391537

> <CNNaffinity_variance>
0.6160736084

$$$$
[H]c1nc2c(nc(C(F)(F)F)n2C([H])([H])C([H])([H])[H])c(Cl)c1N([H])C(=O)C([H])([H])C1([H])C([H])([H])C([H])([H])OC([H])([H])C1([H])[H]


 27 29  0  0  0  0  0  0  0  0999 V2000
   26.4359    9.2598   55.6335 N   0  0  0  0  0  0  0  0  0  0  0  0
   27.0593    8.4704   54.7872 C   0  0  0  0  0  0  0  0  0  0  0  0
   26.1940    7.8246   53.9668 N   0  0  0  0  0  0  0  0  0  0  0  0
   24.9494    8.2269   54.3145 C   0  0  0  0  0  0  0  0  0  0  0  0
   23.7185    7.8323   53.8792 C   0  0  0  0  0  0  0  0  0  0  0  0
   23.5173    6.7087   52.5750 Cl  0  0  0  0  0  0  0  0  0  0  0  0
   22.6030    8.3787   54.5387 C   0  0  0  0  0  0  0  0  0  0  0  0
   22.7649    9.2657   55.5437 C   0  0  0  0  0  0  0  0  0  0  0  0
   24.0130    9.6335   55.9507 N   0  0  0  0  0  0  0  0  0  0  0  0
   25.1117    9.1167   55.3488 C   0  0  0  0  0  0  0  0  0  0  0  0
   21.3416    7.8045   54.1563 N   0  0  0  0  0  0  0  0  0  0  0  0
   20.7728    8.0336   52.8722 C   0  0  0  0  0  0  0  0  0  0  0  0
   21.3516    8.6760   52.0158 O   0  0  0  0  0  0  0  0  0  0  0  0
   20.8563    7.2121   54.8669 H   0  0  0  0  0  0  0  0  0  0  0  0
   19.4084    7.4625   52.6635 C   0  0  0  0  0  0  0  0  0  0  0  0
   19.5231    6.0288   53.0647 C   0  0  0  0  0  0  0  0  0  0  0  0
   20.8361    5.4999   53.4395 C   0  0  0  0  0  0  0  0  0  0  0  0
   20.7365    3.9459   53.2585 C   0  0  0  0  0  0  0  0  0  0  0  0
   19.6519    3.4690   53.9389 O   0  0  0  0  0  0  0  0  0  0  0  0
   18.4388    3.9402   53.5350 C   0  0  0  0  0  0  0  0  0  0  0  0
   18.4109    5.4440   53.8802 C   0  0  0  0  0  0  0  0  0  0  0  0
   28.5008    8.2016   54.6474 C   0  0  0  0  0  0  0  0  0  0  0  0
   28.6240    7.1453   53.7167 F   0  0  0  0  0  0  0  0  0  0  0  0
   29.1761    7.7864   55.7364 F   0  0  0  0  0  0  0  0  0  0  0  0
   29.1184    9.2746   54.0572 F   0  0  0  0  0  0  0  0  0  0  0  0
   27.7764    9.2131   57.6691 C   0  0  0  0  0  0  0  0  0  0  0  0
   26.9630   10.0608   56.6845 C   0  0  0  0  0  0  0  0  0  0  0  0
 26 27  1  0  0  0
 27  1  1  0  0  0
  1  2  1  0  0  0
  2  3  2  0  0  0
  3  4  1  0  0  0
  4  5  2  0  0  0
  5  6  1  0  0  0
  5  7  1  0  0  0
  7 11  1  0  0  0
 11 12  1  0  0  0
 12 13  2  0  0  0
 12 15  1  0  0  0
 15 16  1  0  0  0
 16 17  1  0  0  0
 17 18  1  0  0  0
 18 19  1  0  0  0
 19 20  1  0  0  0
 20 21  1  0  0  0
  7  8  2  0  0  0
  8  9  1  0  0  0
  9 10  2  0  0  0
  2 22  1  0  0  0
 22 23  1  0  0  0
 22 24  1  0  0  0
 22 25  1  0  0  0
 10  1  1  0  0  0
 10  4  1  0  0  0
 21 16  1  0  0  0
 11 14  1  0  0  0
M  END
> <minimizedAffinity>
15.82173

> <CNNscore>
0.4760483801

> <CNNaffinity>
6.4090933800

> <CNN_VS>
3.0510385036

> <CNNaffinity_variance>
0.5894564986

$$$$
[H]c1nc2c(nc(C(F)(F)F)n2C([H])([H])C([H])([H])[H])c(Cl)c1N([H])C(=O)C([H])([H])C1([H])C([H])([H])C([H])([H])OC([H])([H])C1([H])[H]


 27 29  0  0  0  0  0  0  0  0999 V2000
   18.8956    4.3058   53.4862 N   0  0  0  0  0  0  0  0  0  0  0  0
   19.9710    3.5965   53.2240 C   0  0  0  0  0  0  0  0  0  0  0  0
   21.0891    4.3633   53.2007 N   0  0  0  0  0  0  0  0  0  0  0  0
   20.6996    5.6330   53.4616 C   0  0  0  0  0  0  0  0  0  0  0  0
   21.3952    6.8061   53.4742 C   0  0  0  0  0  0  0  0  0  0  0  0
   23.1130    6.8631   53.2514 Cl  0  0  0  0  0  0  0  0  0  0  0  0
   20.6549    7.9847   53.6769 C   0  0  0  0  0  0  0  0  0  0  0  0
   19.3190    7.9336   53.8657 C   0  0  0  0  0  0  0  0  0  0  0  0
   18.6600    6.7402   53.8442 N   0  0  0  0  0  0  0  0  0  0  0  0
   19.3376    5.5852   53.6370 C   0  0  0  0  0  0  0  0  0  0  0  0
   21.4072    9.1990   53.5132 N   0  0  0  0  0  0  0  0  0  0  0  0
   21.5700   10.1286   54.5782 C   0  0  0  0  0  0  0  0  0  0  0  0
   21.1324    9.9147   55.6935 O   0  0  0  0  0  0  0  0  0  0  0  0
   21.8276    9.3721   52.5727 H   0  0  0  0  0  0  0  0  0  0  0  0
   22.2815   11.3931   54.2232 C   0  0  0  0  0  0  0  0  0  0  0  0
   21.8643   11.6915   52.8208 C   0  0  0  0  0  0  0  0  0  0  0  0
   22.3078   12.9410   52.1994 C   0  0  0  0  0  0  0  0  0  0  0  0
   21.3029   13.2138   51.0275 C   0  0  0  0  0  0  0  0  0  0  0  0
   21.2170   12.1114   50.2250 O   0  0  0  0  0  0  0  0  0  0  0  0
   20.7532   10.9755   50.8178 C   0  0  0  0  0  0  0  0  0  0  0  0
   21.8167   10.5500   51.8519 C   0  0  0  0  0  0  0  0  0  0  0  0
   20.0957    2.1554   52.9457 C   0  0  0  0  0  0  0  0  0  0  0  0
   20.0664    1.5005   54.1976 F   0  0  0  0  0  0  0  0  0  0  0  0
   21.2238    1.7205   52.3518 F   0  0  0  0  0  0  0  0  0  0  0  0
   18.9803    1.7122   52.2819 F   0  0  0  0  0  0  0  0  0  0  0  0
   17.0680    3.7420   54.9977 C   0  0  0  0  0  0  0  0  0  0  0  0
   17.5333    3.9004   53.5457 C   0  0  0  0  0  0  0  0  0  0  0  0
 26 27  1  0  0  0
 27  1  1  0  0  0
  1  2  1  0  0  0
  2  3  2  0  0  0
  3  4  1  0  0  0
  4  5  2  0  0  0
  5  6  1  0  0  0
  5  7  1  0  0  0
  7 11  1  0  0  0
 11 12  1  0  0  0
 12 13  2  0  0  0
 12 15  1  0  0  0
 15 16  1  0  0  0
 16 17  1  0  0  0
 17 18  1  0  0  0
 18 19  1  0  0  0
 19 20  1  0  0  0
 20 21  1  0  0  0
  7  8  2  0  0  0
  8  9  1  0  0  0
  9 10  2  0  0  0
  2 22  1  0  0  0
 22 23  1  0  0  0
 22 24  1  0  0  0
 22 25  1  0  0  0
 10  1  1  0  0  0
 10  4  1  0  0  0
 21 16  1  0  0  0
 11 14  1  0  0  0
M  END
> <minimizedAffinity>
32.48491

> <CNNscore>
0.4449596703

> <CNNaffinity>
6.4423265457

> <CNN_VS>
2.8665754795

> <CNNaffinity_variance>
0.4561871886

$$$$
[H]c1nc2c(nc(C(F)(F)F)n2C([H])([H])C([H])([H])[H])c(Cl)c1N([H])C(=O)C([H])([H])C1([H])C([H])([H])C([H])([H])OC([H])([H])C1([H])[H]


 27 29  0  0  0  0  0  0  0  0999 V2000
   20.1706    6.5042   52.7385 N   0  0  0  0  0  0  0  0  0  0  0  0
   20.3100    5.2722   53.1756 C   0  0  0  0  0  0  0  0  0  0  0  0
   21.4040    5.1367   53.9653 N   0  0  0  0  0  0  0  0  0  0  0  0
   21.9933    6.3533   54.0313 C   0  0  0  0  0  0  0  0  0  0  0  0
   23.1580    6.7620   54.6116 C   0  0  0  0  0  0  0  0  0  0  0  0
   24.1321    5.6996   55.5742 Cl  0  0  0  0  0  0  0  0  0  0  0  0
   23.5446    8.0968   54.3954 C   0  0  0  0  0  0  0  0  0  0  0  0
   22.7743    8.9248   53.6578 C   0  0  0  0  0  0  0  0  0  0  0  0
   21.6171    8.4770   53.0929 N   0  0  0  0  0  0  0  0  0  0  0  0
   21.2198    7.1932   53.2670 C   0  0  0  0  0  0  0  0  0  0  0  0
   24.8558    8.4264   54.8846 N   0  0  0  0  0  0  0  0  0  0  0  0
   25.0552    9.4249   55.8788 C   0  0  0  0  0  0  0  0  0  0  0  0
   24.1244   10.0057   56.4052 O   0  0  0  0  0  0  0  0  0  0  0  0
   25.6601    7.9015   54.4737 H   0  0  0  0  0  0  0  0  0  0  0  0
   26.4807    9.7320   56.2029 C   0  0  0  0  0  0  0  0  0  0  0  0
   27.2813    8.8487   55.3037 C   0  0  0  0  0  0  0  0  0  0  0  0
   26.6701    8.3523   54.0691 C   0  0  0  0  0  0  0  0  0  0  0  0
   27.4941    7.0806   53.6677 C   0  0  0  0  0  0  0  0  0  0  0  0
   28.8255    7.3847   53.6289 O   0  0  0  0  0  0  0  0  0  0  0  0
   29.3790    7.7955   54.8043 C   0  0  0  0  0  0  0  0  0  0  0  0
   28.7382    9.1579   55.1428 C   0  0  0  0  0  0  0  0  0  0  0  0
   19.4806    4.0850   52.9064 C   0  0  0  0  0  0  0  0  0  0  0  0
   20.2617    2.9612   53.2585 F   0  0  0  0  0  0  0  0  0  0  0  0
   19.0950    3.8567   51.6362 F   0  0  0  0  0  0  0  0  0  0  0  0
   18.4104    4.0619   53.7639 F   0  0  0  0  0  0  0  0  0  0  0  0
   19.8001    8.1735   51.0010 C   0  0  0  0  0  0  0  0  0  0  0  0
   19.2003    7.0482   51.8518 C   0  0  0  0  0  0  0  0  0  0  0  0
 26 27  1  0  0  0
 27  1  1  0  0  0
  1  2  1  0  0  0
  2  3  2  0  0  0
  3  4  1  0  0  0
  4  5  2  0  0  0
  5  6  1  0  0  0
  5  7  1  0  0  0
  7 11  1  0  0  0
 11 12  1  0  0  0
 12 13  2  0  0  0
 12 15  1  0  0  0
 15 16  1  0  0  0
 16 17  1  0  0  0
 17 18  1  0  0  0
 18 19  1  0  0  0
 19 20  1  0  0  0
 20 21  1  0  0  0
  7  8  2  0  0  0
  8  9  1  0  0  0
  9 10  2  0  0  0
  2 22  1  0  0  0
 22 23  1  0  0  0
 22 24  1  0  0  0
 22 25  1  0  0  0
 10  1  1  0  0  0
 10  4  1  0  0  0
 21 16  1  0  0  0
 11 14  1  0  0  0
M  END
> <minimizedAffinity>
22.05770

> <CNNscore>
0.4435505867

> <CNNaffinity>
6.3672814369

> <CNN_VS>
2.8242113590

> <CNNaffinity_variance>
0.5038028955

$$$$
[H]c1nc2c(nc(C(F)(F)F)n2C([H])([H])C([H])([H])[H])c(Cl)c1N([H])C(=O)C([H])([H])C1([H])C([H])([H])C([H])([H])OC([H])([H])C1([H])[H]


 27 29  0  0  0  0  0  0  0  0999 V2000
   28.0112    9.0913   55.8124 N   0  0  0  0  0  0  0  0  0  0  0  0
   27.5616    9.9272   56.7220 C   0  0  0  0  0  0  0  0  0  0  0  0
   26.2071    9.9243   56.7859 N   0  0  0  0  0  0  0  0  0  0  0  0
   25.7726    9.0361   55.8617 C   0  0  0  0  0  0  0  0  0  0  0  0
   24.5157    8.7061   55.4477 C   0  0  0  0  0  0  0  0  0  0  0  0
   23.0958    9.3526   56.2025 Cl  0  0  0  0  0  0  0  0  0  0  0  0
   24.4140    7.8093   54.3690 C   0  0  0  0  0  0  0  0  0  0  0  0
   25.5231    7.2962   53.7947 C   0  0  0  0  0  0  0  0  0  0  0  0
   26.7623    7.6528   54.2371 N   0  0  0  0  0  0  0  0  0  0  0  0
   26.8999    8.5257   55.2644 C   0  0  0  0  0  0  0  0  0  0  0  0
   23.0795    7.6277   53.8659 N   0  0  0  0  0  0  0  0  0  0  0  0
   22.2116    6.6282   54.3881 C   0  0  0  0  0  0  0  0  0  0  0  0
   22.5336    5.9190   55.3232 O   0  0  0  0  0  0  0  0  0  0  0  0
   22.7744    8.2618   53.0938 H   0  0  0  0  0  0  0  0  0  0  0  0
   20.8991    6.4887   53.6886 C   0  0  0  0  0  0  0  0  0  0  0  0
   20.8231    7.6636   52.7701 C   0  0  0  0  0  0  0  0  0  0  0  0
   19.9718    7.5809   51.5816 C   0  0  0  0  0  0  0  0  0  0  0  0
   20.5171    8.6667   50.5910 C   0  0  0  0  0  0  0  0  0  0  0  0
   20.5928    9.8750   51.2241 O   0  0  0  0  0  0  0  0  0  0  0  0
   21.4314    9.9362   52.2963 C   0  0  0  0  0  0  0  0  0  0  0  0
   20.8231    9.0290   53.3864 C   0  0  0  0  0  0  0  0  0  0  0  0
   28.3097   10.8313   57.6123 C   0  0  0  0  0  0  0  0  0  0  0  0
   29.3500   11.3897   56.8358 F   0  0  0  0  0  0  0  0  0  0  0  0
   28.9245   10.2976   58.6854 F   0  0  0  0  0  0  0  0  0  0  0  0
   27.5175   11.8927   57.9686 F   0  0  0  0  0  0  0  0  0  0  0  0
   29.3791    7.8625   54.2118 C   0  0  0  0  0  0  0  0  0  0  0  0
   29.3471    8.8364   55.3952 C   0  0  0  0  0  0  0  0  0  0  0  0
 26 27  1  0  0  0
 27  1  1  0  0  0
  1  2  1  0  0  0
  2  3  2  0  0  0
  3  4  1  0  0  0
  4  5  2  0  0  0
  5  6  1  0  0  0
  5  7  1  0  0  0
  7 11  1  0  0  0
 11 12  1  0  0  0
 12 13  2  0  0  0
 12 15  1  0  0  0
 15 16  1  0  0  0
 16 17  1  0  0  0
 17 18  1  0  0  0
 18 19  1  0  0  0
 19 20  1  0  0  0
 20 21  1  0  0  0
  7  8  2  0  0  0
  8  9  1  0  0  0
  9 10  2  0  0  0
  2 22  1  0  0  0
 22 23  1  0  0  0
 22 24  1  0  0  0
 22 25  1  0  0  0
 10  1  1  0  0  0
 10  4  1  0  0  0
 21 16  1  0  0  0
 11 14  1  0  0  0
M  END
> <minimizedAffinity>
11.44942

> <CNNscore>
0.4408974349

> <CNNaffinity>
6.2057304382

> <CNN_VS>
2.7360906601

> <CNNaffinity_variance>
0.2976330817

$$$$
[H]c1nc2c(nc(C(F)(F)F)n2C([H])([H])C([H])([H])[H])c(Cl)c1N([H])C(=O)C([H])([H])C1([H])C([H])([H])C([H])([H])OC([H])([H])C1([H])[H]


 27 29  0  0  0  0  0  0  0  0999 V2000
   20.6256    6.8249   52.8907 N   0  0  0  0  0  0  0  0  0  0  0  0
   20.5692    5.6442   53.4661 C   0  0  0  0  0  0  0  0  0  0  0  0
   21.7138    5.3508   54.1314 N   0  0  0  0  0  0  0  0  0  0  0  0
   22.5448    6.4063   53.9668 C   0  0  0  0  0  0  0  0  0  0  0  0
   23.8400    6.6033   54.3462 C   0  0  0  0  0  0  0  0  0  0  0  0
   24.7020    5.4555   55.3175 Cl  0  0  0  0  0  0  0  0  0  0  0  0
   24.4586    7.7896   53.9124 C   0  0  0  0  0  0  0  0  0  0  0  0
   23.7777    8.6879   53.1692 C   0  0  0  0  0  0  0  0  0  0  0  0
   22.4840    8.4528   52.8091 N   0  0  0  0  0  0  0  0  0  0  0  0
   21.8595    7.3141   53.1960 C   0  0  0  0  0  0  0  0  0  0  0  0
   25.8661    7.8681   54.1952 N   0  0  0  0  0  0  0  0  0  0  0  0
   26.3810    8.7337   55.2005 C   0  0  0  0  0  0  0  0  0  0  0  0
   25.6532    9.4043   55.9087 O   0  0  0  0  0  0  0  0  0  0  0  0
   26.4979    7.2622   53.6251 H   0  0  0  0  0  0  0  0  0  0  0  0
   27.8705    8.7866   55.3003 C   0  0  0  0  0  0  0  0  0  0  0  0
   28.1476    9.4257   56.6212 C   0  0  0  0  0  0  0  0  0  0  0  0
   27.8440   10.8470   56.7991 C   0  0  0  0  0  0  0  0  0  0  0  0
   28.7209   11.3214   58.0089 C   0  0  0  0  0  0  0  0  0  0  0  0
   28.5160   10.4985   59.0801 O   0  0  0  0  0  0  0  0  0  0  0  0
   28.8549    9.1907   58.9023 C   0  0  0  0  0  0  0  0  0  0  0  0
   27.8773    8.6189   57.8541 C   0  0  0  0  0  0  0  0  0  0  0  0
   19.4826    4.6497   53.4553 C   0  0  0  0  0  0  0  0  0  0  0  0
   18.2720    5.3770   53.5068 F   0  0  0  0  0  0  0  0  0  0  0  0
   19.4100    3.7800   54.4812 F   0  0  0  0  0  0  0  0  0  0  0  0
   19.4602    3.9993   52.2480 F   0  0  0  0  0  0  0  0  0  0  0  0
   20.3596    8.2544   50.9340 C   0  0  0  0  0  0  0  0  0  0  0  0
   19.6711    7.4770   52.0617 C   0  0  0  0  0  0  0  0  0  0  0  0
 26 27  1  0  0  0
 27  1  1  0  0  0
  1  2  1  0  0  0
  2  3  2  0  0  0
  3  4  1  0  0  0
  4  5  2  0  0  0
  5  6  1  0  0  0
  5  7  1  0  0  0
  7 11  1  0  0  0
 11 12  1  0  0  0
 12 13  2  0  0  0
 12 15  1  0  0  0
 15 16  1  0  0  0
 16 17  1  0  0  0
 17 18  1  0  0  0
 18 19  1  0  0  0
 19 20  1  0  0  0
 20 21  1  0  0  0
  7  8  2  0  0  0
  8  9  1  0  0  0
  9 10  2  0  0  0
  2 22  1  0  0  0
 22 23  1  0  0  0
 22 24  1  0  0  0
 22 25  1  0  0  0
 10  1  1  0  0  0
 10  4  1  0  0  0
 21 16  1  0  0  0
 11 14  1  0  0  0
M  END
> <minimizedAffinity>
13.20771

> <CNNscore>
0.4250477254

> <CNNaffinity>
6.2765412331

> <CNN_VS>
2.6678295135

> <CNNaffinity_variance>
0.6116872430

$$$$
[H]c1nc2c(nc(C(F)(F)F)n2C([H])([H])C([H])([H])[H])c(Cl)c1N([H])C(=O)C([H])([H])C1([H])C([H])([H])C([H])([H])OC([H])([H])C1([H])[H]


 27 29  0  0  0  0  0  0  0  0999 V2000
   21.3207    9.7223   52.0884 N   0  0  0  0  0  0  0  0  0  0  0  0
   21.0289    8.4683   51.8232 C   0  0  0  0  0  0  0  0  0  0  0  0
   21.8372    7.6088   52.4915 N   0  0  0  0  0  0  0  0  0  0  0  0
   22.6924    8.3620   53.2217 C   0  0  0  0  0  0  0  0  0  0  0  0
   23.7575    8.0189   54.0016 C   0  0  0  0  0  0  0  0  0  0  0  0
   24.1714    6.3670   54.3237 Cl  0  0  0  0  0  0  0  0  0  0  0  0
   24.5185    9.0713   54.5413 C   0  0  0  0  0  0  0  0  0  0  0  0
   24.1824   10.3567   54.3003 C   0  0  0  0  0  0  0  0  0  0  0  0
   23.1107   10.6581   53.5134 N   0  0  0  0  0  0  0  0  0  0  0  0
   22.3627    9.6707   52.9639 C   0  0  0  0  0  0  0  0  0  0  0  0
   25.7211    8.6572   55.2116 N   0  0  0  0  0  0  0  0  0  0  0  0
   26.9653    8.5625   54.5274 C   0  0  0  0  0  0  0  0  0  0  0  0
   27.0850    8.8830   53.3595 O   0  0  0  0  0  0  0  0  0  0  0  0
   25.6408    8.4238   56.2267 H   0  0  0  0  0  0  0  0  0  0  0  0
   28.0986    8.0123   55.3299 C   0  0  0  0  0  0  0  0  0  0  0  0
   28.3089    8.9993   56.4306 C   0  0  0  0  0  0  0  0  0  0  0  0
   28.2170   10.4291   56.1283 C   0  0  0  0  0  0  0  0  0  0  0  0
   29.0020   11.1575   57.2732 C   0  0  0  0  0  0  0  0  0  0  0  0
   28.5372   10.7434   58.4894 O   0  0  0  0  0  0  0  0  0  0  0  0
   28.6818    9.4166   58.7642 C   0  0  0  0  0  0  0  0  0  0  0  0
   27.7626    8.6588   57.7832 C   0  0  0  0  0  0  0  0  0  0  0  0
   20.0031    7.9176   50.9207 C   0  0  0  0  0  0  0  0  0  0  0  0
   19.7611    6.5927   51.3486 F   0  0  0  0  0  0  0  0  0  0  0  0
   20.3024    7.8114   49.6117 F   0  0  0  0  0  0  0  0  0  0  0  0
   18.8161    8.5786   51.1085 F   0  0  0  0  0  0  0  0  0  0  0  0
   21.8409   11.9691   51.2983 C   0  0  0  0  0  0  0  0  0  0  0  0
   20.7573   10.9167   51.5594 C   0  0  0  0  0  0  0  0  0  0  0  0
 26 27  1  0  0  0
 27  1  1  0  0  0
  1  2  1  0  0  0
  2  3  2  0  0  0
  3  4  1  0  0  0
  4  5  2  0  0  0
  5  6  1  0  0  0
  5  7  1  0  0  0
  7 11  1  0  0  0
 11 12  1  0  0  0
 12 13  2  0  0  0
 12 15  1  0  0  0
 15 16  1  0  0  0
 16 17  1  0  0  0
 17 18  1  0  0  0
 18 19  1  0  0  0
 19 20  1  0  0  0
 20 21  1  0  0  0
  7  8  2  0  0  0
  8  9  1  0  0  0
  9 10  2  0  0  0
  2 22  1  0  0  0
 22 23  1  0  0  0
 22 24  1  0  0  0
 22 25  1  0  0  0
 10  1  1  0  0  0
 10  4  1  0  0  0
 21 16  1  0  0  0
 11 14  1  0  0  0
M  END
> <minimizedAffinity>
25.85118

> <CNNscore>
0.4233331084

> <CNNaffinity>
5.8630585670

> <CNN_VS>
2.4820268154

> <CNNaffinity_variance>
0.2941066027

$$$$
[H]c1nc2c(nc(C(F)(F)F)n2C([H])([H])C([H])([H])[H])c(Cl)c1N([H])C(=O)C([H])([H])C1([H])C([H])([H])C([H])([H])OC([H])([H])C1([H])[H]


 27 29  0  0  0  0  0  0  0  0999 V2000
   27.8638    8.8741   55.4721 N   0  0  0  0  0  0  0  0  0  0  0  0
   27.3788    9.7844   56.2872 C   0  0  0  0  0  0  0  0  0  0  0  0
   26.0310    9.6920   56.4037 N   0  0  0  0  0  0  0  0  0  0  0  0
   25.6385    8.6643   55.6153 C   0  0  0  0  0  0  0  0  0  0  0  0
   24.3988    8.1944   55.2951 C   0  0  0  0  0  0  0  0  0  0  0  0
   22.9566    8.8277   56.0182 Cl  0  0  0  0  0  0  0  0  0  0  0  0
   24.3341    7.1626   54.3416 C   0  0  0  0  0  0  0  0  0  0  0  0
   25.4617    6.6618   53.7929 C   0  0  0  0  0  0  0  0  0  0  0  0
   26.6826    7.1604   54.1387 N   0  0  0  0  0  0  0  0  0  0  0  0
   26.7834    8.1647   55.0429 C   0  0  0  0  0  0  0  0  0  0  0  0
   23.0031    6.8227   53.9176 N   0  0  0  0  0  0  0  0  0  0  0  0
   22.3912    7.4494   52.7960 C   0  0  0  0  0  0  0  0  0  0  0  0
   22.9838    8.2586   52.1067 O   0  0  0  0  0  0  0  0  0  0  0  0
   22.5005    6.0950   54.4736 H   0  0  0  0  0  0  0  0  0  0  0  0
   20.9675    7.0718   52.5475 C   0  0  0  0  0  0  0  0  0  0  0  0
   20.4171    8.1722   51.7014 C   0  0  0  0  0  0  0  0  0  0  0  0
   19.0127    8.1165   51.2906 C   0  0  0  0  0  0  0  0  0  0  0  0
   18.9018    9.0381   50.0273 C   0  0  0  0  0  0  0  0  0  0  0  0
   19.4246   10.2694   50.3050 O   0  0  0  0  0  0  0  0  0  0  0  0
   20.7463   10.2968   50.6351 C   0  0  0  0  0  0  0  0  0  0  0  0
   20.8796    9.5678   51.9887 C   0  0  0  0  0  0  0  0  0  0  0  0
   28.0816   10.8461   57.0278 C   0  0  0  0  0  0  0  0  0  0  0  0
   27.1853   11.9351   57.1162 F   0  0  0  0  0  0  0  0  0  0  0  0
   29.2022   11.3609   56.4860 F   0  0  0  0  0  0  0  0  0  0  0  0
   28.2921   10.4476   58.3232 F   0  0  0  0  0  0  0  0  0  0  0  0
   29.3659    7.2807   54.4007 C   0  0  0  0  0  0  0  0  0  0  0  0
   29.2024    8.6652   55.0382 C   0  0  0  0  0  0  0  0  0  0  0  0
 26 27  1  0  0  0
 27  1  1  0  0  0
  1  2  1  0  0  0
  2  3  2  0  0  0
  3  4  1  0  0  0
  4  5  2  0  0  0
  5  6  1  0  0  0
  5  7  1  0  0  0
  7 11  1  0  0  0
 11 12  1  0  0  0
 12 13  2  0  0  0
 12 15  1  0  0  0
 15 16  1  0  0  0
 16 17  1  0  0  0
 17 18  1  0  0  0
 18 19  1  0  0  0
 19 20  1  0  0  0
 20 21  1  0  0  0
  7  8  2  0  0  0
  8  9  1  0  0  0
  9 10  2  0  0  0
  2 22  1  0  0  0
 22 23  1  0  0  0
 22 24  1  0  0  0
 22 25  1  0  0  0
 10  1  1  0  0  0
 10  4  1  0  0  0
 21 16  1  0  0  0
 11 14  1  0  0  0
M  END
> <minimizedAffinity>
30.54650

> <CNNscore>
0.4163061380

> <CNNaffinity>
5.8821349144

> <CNN_VS>
2.4487688541

> <CNNaffinity_variance>
0.3264020085

$$$$
[H]c1c([H])c(-c2c([H])c(C(=O)N([H])[H])nc3c2C([H])([H])C([H])([H])[C@@]([H])(F)O3)c(F)c([H])c1Cl


 24 26  0  0  0  0  0  0  0  0999 V2000
   21.6118   10.2070   51.9552 C   0  0  0  0  0  0  0  0  0  0  0  0
   22.7270   10.0784   52.7382 C   0  0  0  0  0  0  0  0  0  0  0  0
   23.0062    8.8780   53.3923 C   0  0  0  0  0  0  0  0  0  0  0  0
   22.1654    7.8091   53.2615 C   0  0  0  0  0  0  0  0  0  0  0  0
   22.3252    6.5211   53.9302 C   0  0  0  0  0  0  0  0  0  0  0  0
   21.6929    5.4516   53.0242 C   0  0  0  0  0  0  0  0  0  0  0  0
   20.2151    5.7893   52.9926 C   0  0  0  0  0  0  0  0  0  0  0  0
   19.7830    6.0932   54.2810 F   0  0  0  0  0  0  0  0  0  0  0  0
   20.1048    6.9724   52.2355 O   0  0  0  0  0  0  0  0  0  0  0  0
   21.0378    7.9785   52.4536 C   0  0  0  0  0  0  0  0  0  0  0  0
   20.8170    9.1385   51.8522 N   0  0  0  0  0  0  0  0  0  0  0  0
   24.2569    8.8074   54.1608 C   0  0  0  0  0  0  0  0  0  0  0  0
   25.4035    8.2386   53.6846 C   0  0  0  0  0  0  0  0  0  0  0  0
   26.5439    8.2531   54.4358 C   0  0  0  0  0  0  0  0  0  0  0  0
   26.5417    8.8405   55.6730 C   0  0  0  0  0  0  0  0  0  0  0  0
   28.0348    8.8386   56.6111 Cl  0  0  0  0  0  0  0  0  0  0  0  0
   25.4170    9.4284   56.2015 C   0  0  0  0  0  0  0  0  0  0  0  0
   24.2844    9.3922   55.4098 C   0  0  0  0  0  0  0  0  0  0  0  0
   23.1645    9.9812   55.9521 F   0  0  0  0  0  0  0  0  0  0  0  0
   21.7150   12.6909   51.7817 N   0  0  0  0  0  0  0  0  0  0  0  0
   21.3010   11.4543   51.2526 C   0  0  0  0  0  0  0  0  0  0  0  0
   20.6540   11.4036   50.1641 O   0  0  0  0  0  0  0  0  0  0  0  0
   22.7278   12.8546   52.0115 H   0  0  0  0  0  0  0  0  0  0  0  0
   21.0353   13.4654   51.9562 H   0  0  0  0  0  0  0  0  0  0  0  0
 20 21  1  0  0  0
 21 22  2  0  0  0
 21  1  1  0  0  0
  1  2  2  0  0  0
  2  3  1  0  0  0
  3  4  2  0  0  0
  4  5  1  0  0  0
  5  6  1  0  0  0
  6  7  1  0  0  0
  7  8  1  0  0  0
  7  9  1  0  0  0
  9 10  1  0  0  0
 10 11  2  0  0  0
  3 12  1  0  0  0
 12 13  2  0  0  0
 13 14  1  0  0  0
 14 15  2  0  0  0
 15 16  1  0  0  0
 15 17  1  0  0  0
 17 18  2  0  0  0
 18 19  1  0  0  0
 11  1  1  0  0  0
 18 12  1  0  0  0
 10  4  1  0  0  0
 20 23  1  0  0  0
 20 24  1  0  0  0
M  END
> <minimizedAffinity>
11.30655

> <CNNscore>
0.6722902060

> <CNNaffinity>
5.9665040970

> <CNN_VS>
4.0112223625

> <CNNaffinity_variance>
0.2160586417

$$$$
[H]c1c([H])c(-c2c([H])c(C(=O)N([H])[H])nc3c2C([H])([H])C([H])([H])[C@@]([H])(F)O3)c(F)c([H])c1Cl


 24 26  0  0  0  0  0  0  0  0999 V2000
   21.6532    6.5539   53.8024 C   0  0  0  0  0  0  0  0  0  0  0  0
   23.0004    6.7858   53.8696 C   0  0  0  0  0  0  0  0  0  0  0  0
   23.4922    8.0438   54.2194 C   0  0  0  0  0  0  0  0  0  0  0  0
   22.6320    9.0676   54.4993 C   0  0  0  0  0  0  0  0  0  0  0  0
   23.0240   10.4344   54.8308 C   0  0  0  0  0  0  0  0  0  0  0  0
   21.9302   11.0183   55.7402 C   0  0  0  0  0  0  0  0  0  0  0  0
   20.6893   11.0785   54.8710 C   0  0  0  0  0  0  0  0  0  0  0  0
   21.0279   11.5790   53.6165 F   0  0  0  0  0  0  0  0  0  0  0  0
   20.2845    9.7423   54.6817 O   0  0  0  0  0  0  0  0  0  0  0  0
   21.2642    8.7922   54.4207 C   0  0  0  0  0  0  0  0  0  0  0  0
   20.8465    7.5802   54.0850 N   0  0  0  0  0  0  0  0  0  0  0  0
   24.9507    8.1877   54.3290 C   0  0  0  0  0  0  0  0  0  0  0  0
   25.8204    7.8273   53.3398 C   0  0  0  0  0  0  0  0  0  0  0  0
   27.1615    8.0360   53.4910 C   0  0  0  0  0  0  0  0  0  0  0  0
   27.6403    8.6098   54.6387 C   0  0  0  0  0  0  0  0  0  0  0  0
   29.3785    8.8626   54.7947 Cl  0  0  0  0  0  0  0  0  0  0  0  0
   26.8108    8.9926   55.6660 C   0  0  0  0  0  0  0  0  0  0  0  0
   25.4612    8.7640   55.4735 C   0  0  0  0  0  0  0  0  0  0  0  0
   24.6421    9.1487   56.5111 F   0  0  0  0  0  0  0  0  0  0  0  0
   19.7439    5.0896   53.1535 N   0  0  0  0  0  0  0  0  0  0  0  0
   21.1125    5.2402   53.4448 C   0  0  0  0  0  0  0  0  0  0  0  0
   21.8935    4.2430   53.4027 O   0  0  0  0  0  0  0  0  0  0  0  0
   19.2930    5.6840   52.4128 H   0  0  0  0  0  0  0  0  0  0  0  0
   19.1513    4.3930   53.6593 H   0  0  0  0  0  0  0  0  0  0  0  0
 20 21  1  0  0  0
 21 22  2  0  0  0
 21  1  1  0  0  0
  1  2  2  0  0  0
  2  3  1  0  0  0
  3  4  2  0  0  0
  4  5  1  0  0  0
  5  6  1  0  0  0
  6  7  1  0  0  0
  7  8  1  0  0  0
  7  9  1  0  0  0
  9 10  1  0  0  0
 10 11  2  0  0  0
  3 12  1  0  0  0
 12 13  2  0  0  0
 13 14  1  0  0  0
 14 15  2  0  0  0
 15 16  1  0  0  0
 15 17  1  0  0  0
 17 18  2  0  0  0
 18 19  1  0  0  0
 11  1  1  0  0  0
 18 12  1  0  0  0
 10  4  1  0  0  0
 20 23  1  0  0  0
 20 24  1  0  0  0
M  END
> <minimizedAffinity>
12.39898

> <CNNscore>
0.6708749533

> <CNNaffinity>
6.1627326012

> <CNN_VS>
4.1344227791

> <CNNaffinity_variance>
0.2677707970

$$$$
[H]c1c([H])c(-c2c([H])c(C(=O)N([H])[H])nc3c2C([H])([H])C([H])([H])[C@@]([H])(F)O3)c(F)c([H])c1Cl


 24 26  0  0  0  0  0  0  0  0999 V2000
   21.2586    6.3897   53.2685 C   0  0  0  0  0  0  0  0  0  0  0  0
   22.4964    6.6865   53.7714 C   0  0  0  0  0  0  0  0  0  0  0  0
   23.0191    7.9760   53.6679 C   0  0  0  0  0  0  0  0  0  0  0  0
   22.3003    8.9651   53.0585 C   0  0  0  0  0  0  0  0  0  0  0  0
   22.7573   10.3359   52.8491 C   0  0  0  0  0  0  0  0  0  0  0  0
   21.5128   11.2388   52.8401 C   0  0  0  0  0  0  0  0  0  0  0  0
   20.7262   10.8092   51.6171 C   0  0  0  0  0  0  0  0  0  0  0  0
   21.5960   10.6474   50.5418 F   0  0  0  0  0  0  0  0  0  0  0  0
   20.2083    9.5340   51.9186 O   0  0  0  0  0  0  0  0  0  0  0  0
   21.0409    8.6239   52.5582 C   0  0  0  0  0  0  0  0  0  0  0  0
   20.5878    7.3847   52.6822 N   0  0  0  0  0  0  0  0  0  0  0  0
   24.3273    8.2221   54.2908 C   0  0  0  0  0  0  0  0  0  0  0  0
   25.5025    7.7345   53.7946 C   0  0  0  0  0  0  0  0  0  0  0  0
   26.6874    8.0451   54.3982 C   0  0  0  0  0  0  0  0  0  0  0  0
   26.7015    8.8496   55.5064 C   0  0  0  0  0  0  0  0  0  0  0  0
   28.2523    9.2274   56.2559 Cl  0  0  0  0  0  0  0  0  0  0  0  0
   25.5494    9.3687   56.0480 C   0  0  0  0  0  0  0  0  0  0  0  0
   24.3720    9.0304   55.4077 C   0  0  0  0  0  0  0  0  0  0  0  0
   23.2256    9.5537   55.9621 F   0  0  0  0  0  0  0  0  0  0  0  0
   19.2897    4.8642   53.3515 N   0  0  0  0  0  0  0  0  0  0  0  0
   20.6851    5.0456   53.3714 C   0  0  0  0  0  0  0  0  0  0  0  0
   21.4625    4.0505   53.4795 O   0  0  0  0  0  0  0  0  0  0  0  0
   18.7182    5.2496   52.5577 H   0  0  0  0  0  0  0  0  0  0  0  0
   18.7949    4.3489   54.1144 H   0  0  0  0  0  0  0  0  0  0  0  0
 20 21  1  0  0  0
 21 22  2  0  0  0
 21  1  1  0  0  0
  1  2  2  0  0  0
  2  3  1  0  0  0
  3  4  2  0  0  0
  4  5  1  0  0  0
  5  6  1  0  0  0
  6  7  1  0  0  0
  7  8  1  0  0  0
  7  9  1  0  0  0
  9 10  1  0  0  0
 10 11  2  0  0  0
  3 12  1  0  0  0
 12 13  2  0  0  0
 13 14  1  0  0  0
 14 15  2  0  0  0
 15 16  1  0  0  0
 15 17  1  0  0  0
 17 18  2  0  0  0
 18 19  1  0  0  0
 11  1  1  0  0  0
 18 12  1  0  0  0
 10  4  1  0  0  0
 20 23  1  0  0  0
 20 24  1  0  0  0
M  END
> <minimizedAffinity>
13.21916

> <CNNscore>
0.6661773920

> <CNNaffinity>
6.2764425278

> <CNN_VS>
4.1812243462

> <CNNaffinity_variance>
0.3894859850

$$$$
[H]c1c([H])c(-c2c([H])c(C(=O)N([H])[H])nc3c2C([H])([H])C([H])([H])[C@@]([H])(F)O3)c(F)c([H])c1Cl


 24 26  0  0  0  0  0  0  0  0999 V2000
   21.7028    6.6162   53.8927 C   0  0  0  0  0  0  0  0  0  0  0  0
   23.0356    6.9044   54.0104 C   0  0  0  0  0  0  0  0  0  0  0  0
   23.4595    8.1669   54.4264 C   0  0  0  0  0  0  0  0  0  0  0  0
   22.5461    9.1389   54.7218 C   0  0  0  0  0  0  0  0  0  0  0  0
   22.8660   10.5064   55.1209 C   0  0  0  0  0  0  0  0  0  0  0  0
   21.7212   11.0023   56.0197 C   0  0  0  0  0  0  0  0  0  0  0  0
   20.5043   11.0445   55.1162 C   0  0  0  0  0  0  0  0  0  0  0  0
   20.8556   11.6122   53.8943 F   0  0  0  0  0  0  0  0  0  0  0  0
   20.1661    9.7010   54.8600 O   0  0  0  0  0  0  0  0  0  0  0  0
   21.1950    8.8070   54.5902 C   0  0  0  0  0  0  0  0  0  0  0  0
   20.8426    7.5930   54.1924 N   0  0  0  0  0  0  0  0  0  0  0  0
   24.9063    8.3702   54.5863 C   0  0  0  0  0  0  0  0  0  0  0  0
   25.4877    8.7624   55.7581 C   0  0  0  0  0  0  0  0  0  0  0  0
   26.8450    8.8834   55.8477 C   0  0  0  0  0  0  0  0  0  0  0  0
   27.6303    8.6105   54.7594 C   0  0  0  0  0  0  0  0  0  0  0  0
   29.3787    8.7783   54.9164 Cl  0  0  0  0  0  0  0  0  0  0  0  0
   27.0991    8.2113   53.5559 C   0  0  0  0  0  0  0  0  0  0  0  0
   25.7220    8.1014   53.5070 C   0  0  0  0  0  0  0  0  0  0  0  0
   25.2029    7.7043   52.2953 F   0  0  0  0  0  0  0  0  0  0  0  0
   19.8815    5.0982   53.1252 N   0  0  0  0  0  0  0  0  0  0  0  0
   21.2327    5.2963   53.4650 C   0  0  0  0  0  0  0  0  0  0  0  0
   22.0589    4.3370   53.4068 O   0  0  0  0  0  0  0  0  0  0  0  0
   19.4262    5.7028   52.3956 H   0  0  0  0  0  0  0  0  0  0  0  0
   19.3063    4.3555   53.5834 H   0  0  0  0  0  0  0  0  0  0  0  0
 20 21  1  0  0  0
 21 22  2  0  0  0
 21  1  1  0  0  0
  1  2  2  0  0  0
  2  3  1  0  0  0
  3  4  2  0  0  0
  4  5  1  0  0  0
  5  6  1  0  0  0
  6  7  1  0  0  0
  7  8  1  0  0  0
  7  9  1  0  0  0
  9 10  1  0  0  0
 10 11  2  0  0  0
  3 12  1  0  0  0
 12 13  2  0  0  0
 13 14  1  0  0  0
 14 15  2  0  0  0
 15 16  1  0  0  0
 15 17  1  0  0  0
 17 18  2  0  0  0
 18 19  1  0  0  0
 11  1  1  0  0  0
 18 12  1  0  0  0
 10  4  1  0  0  0
 20 23  1  0  0  0
 20 24  1  0  0  0
M  END
> <minimizedAffinity>
12.96036

> <CNNscore>
0.6616836190

> <CNNaffinity>
6.0835838318

> <CNN_VS>
4.0254077911

> <CNNaffinity_variance>
0.2190416306

$$$$
[H]c1c([H])c(-c2c([H])c(C(=O)N([H])[H])nc3c2C([H])([H])C([H])([H])[C@@]([H])(F)O3)c(F)c([H])c1Cl


 24 26  0  0  0  0  0  0  0  0999 V2000
   21.6078   10.2801   52.0185 C   0  0  0  0  0  0  0  0  0  0  0  0
   22.6690   10.2231   52.8810 C   0  0  0  0  0  0  0  0  0  0  0  0
   22.9673    9.0471   53.5700 C   0  0  0  0  0  0  0  0  0  0  0  0
   22.1995    7.9308   53.3943 C   0  0  0  0  0  0  0  0  0  0  0  0
   22.3828    6.6606   54.0906 C   0  0  0  0  0  0  0  0  0  0  0  0
   21.8786    5.5480   53.1568 C   0  0  0  0  0  0  0  0  0  0  0  0
   20.3902    5.8004   53.0149 C   0  0  0  0  0  0  0  0  0  0  0  0
   19.8499    6.0919   54.2647 F   0  0  0  0  0  0  0  0  0  0  0  0
   20.2686    6.9678   52.2353 O   0  0  0  0  0  0  0  0  0  0  0  0
   21.1254    8.0276   52.5056 C   0  0  0  0  0  0  0  0  0  0  0  0
   20.8838    9.1672   51.8738 N   0  0  0  0  0  0  0  0  0  0  0  0
   24.1613    9.0555   54.4269 C   0  0  0  0  0  0  0  0  0  0  0  0
   24.2012    9.6436   55.6588 C   0  0  0  0  0  0  0  0  0  0  0  0
   25.3312    9.5693   56.4220 C   0  0  0  0  0  0  0  0  0  0  0  0
   26.4316    8.9021   55.9533 C   0  0  0  0  0  0  0  0  0  0  0  0
   27.8707    8.8286   56.9697 Cl  0  0  0  0  0  0  0  0  0  0  0  0
   26.4470    8.2913   54.7218 C   0  0  0  0  0  0  0  0  0  0  0  0
   25.2841    8.3899   53.9810 C   0  0  0  0  0  0  0  0  0  0  0  0
   25.3140    7.7770   52.7486 F   0  0  0  0  0  0  0  0  0  0  0  0
   21.6882   12.7576   51.7611 N   0  0  0  0  0  0  0  0  0  0  0  0
   21.2789   11.5007   51.2781 C   0  0  0  0  0  0  0  0  0  0  0  0
   20.6207   11.4084   50.1991 O   0  0  0  0  0  0  0  0  0  0  0  0
   22.7019   12.9371   51.9741 H   0  0  0  0  0  0  0  0  0  0  0  0
   21.0039   13.5320   51.9171 H   0  0  0  0  0  0  0  0  0  0  0  0
 20 21  1  0  0  0
 21 22  2  0  0  0
 21  1  1  0  0  0
  1  2  2  0  0  0
  2  3  1  0  0  0
  3  4  2  0  0  0
  4  5  1  0  0  0
  5  6  1  0  0  0
  6  7  1  0  0  0
  7  8  1  0  0  0
  7  9  1  0  0  0
  9 10  1  0  0  0
 10 11  2  0  0  0
  3 12  1  0  0  0
 12 13  2  0  0  0
 13 14  1  0  0  0
 14 15  2  0  0  0
 15 16  1  0  0  0
 15 17  1  0  0  0
 17 18  2  0  0  0
 18 19  1  0  0  0
 11  1  1  0  0  0
 18 12  1  0  0  0
 10  4  1  0  0  0
 20 23  1  0  0  0
 20 24  1  0  0  0
M  END
> <minimizedAffinity>
12.48401

> <CNNscore>
0.6481313109

> <CNNaffinity>
5.9001488686

> <CNN_VS>
3.8240711689

> <CNNaffinity_variance>
0.2341007292

$$$$
[H]c1c([H])c(-c2c([H])c(C(=O)N([H])[H])nc3c2C([H])([H])C([H])([H])[C@@]([H])(F)O3)c(F)c([H])c1Cl


 24 26  0  0  0  0  0  0  0  0999 V2000
   24.0208    6.3363   53.2202 C   0  0  0  0  0  0  0  0  0  0  0  0
   24.9630    6.9918   53.9657 C   0  0  0  0  0  0  0  0  0  0  0  0
   24.6836    8.2325   54.5396 C   0  0  0  0  0  0  0  0  0  0  0  0
   23.4604    8.8147   54.3630 C   0  0  0  0  0  0  0  0  0  0  0  0
   23.0664   10.1251   54.8724 C   0  0  0  0  0  0  0  0  0  0  0  0
   21.5480   10.0873   55.1116 C   0  0  0  0  0  0  0  0  0  0  0  0
   20.9389    9.9113   53.7342 C   0  0  0  0  0  0  0  0  0  0  0  0
   21.5789   10.7596   52.8343 F   0  0  0  0  0  0  0  0  0  0  0  0
   21.2454    8.5934   53.3414 O   0  0  0  0  0  0  0  0  0  0  0  0
   22.5247    8.1151   53.5963 C   0  0  0  0  0  0  0  0  0  0  0  0
   22.8378    6.9385   53.0731 N   0  0  0  0  0  0  0  0  0  0  0  0
   25.7302    8.8359   55.3767 C   0  0  0  0  0  0  0  0  0  0  0  0
   25.4720    9.5218   56.5290 C   0  0  0  0  0  0  0  0  0  0  0  0
   26.4986   10.0133   57.2836 C   0  0  0  0  0  0  0  0  0  0  0  0
   27.7948    9.8189   56.8864 C   0  0  0  0  0  0  0  0  0  0  0  0
   29.0916   10.4689   57.8889 Cl  0  0  0  0  0  0  0  0  0  0  0  0
   28.1127    9.1356   55.7366 C   0  0  0  0  0  0  0  0  0  0  0  0
   27.0451    8.6548   55.0017 C   0  0  0  0  0  0  0  0  0  0  0  0
   27.3771    7.9756   53.8511 F   0  0  0  0  0  0  0  0  0  0  0  0
   24.6287    4.9341   51.2517 N   0  0  0  0  0  0  0  0  0  0  0  0
   24.2876    5.0298   52.6137 C   0  0  0  0  0  0  0  0  0  0  0  0
   24.2058    3.9888   53.3319 O   0  0  0  0  0  0  0  0  0  0  0  0
   25.4388    5.4848   50.8701 H   0  0  0  0  0  0  0  0  0  0  0  0
   24.0925    4.3217   50.5961 H   0  0  0  0  0  0  0  0  0  0  0  0
 20 21  1  0  0  0
 21 22  2  0  0  0
 21  1  1  0  0  0
  1  2  2  0  0  0
  2  3  1  0  0  0
  3  4  2  0  0  0
  4  5  1  0  0  0
  5  6  1  0  0  0
  6  7  1  0  0  0
  7  8  1  0  0  0
  7  9  1  0  0  0
  9 10  1  0  0  0
 10 11  2  0  0  0
  3 12  1  0  0  0
 12 13  2  0  0  0
 13 14  1  0  0  0
 14 15  2  0  0  0
 15 16  1  0  0  0
 15 17  1  0  0  0
 17 18  2  0  0  0
 18 19  1  0  0  0
 11  1  1  0  0  0
 18 12  1  0  0  0
 10  4  1  0  0  0
 20 23  1  0  0  0
 20 24  1  0  0  0
M  END
> <minimizedAffinity>
14.67294

> <CNNscore>
0.6218796968

> <CNNaffinity>
5.9073019028

> <CNN_VS>
3.6736311913

> <CNNaffinity_variance>
0.1294844896

$$$$
[H]c1c([H])c(-c2c([H])c(C(=O)N([H])[H])nc3c2C([H])([H])C([H])([H])[C@@]([H])(F)O3)c(F)c([H])c1Cl


 24 26  0  0  0  0  0  0  0  0999 V2000
   21.8874   10.2648   53.2274 C   0  0  0  0  0  0  0  0  0  0  0  0
   23.1599   10.1295   53.7129 C   0  0  0  0  0  0  0  0  0  0  0  0
   23.6676    8.8734   54.0463 C   0  0  0  0  0  0  0  0  0  0  0  0
   22.8974    7.7553   53.8942 C   0  0  0  0  0  0  0  0  0  0  0  0
   23.2989    6.3974   54.2502 C   0  0  0  0  0  0  0  0  0  0  0  0
   22.5514    5.4363   53.3111 C   0  0  0  0  0  0  0  0  0  0  0  0
   21.0863    5.6053   53.6634 C   0  0  0  0  0  0  0  0  0  0  0  0
   20.9442    5.6311   55.0484 F   0  0  0  0  0  0  0  0  0  0  0  0
   20.7198    6.8813   53.1917 O   0  0  0  0  0  0  0  0  0  0  0  0
   21.6042    7.9334   53.3955 C   0  0  0  0  0  0  0  0  0  0  0  0
   21.1682    9.1475   53.0921 N   0  0  0  0  0  0  0  0  0  0  0  0
   25.0642    8.8126   54.5000 C   0  0  0  0  0  0  0  0  0  0  0  0
   25.4492    9.0479   55.7889 C   0  0  0  0  0  0  0  0  0  0  0  0
   26.7604    8.9247   56.1502 C   0  0  0  0  0  0  0  0  0  0  0  0
   27.6966    8.5630   55.2183 C   0  0  0  0  0  0  0  0  0  0  0  0
   29.3790    8.4144   55.7253 Cl  0  0  0  0  0  0  0  0  0  0  0  0
   27.3654    8.3133   53.9076 C   0  0  0  0  0  0  0  0  0  0  0  0
   26.0285    8.4492   53.5832 C   0  0  0  0  0  0  0  0  0  0  0  0
   25.7110    8.1997   52.2670 F   0  0  0  0  0  0  0  0  0  0  0  0
   21.4633   12.0573   51.5489 N   0  0  0  0  0  0  0  0  0  0  0  0
   21.3345   11.5716   52.8634 C   0  0  0  0  0  0  0  0  0  0  0  0
   20.7405   12.2576   53.7482 O   0  0  0  0  0  0  0  0  0  0  0  0
   21.1262   11.4804   50.7372 H   0  0  0  0  0  0  0  0  0  0  0  0
   21.8909   12.9901   51.3507 H   0  0  0  0  0  0  0  0  0  0  0  0
 20 21  1  0  0  0
 21 22  2  0  0  0
 21  1  1  0  0  0
  1  2  2  0  0  0
  2  3  1  0  0  0
  3  4  2  0  0  0
  4  5  1  0  0  0
  5  6  1  0  0  0
  6  7  1  0  0  0
  7  8  1  0  0  0
  7  9  1  0  0  0
  9 10  1  0  0  0
 10 11  2  0  0  0
  3 12  1  0  0  0
 12 13  2  0  0  0
 13 14  1  0  0  0
 14 15  2  0  0  0
 15 16  1  0  0  0
 15 17  1  0  0  0
 17 18  2  0  0  0
 18 19  1  0  0  0
 11  1  1  0  0  0
 18 12  1  0  0  0
 10  4  1  0  0  0
 20 23  1  0  0  0
 20 24  1  0  0  0
M  END
> <minimizedAffinity>
13.62673

> <CNNscore>
0.6113545895

> <CNNaffinity>
5.7777543068

> <CNN_VS>
3.5322566032

> <CNNaffinity_variance>
0.2336499691

$$$$
[H]c1c([H])c(-c2c([H])c(C(=O)N([H])[H])nc3c2C([H])([H])C([H])([H])[C@@]([H])(F)O3)c(F)c([H])c1Cl


 24 26  0  0  0  0  0  0  0  0999 V2000
   27.5676    9.2673   51.7994 C   0  0  0  0  0  0  0  0  0  0  0  0
   26.3845    8.5979   51.9590 C   0  0  0  0  0  0  0  0  0  0  0  0
   25.9023    8.2929   53.2323 C   0  0  0  0  0  0  0  0  0  0  0  0
   26.6085    8.6580   54.3433 C   0  0  0  0  0  0  0  0  0  0  0  0
   26.2320    8.3561   55.7213 C   0  0  0  0  0  0  0  0  0  0  0  0
   26.7959    9.4787   56.6080 C   0  0  0  0  0  0  0  0  0  0  0  0
   28.3022    9.3520   56.4894 C   0  0  0  0  0  0  0  0  0  0  0  0
   28.6618    8.0102   56.5847 F   0  0  0  0  0  0  0  0  0  0  0  0
   28.6237    9.7689   55.1825 O   0  0  0  0  0  0  0  0  0  0  0  0
   27.8111    9.3402   54.1401 C   0  0  0  0  0  0  0  0  0  0  0  0
   28.2261    9.6077   52.9104 N   0  0  0  0  0  0  0  0  0  0  0  0
   24.5937    7.6287   53.3132 C   0  0  0  0  0  0  0  0  0  0  0  0
   24.4317    6.2736   53.2659 C   0  0  0  0  0  0  0  0  0  0  0  0
   23.1890    5.7228   53.3972 C   0  0  0  0  0  0  0  0  0  0  0  0
   22.0976    6.5301   53.5781 C   0  0  0  0  0  0  0  0  0  0  0  0
   20.5105    5.7796   53.7440 Cl  0  0  0  0  0  0  0  0  0  0  0  0
   22.2023    7.8997   53.6344 C   0  0  0  0  0  0  0  0  0  0  0  0
   23.4768    8.4170   53.4971 C   0  0  0  0  0  0  0  0  0  0  0  0
   23.5672    9.7896   53.5518 F   0  0  0  0  0  0  0  0  0  0  0  0
   28.6959   10.8554   50.2453 N   0  0  0  0  0  0  0  0  0  0  0  0
   28.0910    9.6054   50.4736 C   0  0  0  0  0  0  0  0  0  0  0  0
   27.9901    8.7579   49.5367 O   0  0  0  0  0  0  0  0  0  0  0  0
   29.4972   11.1723   50.8476 H   0  0  0  0  0  0  0  0  0  0  0  0
   28.3681   11.4896   49.4821 H   0  0  0  0  0  0  0  0  0  0  0  0
 20 21  1  0  0  0
 21 22  2  0  0  0
 21  1  1  0  0  0
  1  2  2  0  0  0
  2  3  1  0  0  0
  3  4  2  0  0  0
  4  5  1  0  0  0
  5  6  1  0  0  0
  6  7  1  0  0  0
  7  8  1  0  0  0
  7  9  1  0  0  0
  9 10  1  0  0  0
 10 11  2  0  0  0
  3 12  1  0  0  0
 12 13  2  0  0  0
 13 14  1  0  0  0
 14 15  2  0  0  0
 15 16  1  0  0  0
 15 17  1  0  0  0
 17 18  2  0  0  0
 18 19  1  0  0  0
 11  1  1  0  0  0
 18 12  1  0  0  0
 10  4  1  0  0  0
 20 23  1  0  0  0
 20 24  1  0  0  0
M  END
> <minimizedAffinity>
21.88496

> <CNNscore>
0.5772098899

> <CNNaffinity>
5.5999307632

> <CNN_VS>
3.2323353291

> <CNNaffinity_variance>
0.1606654227

$$$$
[H]c1c([H])c(-c2c([H])c(C(=O)N([H])[H])nc3c2C([H])([H])C([H])([H])[C@@]([H])(F)O3)c(F)c([H])c1Cl


 24 26  0  0  0  0  0  0  0  0999 V2000
   23.8736    6.0568   53.8900 C   0  0  0  0  0  0  0  0  0  0  0  0
   23.1120    7.1900   53.7946 C   0  0  0  0  0  0  0  0  0  0  0  0
   23.6600    8.4440   54.0667 C   0  0  0  0  0  0  0  0  0  0  0  0
   24.9703    8.5591   54.4360 C   0  0  0  0  0  0  0  0  0  0  0  0
   25.6424    9.8060   54.7896 C   0  0  0  0  0  0  0  0  0  0  0  0
   27.1277    9.6466   54.4252 C   0  0  0  0  0  0  0  0  0  0  0  0
   27.6410    8.5544   55.3432 C   0  0  0  0  0  0  0  0  0  0  0  0
   27.1596    8.7700   56.6319 F   0  0  0  0  0  0  0  0  0  0  0  0
   27.0568    7.3572   54.8842 O   0  0  0  0  0  0  0  0  0  0  0  0
   25.7156    7.3802   54.5219 C   0  0  0  0  0  0  0  0  0  0  0  0
   25.1497    6.2127   54.2521 N   0  0  0  0  0  0  0  0  0  0  0  0
   22.7888    9.6125   53.8781 C   0  0  0  0  0  0  0  0  0  0  0  0
   22.6697   10.2810   52.6932 C   0  0  0  0  0  0  0  0  0  0  0  0
   21.8022   11.3293   52.5772 C   0  0  0  0  0  0  0  0  0  0  0  0
   21.0458   11.7146   53.6518 C   0  0  0  0  0  0  0  0  0  0  0  0
   19.9372   13.0725   53.4606 Cl  0  0  0  0  0  0  0  0  0  0  0  0
   21.1243   11.0775   54.8675 C   0  0  0  0  0  0  0  0  0  0  0  0
   22.0140   10.0222   54.9432 C   0  0  0  0  0  0  0  0  0  0  0  0
   22.0854    9.3953   56.1668 F   0  0  0  0  0  0  0  0  0  0  0  0
   21.9356    4.5533   53.4492 N   0  0  0  0  0  0  0  0  0  0  0  0
   23.3234    4.7299   53.6024 C   0  0  0  0  0  0  0  0  0  0  0  0
   24.1137    3.7451   53.4949 O   0  0  0  0  0  0  0  0  0  0  0  0
   21.4037    5.1306   52.7497 H   0  0  0  0  0  0  0  0  0  0  0  0
   21.4078    3.8538   54.0187 H   0  0  0  0  0  0  0  0  0  0  0  0
 20 21  1  0  0  0
 21 22  2  0  0  0
 21  1  1  0  0  0
  1  2  2  0  0  0
  2  3  1  0  0  0
  3  4  2  0  0  0
  4  5  1  0  0  0
  5  6  1  0  0  0
  6  7  1  0  0  0
  7  8  1  0  0  0
  7  9  1  0  0  0
  9 10  1  0  0  0
 10 11  2  0  0  0
  3 12  1  0  0  0
 12 13  2  0  0  0
 13 14  1  0  0  0
 14 15  2  0  0  0
 15 16  1  0  0  0
 15 17  1  0  0  0
 17 18  2  0  0  0
 18 19  1  0  0  0
 11  1  1  0  0  0
 18 12  1  0  0  0
 10  4  1  0  0  0
 20 23  1  0  0  0
 20 24  1  0  0  0
M  END
> <minimizedAffinity>
27.79596

> <CNNscore>
0.5388375521

> <CNNaffinity>
5.7659459114

> <CNN_VS>
3.1069080830

> <CNNaffinity_variance>
0.2980521917

$$$$
[H]OC([H])([H])C([H])([H])c1nc(-c2c([H])c([H])c(F)c(C([H])([H])[H])c2[H])n2c1C([H])([H])C([H])([H])O[C@]([H])(C([H])([H])[H])C2([H])[H]


 23 25  0  0  0  0  0  0  0  0999 V2000
   22.0884    5.5119   56.8078 C   0  0  0  0  0  0  0  0  0  0  0  0
   21.7723    6.3062   55.5275 C   0  0  0  0  0  0  0  0  0  0  0  0
   23.1658    6.6239   54.9514 C   0  0  0  0  0  0  0  0  0  0  0  0
   23.0797    7.6578   53.9369 N   0  0  0  0  0  0  0  0  0  0  0  0
   21.9326    8.0317   53.2918 C   0  0  0  0  0  0  0  0  0  0  0  0
   20.6084    7.4291   53.4434 C   0  0  0  0  0  0  0  0  0  0  0  0
   20.0605    7.5599   54.8428 C   0  0  0  0  0  0  0  0  0  0  0  0
   21.0489    7.4344   55.8073 O   0  0  0  0  0  0  0  0  0  0  0  0
   22.2793    9.0741   52.4613 C   0  0  0  0  0  0  0  0  0  0  0  0
   23.5769    9.2736   52.6363 N   0  0  0  0  0  0  0  0  0  0  0  0
   24.0946    8.4011   53.5497 C   0  0  0  0  0  0  0  0  0  0  0  0
   25.5135    8.4602   53.9292 C   0  0  0  0  0  0  0  0  0  0  0  0
   26.5097    8.0965   53.0786 C   0  0  0  0  0  0  0  0  0  0  0  0
   27.8250    8.1341   53.5704 C   0  0  0  0  0  0  0  0  0  0  0  0
   28.0953    8.5238   54.8578 C   0  0  0  0  0  0  0  0  0  0  0  0
   29.3782    8.5502   55.3033 F   0  0  0  0  0  0  0  0  0  0  0  0
   27.0995    8.8974   55.7347 C   0  0  0  0  0  0  0  0  0  0  0  0
   27.4284    9.3111   57.1215 C   0  0  0  0  0  0  0  0  0  0  0  0
   25.8219    8.8568   55.2462 C   0  0  0  0  0  0  0  0  0  0  0  0
   21.3594    9.8295   51.5511 C   0  0  0  0  0  0  0  0  0  0  0  0
   21.4539   11.3088   51.8232 C   0  0  0  0  0  0  0  0  0  0  0  0
   21.4825   12.0570   50.6592 O   0  0  0  0  0  0  0  0  0  0  0  0
   22.4051   12.3082   50.4186 H   0  0  0  0  0  0  0  0  0  0  0  0
  1  2  1  0  0  0
  2  3  1  0  0  0
  3  4  1  0  0  0
  4  5  1  0  0  0
  5  6  1  0  0  0
  6  7  1  0  0  0
  7  8  1  0  0  0
  5  9  2  0  0  0
  9 20  1  0  0  0
 20 21  1  0  0  0
 21 22  1  0  0  0
  9 10  1  0  0  0
 10 11  2  0  0  0
 11 12  1  0  0  0
 12 13  2  0  0  0
 13 14  1  0  0  0
 14 15  2  0  0  0
 15 16  1  0  0  0
 15 17  1  0  0  0
 17 18  1  0  0  0
 17 19  2  0  0  0
  8  2  1  0  0  0
 19 12  1  0  0  0
 11  4  1  0  0  0
 22 23  1  0  0  0
M  END
> <minimizedAffinity>
9.49750

> <CNNscore>
0.6696948409

> <CNNaffinity>
5.6732969284

> <CNN_VS>
3.7993776798

> <CNNaffinity_variance>
0.1345069706

$$$$
[H]OC([H])([H])C([H])([H])c1nc(-c2c([H])c([H])c(F)c(C([H])([H])[H])c2[H])n2c1C([H])([H])C([H])([H])O[C@]([H])(C([H])([H])[H])C2([H])[H]


 23 25  0  0  0  0  0  0  0  0999 V2000
   21.9210   12.5276   54.6747 C   0  0  0  0  0  0  0  0  0  0  0  0
   21.5515   11.0345   54.6133 C   0  0  0  0  0  0  0  0  0  0  0  0
   22.8097   10.3327   55.1601 C   0  0  0  0  0  0  0  0  0  0  0  0
   22.7811    8.9141   54.8555 N   0  0  0  0  0  0  0  0  0  0  0  0
   21.6644    8.2104   54.4954 C   0  0  0  0  0  0  0  0  0  0  0  0
   20.2965    8.7225   54.4157 C   0  0  0  0  0  0  0  0  0  0  0  0
   20.1385    9.8180   53.3908 C   0  0  0  0  0  0  0  0  0  0  0  0
   21.2473   10.6488   53.3354 O   0  0  0  0  0  0  0  0  0  0  0  0
   22.0845    6.9237   54.2416 C   0  0  0  0  0  0  0  0  0  0  0  0
   23.3916    6.9102   54.4547 N   0  0  0  0  0  0  0  0  0  0  0  0
   23.8447    8.1391   54.8393 C   0  0  0  0  0  0  0  0  0  0  0  0
   25.2734    8.3692   55.0978 C   0  0  0  0  0  0  0  0  0  0  0  0
   25.7102    9.1919   56.0881 C   0  0  0  0  0  0  0  0  0  0  0  0
   27.0968    9.3854   56.2027 C   0  0  0  0  0  0  0  0  0  0  0  0
   27.9770    8.7681   55.3503 C   0  0  0  0  0  0  0  0  0  0  0  0
   29.3124    8.9752   55.4875 F   0  0  0  0  0  0  0  0  0  0  0  0
   27.5539    7.9296   54.3413 C   0  0  0  0  0  0  0  0  0  0  0  0
   28.5344    7.2804   53.4358 C   0  0  0  0  0  0  0  0  0  0  0  0
   26.2016    7.7482   54.2377 C   0  0  0  0  0  0  0  0  0  0  0  0
   21.2242    5.7777   53.8038 C   0  0  0  0  0  0  0  0  0  0  0  0
   20.7141    6.0117   52.4052 C   0  0  0  0  0  0  0  0  0  0  0  0
   20.9957    7.2877   51.9491 O   0  0  0  0  0  0  0  0  0  0  0  0
   20.2170    7.8838   52.0517 H   0  0  0  0  0  0  0  0  0  0  0  0
  1  2  1  0  0  0
  2  3  1  0  0  0
  3  4  1  0  0  0
  4  5  1  0  0  0
  5  6  1  0  0  0
  6  7  1  0  0  0
  7  8  1  0  0  0
  5  9  2  0  0  0
  9 20  1  0  0  0
 20 21  1  0  0  0
 21 22  1  0  0  0
  9 10  1  0  0  0
 10 11  2  0  0  0
 11 12  1  0  0  0
 12 13  2  0  0  0
 13 14  1  0  0  0
 14 15  2  0  0  0
 15 16  1  0  0  0
 15 17  1  0  0  0
 17 18  1  0  0  0
 17 19  2  0  0  0
  8  2  1  0  0  0
 19 12  1  0  0  0
 11  4  1  0  0  0
 22 23  1  0  0  0
M  END
> <minimizedAffinity>
19.44455

> <CNNscore>
0.6239061356

> <CNNaffinity>
5.3330044746

> <CNN_VS>
3.3272941113

> <CNNaffinity_variance>
0.6507094502

$$$$
[H]OC([H])([H])C([H])([H])c1nc(-c2c([H])c([H])c(F)c(C([H])([H])[H])c2[H])n2c1C([H])([H])C([H])([H])O[C@]([H])(C([H])([H])[H])C2([H])[H]


 23 25  0  0  0  0  0  0  0  0999 V2000
   21.6970   11.5460   52.1183 C   0  0  0  0  0  0  0  0  0  0  0  0
   21.4531   10.1036   52.5977 C   0  0  0  0  0  0  0  0  0  0  0  0
   22.7256    9.7751   53.4025 C   0  0  0  0  0  0  0  0  0  0  0  0
   22.8306    8.3473   53.6390 N   0  0  0  0  0  0  0  0  0  0  0  0
   21.7996    7.4548   53.5279 C   0  0  0  0  0  0  0  0  0  0  0  0
   20.4031    7.7659   53.2236 C   0  0  0  0  0  0  0  0  0  0  0  0
   20.2243    8.3941   51.8638 C   0  0  0  0  0  0  0  0  0  0  0  0
   21.2642    9.2530   51.5417 O   0  0  0  0  0  0  0  0  0  0  0  0
   22.3371    6.2116   53.7770 C   0  0  0  0  0  0  0  0  0  0  0  0
   23.6245    6.4047   54.0206 N   0  0  0  0  0  0  0  0  0  0  0  0
   23.9518    7.7277   53.9412 C   0  0  0  0  0  0  0  0  0  0  0  0
   25.3376    8.1751   54.1413 C   0  0  0  0  0  0  0  0  0  0  0  0
   26.2459    8.2035   53.1301 C   0  0  0  0  0  0  0  0  0  0  0  0
   27.5579    8.5895   53.4510 C   0  0  0  0  0  0  0  0  0  0  0  0
   27.9100    8.9263   54.7336 C   0  0  0  0  0  0  0  0  0  0  0  0
   29.1872    9.2960   55.0115 F   0  0  0  0  0  0  0  0  0  0  0  0
   27.0035    8.9051   55.7718 C   0  0  0  0  0  0  0  0  0  0  0  0
   27.4201    9.2733   57.1478 C   0  0  0  0  0  0  0  0  0  0  0  0
   25.7285    8.5272   55.4490 C   0  0  0  0  0  0  0  0  0  0  0  0
   21.6016    4.9062   53.7640 C   0  0  0  0  0  0  0  0  0  0  0  0
   20.1567    5.1242   53.3954 C   0  0  0  0  0  0  0  0  0  0  0  0
   19.4219    3.9518   53.4310 O   0  0  0  0  0  0  0  0  0  0  0  0
   19.3216    3.5656   52.5294 H   0  0  0  0  0  0  0  0  0  0  0  0
  1  2  1  0  0  0
  2  3  1  0  0  0
  3  4  1  0  0  0
  4  5  1  0  0  0
  5  6  1  0  0  0
  6  7  1  0  0  0
  7  8  1  0  0  0
  5  9  2  0  0  0
  9 20  1  0  0  0
 20 21  1  0  0  0
 21 22  1  0  0  0
  9 10  1  0  0  0
 10 11  2  0  0  0
 11 12  1  0  0  0
 12 13  2  0  0  0
 13 14  1  0  0  0
 14 15  2  0  0  0
 15 16  1  0  0  0
 15 17  1  0  0  0
 17 18  1  0  0  0
 17 19  2  0  0  0
  8  2  1  0  0  0
 19 12  1  0  0  0
 11  4  1  0  0  0
 22 23  1  0  0  0
M  END
> <minimizedAffinity>
3.42177

> <CNNscore>
0.6232933402

> <CNNaffinity>
5.8647871017

> <CNN_VS>
3.6554827690

> <CNNaffinity_variance>
0.1593081802

$$$$
[H]OC([H])([H])C([H])([H])c1nc(-c2c([H])c([H])c(F)c(C([H])([H])[H])c2[H])n2c1C([H])([H])C([H])([H])O[C@]([H])(C([H])([H])[H])C2([H])[H]


 23 25  0  0  0  0  0  0  0  0999 V2000
   22.3187    6.4856   51.2285 C   0  0  0  0  0  0  0  0  0  0  0  0
   21.8630    7.5403   52.2532 C   0  0  0  0  0  0  0  0  0  0  0  0
   23.1878    8.1514   52.7494 C   0  0  0  0  0  0  0  0  0  0  0  0
   22.9783    8.9163   53.9647 N   0  0  0  0  0  0  0  0  0  0  0  0
   21.7663    9.3708   54.4077 C   0  0  0  0  0  0  0  0  0  0  0  0
   20.4801    9.2387   53.7236 C   0  0  0  0  0  0  0  0  0  0  0  0
   20.0591    7.8021   53.5371 C   0  0  0  0  0  0  0  0  0  0  0  0
   21.1351    6.9713   53.2634 O   0  0  0  0  0  0  0  0  0  0  0  0
   22.0043    9.9907   55.6141 C   0  0  0  0  0  0  0  0  0  0  0  0
   23.3059    9.8868   55.8355 N   0  0  0  0  0  0  0  0  0  0  0  0
   23.9309    9.2227   54.8197 C   0  0  0  0  0  0  0  0  0  0  0  0
   25.3762    8.9590   54.8677 C   0  0  0  0  0  0  0  0  0  0  0  0
   26.0342    8.3267   53.8600 C   0  0  0  0  0  0  0  0  0  0  0  0
   27.4036    8.0724   54.0421 C   0  0  0  0  0  0  0  0  0  0  0  0
   28.0534    8.4482   55.1906 C   0  0  0  0  0  0  0  0  0  0  0  0
   29.3787    8.1885   55.3361 F   0  0  0  0  0  0  0  0  0  0  0  0
   27.4043    9.0914   56.2227 C   0  0  0  0  0  0  0  0  0  0  0  0
   28.1385    9.4812   57.4521 C   0  0  0  0  0  0  0  0  0  0  0  0
   26.0706    9.3338   56.0358 C   0  0  0  0  0  0  0  0  0  0  0  0
   20.9828   10.6426   56.4955 C   0  0  0  0  0  0  0  0  0  0  0  0
   19.6017   10.1502   56.1473 C   0  0  0  0  0  0  0  0  0  0  0  0
   18.6173   10.7717   56.8958 O   0  0  0  0  0  0  0  0  0  0  0  0
   18.3404   10.2108   57.6580 H   0  0  0  0  0  0  0  0  0  0  0  0
  1  2  1  0  0  0
  2  3  1  0  0  0
  3  4  1  0  0  0
  4  5  1  0  0  0
  5  6  1  0  0  0
  6  7  1  0  0  0
  7  8  1  0  0  0
  5  9  2  0  0  0
  9 20  1  0  0  0
 20 21  1  0  0  0
 21 22  1  0  0  0
  9 10  1  0  0  0
 10 11  2  0  0  0
 11 12  1  0  0  0
 12 13  2  0  0  0
 13 14  1  0  0  0
 14 15  2  0  0  0
 15 16  1  0  0  0
 15 17  1  0  0  0
 17 18  1  0  0  0
 17 19  2  0  0  0
  8  2  1  0  0  0
 19 12  1  0  0  0
 11  4  1  0  0  0
 22 23  1  0  0  0
M  END
> <minimizedAffinity>
17.85683

> <CNNscore>
0.5948426127

> <CNNaffinity>
5.7443361282

> <CNN_VS>
3.4169759750

> <CNNaffinity_variance>
0.3018623292

$$$$
[H]OC([H])([H])C([H])([H])c1nc(-c2c([H])c([H])c(F)c(C([H])([H])[H])c2[H])n2c1C([H])([H])C([H])([H])O[C@]([H])(C([H])([H])[H])C2([H])[H]


 23 25  0  0  0  0  0  0  0  0999 V2000
   21.7754    5.6568   57.2790 C   0  0  0  0  0  0  0  0  0  0  0  0
   21.5973    6.3021   55.8928 C   0  0  0  0  0  0  0  0  0  0  0  0
   23.0429    6.5986   55.4487 C   0  0  0  0  0  0  0  0  0  0  0  0
   23.0580    7.5169   54.3253 N   0  0  0  0  0  0  0  0  0  0  0  0
   21.9878    7.7867   53.5168 C   0  0  0  0  0  0  0  0  0  0  0  0
   20.6655    7.1643   53.5802 C   0  0  0  0  0  0  0  0  0  0  0  0
   19.9558    7.4254   54.8855 C   0  0  0  0  0  0  0  0  0  0  0  0
   20.8268    7.4315   55.9645 O   0  0  0  0  0  0  0  0  0  0  0  0
   22.4111    8.7456   52.6236 C   0  0  0  0  0  0  0  0  0  0  0  0
   23.6757    9.0008   52.9232 N   0  0  0  0  0  0  0  0  0  0  0  0
   24.0981    8.2451   53.9786 C   0  0  0  0  0  0  0  0  0  0  0  0
   25.4618    8.3859   54.5092 C   0  0  0  0  0  0  0  0  0  0  0  0
   25.7403    9.1324   55.6107 C   0  0  0  0  0  0  0  0  0  0  0  0
   27.0880    9.2463   55.9901 C   0  0  0  0  0  0  0  0  0  0  0  0
   28.0850    8.6280   55.2787 C   0  0  0  0  0  0  0  0  0  0  0  0
   29.3789    8.7571   55.6717 F   0  0  0  0  0  0  0  0  0  0  0  0
   27.8228    7.8660   54.1604 C   0  0  0  0  0  0  0  0  0  0  0  0
   28.9269    7.2134   53.4135 C   0  0  0  0  0  0  0  0  0  0  0  0
   26.5072    7.7617   53.7988 C   0  0  0  0  0  0  0  0  0  0  0  0
   21.5909    9.3733   51.5381 C   0  0  0  0  0  0  0  0  0  0  0  0
   20.9575    8.3088   50.6797 C   0  0  0  0  0  0  0  0  0  0  0  0
   19.6626    8.0179   51.0722 O   0  0  0  0  0  0  0  0  0  0  0  0
   19.6333    7.2104   51.6372 H   0  0  0  0  0  0  0  0  0  0  0  0
  1  2  1  0  0  0
  2  3  1  0  0  0
  3  4  1  0  0  0
  4  5  1  0  0  0
  5  6  1  0  0  0
  6  7  1  0  0  0
  7  8  1  0  0  0
  5  9  2  0  0  0
  9 20  1  0  0  0
 20 21  1  0  0  0
 21 22  1  0  0  0
  9 10  1  0  0  0
 10 11  2  0  0  0
 11 12  1  0  0  0
 12 13  2  0  0  0
 13 14  1  0  0  0
 14 15  2  0  0  0
 15 16  1  0  0  0
 15 17  1  0  0  0
 17 18  1  0  0  0
 17 19  2  0  0  0
  8  2  1  0  0  0
 19 12  1  0  0  0
 11  4  1  0  0  0
 22 23  1  0  0  0
M  END
> <minimizedAffinity>
15.85630

> <CNNscore>
0.5800197124

> <CNNaffinity>
5.3917021751

> <CNN_VS>
3.1272935867

> <CNNaffinity_variance>
0.3414019942

$$$$
[H]OC([H])([H])C([H])([H])c1nc(-c2c([H])c([H])c(F)c(C([H])([H])[H])c2[H])n2c1C([H])([H])C([H])([H])O[C@]([H])(C([H])([H])[H])C2([H])[H]


 23 25  0  0  0  0  0  0  0  0999 V2000
   21.7129   11.7662   52.2795 C   0  0  0  0  0  0  0  0  0  0  0  0
   21.4154   10.2907   52.6027 C   0  0  0  0  0  0  0  0  0  0  0  0
   22.4772    9.9364   53.6619 C   0  0  0  0  0  0  0  0  0  0  0  0
   22.5747    8.4985   53.8317 N   0  0  0  0  0  0  0  0  0  0  0  0
   21.6297    7.5942   53.4303 C   0  0  0  0  0  0  0  0  0  0  0  0
   20.3318    7.8960   52.8269 C   0  0  0  0  0  0  0  0  0  0  0  0
   20.4514    8.6082   51.5025 C   0  0  0  0  0  0  0  0  0  0  0  0
   21.5067    9.5075   51.4836 O   0  0  0  0  0  0  0  0  0  0  0  0
   22.1381    6.3487   53.7244 C   0  0  0  0  0  0  0  0  0  0  0  0
   23.3263    6.5518   54.2731 N   0  0  0  0  0  0  0  0  0  0  0  0
   23.6162    7.8835   54.3506 C   0  0  0  0  0  0  0  0  0  0  0  0
   24.9013    8.3452   54.8951 C   0  0  0  0  0  0  0  0  0  0  0  0
   24.9794    9.2111   55.9402 C   0  0  0  0  0  0  0  0  0  0  0  0
   26.2598    9.6323   56.3358 C   0  0  0  0  0  0  0  0  0  0  0  0
   27.3881    9.1871   55.6946 C   0  0  0  0  0  0  0  0  0  0  0  0
   28.6122    9.6126   56.1015 F   0  0  0  0  0  0  0  0  0  0  0  0
   27.3296    8.3082   54.6342 C   0  0  0  0  0  0  0  0  0  0  0  0
   28.5709    7.8493   53.9624 C   0  0  0  0  0  0  0  0  0  0  0  0
   26.0780    7.9045   54.2562 C   0  0  0  0  0  0  0  0  0  0  0  0
   21.4722    5.0321   53.4629 C   0  0  0  0  0  0  0  0  0  0  0  0
   19.9754    5.2029   53.4211 C   0  0  0  0  0  0  0  0  0  0  0  0
   19.3070    3.9910   53.4368 O   0  0  0  0  0  0  0  0  0  0  0  0
   19.0386    3.7192   52.5278 H   0  0  0  0  0  0  0  0  0  0  0  0
  1  2  1  0  0  0
  2  3  1  0  0  0
  3  4  1  0  0  0
  4  5  1  0  0  0
  5  6  1  0  0  0
  6  7  1  0  0  0
  7  8  1  0  0  0
  5  9  2  0  0  0
  9 20  1  0  0  0
 20 21  1  0  0  0
 21 22  1  0  0  0
  9 10  1  0  0  0
 10 11  2  0  0  0
 11 12  1  0  0  0
 12 13  2  0  0  0
 13 14  1  0  0  0
 14 15  2  0  0  0
 15 16  1  0  0  0
 15 17  1  0  0  0
 17 18  1  0  0  0
 17 19  2  0  0  0
  8  2  1  0  0  0
 19 12  1  0  0  0
 11  4  1  0  0  0
 22 23  1  0  0  0
M  END
> <minimizedAffinity>
5.99507

> <CNNscore>
0.5768094063

> <CNNaffinity>
5.7912697792

> <CNN_VS>
3.3404588699

> <CNNaffinity_variance>
0.2038551122

$$$$
[H]OC([H])([H])C([H])([H])c1nc(-c2c([H])c([H])c(F)c(C([H])([H])[H])c2[H])n2c1C([H])([H])C([H])([H])O[C@]([H])(C([H])([H])[H])C2([H])[H]


 23 25  0  0  0  0  0  0  0  0999 V2000
   21.7880   11.9722   52.4161 C   0  0  0  0  0  0  0  0  0  0  0  0
   21.5033   10.4937   52.7369 C   0  0  0  0  0  0  0  0  0  0  0  0
   22.5485   10.1554   53.8176 C   0  0  0  0  0  0  0  0  0  0  0  0
   22.6613    8.7193   53.9927 N   0  0  0  0  0  0  0  0  0  0  0  0
   21.7362    7.8020   53.5748 C   0  0  0  0  0  0  0  0  0  0  0  0
   20.4467    8.0855   52.9452 C   0  0  0  0  0  0  0  0  0  0  0  0
   20.5832    8.7964   51.6217 C   0  0  0  0  0  0  0  0  0  0  0  0
   21.6269    9.7094   51.6216 O   0  0  0  0  0  0  0  0  0  0  0  0
   22.2549    6.5638   53.8819 C   0  0  0  0  0  0  0  0  0  0  0  0
   23.4293    6.7835   54.4534 N   0  0  0  0  0  0  0  0  0  0  0  0
   23.7003    8.1191   54.5335 C   0  0  0  0  0  0  0  0  0  0  0  0
   24.9682    8.5986   55.1021 C   0  0  0  0  0  0  0  0  0  0  0  0
   25.0144    9.4763   56.1393 C   0  0  0  0  0  0  0  0  0  0  0  0
   26.2815    9.9137   56.5594 C   0  0  0  0  0  0  0  0  0  0  0  0
   27.4282    9.4724   55.9490 C   0  0  0  0  0  0  0  0  0  0  0  0
   28.6387    9.9138   56.3791 F   0  0  0  0  0  0  0  0  0  0  0  0
   27.4022    8.5818   54.8972 C   0  0  0  0  0  0  0  0  0  0  0  0
   28.6627    8.1275   54.2589 C   0  0  0  0  0  0  0  0  0  0  0  0
   26.1633    8.1622   54.4951 C   0  0  0  0  0  0  0  0  0  0  0  0
   21.6114    5.2381   53.6103 C   0  0  0  0  0  0  0  0  0  0  0  0
   22.6631    4.1732   53.4339 C   0  0  0  0  0  0  0  0  0  0  0  0
   23.9471    4.6802   53.5327 O   0  0  0  0  0  0  0  0  0  0  0  0
   24.3364    4.8431   52.6416 H   0  0  0  0  0  0  0  0  0  0  0  0
  1  2  1  0  0  0
  2  3  1  0  0  0
  3  4  1  0  0  0
  4  5  1  0  0  0
  5  6  1  0  0  0
  6  7  1  0  0  0
  7  8  1  0  0  0
  5  9  2  0  0  0
  9 20  1  0  0  0
 20 21  1  0  0  0
 21 22  1  0  0  0
  9 10  1  0  0  0
 10 11  2  0  0  0
 11 12  1  0  0  0
 12 13  2  0  0  0
 13 14  1  0  0  0
 14 15  2  0  0  0
 15 16  1  0  0  0
 15 17  1  0  0  0
 17 18  1  0  0  0
 17 19  2  0  0  0
  8  2  1  0  0  0
 19 12  1  0  0  0
 11  4  1  0  0  0
 22 23  1  0  0  0
M  END
> <minimizedAffinity>
12.13804

> <CNNscore>
0.5667325854

> <CNNaffinity>
5.7081818581

> <CNN_VS>
3.2350127697

> <CNNaffinity_variance>
0.2552715242

$$$$
[H]OC([H])([H])C([H])([H])c1nc(-c2c([H])c([H])c(F)c(C([H])([H])[H])c2[H])n2c1C([H])([H])C([H])([H])O[C@]([H])(C([H])([H])[H])C2([H])[H]


 23 25  0  0  0  0  0  0  0  0999 V2000
   21.1165   11.4318   55.0560 C   0  0  0  0  0  0  0  0  0  0  0  0
   21.5951    9.9961   54.7743 C   0  0  0  0  0  0  0  0  0  0  0  0
   22.8584    9.8634   55.6467 C   0  0  0  0  0  0  0  0  0  0  0  0
   23.6380    8.7054   55.2506 N   0  0  0  0  0  0  0  0  0  0  0  0
   23.1686    7.6612   54.5014 C   0  0  0  0  0  0  0  0  0  0  0  0
   21.7993    7.4760   54.0213 C   0  0  0  0  0  0  0  0  0  0  0  0
   21.3547    8.5674   53.0795 C   0  0  0  0  0  0  0  0  0  0  0  0
   21.8532    9.8093   53.4428 O   0  0  0  0  0  0  0  0  0  0  0  0
   24.2373    6.8148   54.3070 C   0  0  0  0  0  0  0  0  0  0  0  0
   25.2679    7.3678   54.9284 N   0  0  0  0  0  0  0  0  0  0  0  0
   24.9155    8.5447   55.5237 C   0  0  0  0  0  0  0  0  0  0  0  0
   25.9098    9.3528   56.2442 C   0  0  0  0  0  0  0  0  0  0  0  0
   26.0067   10.6993   56.0842 C   0  0  0  0  0  0  0  0  0  0  0  0
   27.0354   11.3598   56.7762 C   0  0  0  0  0  0  0  0  0  0  0  0
   27.9079   10.6744   57.5832 C   0  0  0  0  0  0  0  0  0  0  0  0
   28.8920   11.3422   58.2396 F   0  0  0  0  0  0  0  0  0  0  0  0
   27.8251    9.3097   57.7594 C   0  0  0  0  0  0  0  0  0  0  0  0
   28.7879    8.6005   58.6385 C   0  0  0  0  0  0  0  0  0  0  0  0
   26.8202    8.6758   57.0807 C   0  0  0  0  0  0  0  0  0  0  0  0
   24.2250    5.5300   53.5361 C   0  0  0  0  0  0  0  0  0  0  0  0
   24.0451    5.8047   52.0653 C   0  0  0  0  0  0  0  0  0  0  0  0
   22.8188    6.3814   51.7840 O   0  0  0  0  0  0  0  0  0  0  0  0
   22.1708    5.7078   51.4700 H   0  0  0  0  0  0  0  0  0  0  0  0
  1  2  1  0  0  0
  2  3  1  0  0  0
  3  4  1  0  0  0
  4  5  1  0  0  0
  5  6  1  0  0  0
  6  7  1  0  0  0
  7  8  1  0  0  0
  5  9  2  0  0  0
  9 20  1  0  0  0
 20 21  1  0  0  0
 21 22  1  0  0  0
  9 10  1  0  0  0
 10 11  2  0  0  0
 11 12  1  0  0  0
 12 13  2  0  0  0
 13 14  1  0  0  0
 14 15  2  0  0  0
 15 16  1  0  0  0
 15 17  1  0  0  0
 17 18  1  0  0  0
 17 19  2  0  0  0
  8  2  1  0  0  0
 19 12  1  0  0  0
 11  4  1  0  0  0
 22 23  1  0  0  0
M  END
> <minimizedAffinity>
20.17873

> <CNNscore>
0.5616788864

> <CNNaffinity>
5.3487958908

> <CNN_VS>
3.0043056011

> <CNNaffinity_variance>
0.3398427069

$$$$
[H]OC([H])([H])C([H])([H])c1nc(-c2c([H])c([H])c(F)c(C([H])([H])[H])c2[H])n2c1C([H])([H])C([H])([H])O[C@]([H])(C([H])([H])[H])C2([H])[H]


 23 25  0  0  0  0  0  0  0  0999 V2000
   27.6163    8.9700   51.1966 C   0  0  0  0  0  0  0  0  0  0  0  0
   27.8819    8.8895   52.7109 C   0  0  0  0  0  0  0  0  0  0  0  0
   26.5113    8.4929   53.2929 C   0  0  0  0  0  0  0  0  0  0  0  0
   26.4803    8.7068   54.7279 N   0  0  0  0  0  0  0  0  0  0  0  0
   27.5830    8.8578   55.5236 C   0  0  0  0  0  0  0  0  0  0  0  0
   28.9818    8.7659   55.1055 C   0  0  0  0  0  0  0  0  0  0  0  0
   29.3627    9.8188   54.0945 C   0  0  0  0  0  0  0  0  0  0  0  0
   28.3361   10.0844   53.2011 O   0  0  0  0  0  0  0  0  0  0  0  0
   27.1114    9.0950   56.7955 C   0  0  0  0  0  0  0  0  0  0  0  0
   25.7897    9.0752   56.7120 N   0  0  0  0  0  0  0  0  0  0  0  0
   25.3766    8.8334   55.4336 C   0  0  0  0  0  0  0  0  0  0  0  0
   23.9461    8.8009   55.0967 C   0  0  0  0  0  0  0  0  0  0  0  0
   23.0869    9.7837   55.4763 C   0  0  0  0  0  0  0  0  0  0  0  0
   21.7302    9.6163   55.1526 C   0  0  0  0  0  0  0  0  0  0  0  0
   21.2884    8.5059   54.4787 C   0  0  0  0  0  0  0  0  0  0  0  0
   19.9699    8.3737   54.1798 F   0  0  0  0  0  0  0  0  0  0  0  0
   22.1439    7.4996   54.0841 C   0  0  0  0  0  0  0  0  0  0  0  0
   21.6306    6.3110   53.3586 C   0  0  0  0  0  0  0  0  0  0  0  0
   23.4631    7.6719   54.4046 C   0  0  0  0  0  0  0  0  0  0  0  0
   27.9400    9.3344   58.0207 C   0  0  0  0  0  0  0  0  0  0  0  0
   28.4303   10.7592   58.0497 C   0  0  0  0  0  0  0  0  0  0  0  0
   29.3242   10.9871   59.0815 O   0  0  0  0  0  0  0  0  0  0  0  0
   28.8770   11.4012   59.8566 H   0  0  0  0  0  0  0  0  0  0  0  0
  1  2  1  0  0  0
  2  3  1  0  0  0
  3  4  1  0  0  0
  4  5  1  0  0  0
  5  6  1  0  0  0
  6  7  1  0  0  0
  7  8  1  0  0  0
  5  9  2  0  0  0
  9 20  1  0  0  0
 20 21  1  0  0  0
 21 22  1  0  0  0
  9 10  1  0  0  0
 10 11  2  0  0  0
 11 12  1  0  0  0
 12 13  2  0  0  0
 13 14  1  0  0  0
 14 15  2  0  0  0
 15 16  1  0  0  0
 15 17  1  0  0  0
 17 18  1  0  0  0
 17 19  2  0  0  0
  8  2  1  0  0  0
 19 12  1  0  0  0
 11  4  1  0  0  0
 22 23  1  0  0  0
M  END
> <minimizedAffinity>
14.44604

> <CNNscore>
0.5570257306

> <CNNaffinity>
5.3101158142

> <CNN_VS>
2.9578711987

> <CNNaffinity_variance>
0.4360117316

$$$$
[H]c1c([H])c(-c2nc(-c3c([H])c(C([H])([H])[H])nc(C([H])([H])[H])c3[H])c3n2C([H])([H])[C@]([H])(C([H])([H])F)OC([H])([H])C3([H])[H])c([H])c(OC2([H])C([H])([H])C2([H])[H])c1OC([H])(F)F


 34 38  0  0  0  0  0  0  0  0999 V2000
   27.1452    9.1920   55.4288 C   0  0  0  0  0  0  0  0  0  0  0  0
   27.8394    9.2213   54.2949 N   0  0  0  0  0  0  0  0  0  0  0  0
   27.0482    8.9152   53.2110 C   0  0  0  0  0  0  0  0  0  0  0  0
   25.8267    8.6848   53.6891 N   0  0  0  0  0  0  0  0  0  0  0  0
   24.7275    8.2642   52.8837 C   0  0  0  0  0  0  0  0  0  0  0  0
   23.6831    7.4607   53.6316 C   0  0  0  0  0  0  0  0  0  0  0  0
   23.0514    8.3323   54.5039 O   0  0  0  0  0  0  0  0  0  0  0  0
   23.5850    8.0146   55.7554 C   0  0  0  0  0  0  0  0  0  0  0  0
   24.8279    8.7641   56.0660 C   0  0  0  0  0  0  0  0  0  0  0  0
   25.8543    8.8503   55.0415 C   0  0  0  0  0  0  0  0  0  0  0  0
   29.2159    7.8033   59.7383 C   0  0  0  0  0  0  0  0  0  0  0  0
   28.7165    8.8607   58.8427 C   0  0  0  0  0  0  0  0  0  0  0  0
   28.1873    8.5182   57.6147 C   0  0  0  0  0  0  0  0  0  0  0  0
   27.7113    9.4527   56.7463 C   0  0  0  0  0  0  0  0  0  0  0  0
   27.8058   10.7795   57.2076 C   0  0  0  0  0  0  0  0  0  0  0  0
   28.3367   11.1024   58.4359 C   0  0  0  0  0  0  0  0  0  0  0  0
   28.4301   12.5161   58.9114 C   0  0  0  0  0  0  0  0  0  0  0  0
   28.7886   10.1560   59.2483 N   0  0  0  0  0  0  0  0  0  0  0  0
   27.6288    8.8791   51.8739 C   0  0  0  0  0  0  0  0  0  0  0  0
   28.0092    7.7344   51.2325 C   0  0  0  0  0  0  0  0  0  0  0  0
   28.6179    7.7266   49.9660 C   0  0  0  0  0  0  0  0  0  0  0  0
   28.8358    8.9216   49.3507 C   0  0  0  0  0  0  0  0  0  0  0  0
   28.4625   10.1350   49.9639 C   0  0  0  0  0  0  0  0  0  0  0  0
   27.8781   10.0747   51.1912 C   0  0  0  0  0  0  0  0  0  0  0  0
   29.4194    9.0669   48.1159 O   0  0  0  0  0  0  0  0  0  0  0  0
   28.9610    8.4964   46.9600 C   0  0  0  0  0  0  0  0  0  0  0  0
   29.1373    7.0998   47.0108 F   0  0  0  0  0  0  0  0  0  0  0  0
   27.5935    8.7623   46.7704 F   0  0  0  0  0  0  0  0  0  0  0  0
   28.7027   11.3152   49.3019 O   0  0  0  0  0  0  0  0  0  0  0  0
   28.0301   11.7450   48.1693 C   0  0  0  0  0  0  0  0  0  0  0  0
   28.7450   12.7373   47.2514 C   0  0  0  0  0  0  0  0  0  0  0  0
   27.5303   13.1458   48.0737 C   0  0  0  0  0  0  0  0  0  0  0  0
   22.7322    6.8557   52.6267 C   0  0  0  0  0  0  0  0  0  0  0  0
   21.4636    7.3402   52.9267 F   0  0  0  0  0  0  0  0  0  0  0  0
 11 12  1  0  0  0
 12 13  2  0  0  0
 13 14  1  0  0  0
 14 15  2  0  0  0
 15 16  1  0  0  0
 16 17  1  0  0  0
 16 18  2  0  0  0
 14  1  1  0  0  0
  1  2  1  0  0  0
  2  3  2  0  0  0
  3 19  1  0  0  0
 19 20  2  0  0  0
 20 21  1  0  0  0
 21 22  2  0  0  0
 22 25  1  0  0  0
 25 26  1  0  0  0
 26 27  1  0  0  0
 26 28  1  0  0  0
 22 23  1  0  0  0
 23 29  1  0  0  0
 29 30  1  0  0  0
 30 31  1  0  0  0
 31 32  1  0  0  0
 23 24  2  0  0  0
  3  4  1  0  0  0
  4  5  1  0  0  0
  5  6  1  0  0  0
  6 33  1  0  0  0
 33 34  1  0  0  0
  6  7  1  0  0  0
  7  8  1  0  0  0
  8  9  1  0  0  0
  9 10  1  0  0  0
 18 12  1  0  0  0
 10  1  2  0  0  0
 24 19  1  0  0  0
 10  4  1  0  0  0
 32 30  1  0  0  0
M  END
> <minimizedAffinity>
35.70804

> <CNNscore>
0.5145246983

> <CNNaffinity>
5.8388929367

> <CNN_VS>
3.0042545795

> <CNNaffinity_variance>
0.3295439184

$$$$
[H]c1c([H])c(-c2nc(-c3c([H])c(C([H])([H])[H])nc(C([H])([H])[H])c3[H])c3n2C([H])([H])[C@]([H])(C([H])([H])F)OC([H])([H])C3([H])[H])c([H])c(OC2([H])C([H])([H])C2([H])[H])c1OC([H])(F)F


 34 38  0  0  0  0  0  0  0  0999 V2000
   21.4733    6.1874   53.2465 C   0  0  0  0  0  0  0  0  0  0  0  0
   22.7509    6.2595   53.6084 N   0  0  0  0  0  0  0  0  0  0  0  0
   23.2554    7.5273   53.4284 C   0  0  0  0  0  0  0  0  0  0  0  0
   22.2604    8.2625   52.9352 N   0  0  0  0  0  0  0  0  0  0  0  0
   22.4024    9.6262   52.5431 C   0  0  0  0  0  0  0  0  0  0  0  0
   21.4338   10.0646   51.4636 C   0  0  0  0  0  0  0  0  0  0  0  0
   20.1727   10.0860   52.0369 O   0  0  0  0  0  0  0  0  0  0  0  0
   19.5496    8.9375   51.5423 C   0  0  0  0  0  0  0  0  0  0  0  0
   19.7980    7.7350   52.3761 C   0  0  0  0  0  0  0  0  0  0  0  0
   21.1570    7.4713   52.8167 C   0  0  0  0  0  0  0  0  0  0  0  0
   20.7633    1.2911   52.6890 C   0  0  0  0  0  0  0  0  0  0  0  0
   20.2545    2.6216   53.0638 C   0  0  0  0  0  0  0  0  0  0  0  0
   21.0861    3.7193   52.9695 C   0  0  0  0  0  0  0  0  0  0  0  0
   20.6703    4.9723   53.3024 C   0  0  0  0  0  0  0  0  0  0  0  0
   19.3355    5.0460   53.7441 C   0  0  0  0  0  0  0  0  0  0  0  0
   18.5204    3.9402   53.8316 C   0  0  0  0  0  0  0  0  0  0  0  0
   17.1052    4.0348   54.3024 C   0  0  0  0  0  0  0  0  0  0  0  0
   18.9711    2.7384   53.4959 N   0  0  0  0  0  0  0  0  0  0  0  0
   24.6488    7.8086   53.7537 C   0  0  0  0  0  0  0  0  0  0  0  0
   25.1539    7.8197   55.0230 C   0  0  0  0  0  0  0  0  0  0  0  0
   26.4879    8.1478   55.3186 C   0  0  0  0  0  0  0  0  0  0  0  0
   27.3147    8.4681   54.2853 C   0  0  0  0  0  0  0  0  0  0  0  0
   26.8493    8.4716   52.9545 C   0  0  0  0  0  0  0  0  0  0  0  0
   25.5466    8.1457   52.7349 C   0  0  0  0  0  0  0  0  0  0  0  0
   28.6382    8.8084   54.4235 O   0  0  0  0  0  0  0  0  0  0  0  0
   29.1167    9.7667   55.2747 C   0  0  0  0  0  0  0  0  0  0  0  0
   29.3832   10.9522   54.5623 F   0  0  0  0  0  0  0  0  0  0  0  0
   28.1842   10.0590   56.2854 F   0  0  0  0  0  0  0  0  0  0  0  0
   27.7229    8.8010   51.9461 O   0  0  0  0  0  0  0  0  0  0  0  0
   27.4424    9.6636   50.8985 C   0  0  0  0  0  0  0  0  0  0  0  0
   28.0365    9.3351   49.5284 C   0  0  0  0  0  0  0  0  0  0  0  0
   28.5091   10.5379   50.3338 C   0  0  0  0  0  0  0  0  0  0  0  0
   21.8626   11.4204   50.9554 C   0  0  0  0  0  0  0  0  0  0  0  0
   21.6747   12.3217   51.9977 F   0  0  0  0  0  0  0  0  0  0  0  0
 11 12  1  0  0  0
 12 13  2  0  0  0
 13 14  1  0  0  0
 14 15  2  0  0  0
 15 16  1  0  0  0
 16 17  1  0  0  0
 16 18  2  0  0  0
 14  1  1  0  0  0
  1  2  1  0  0  0
  2  3  2  0  0  0
  3 19  1  0  0  0
 19 20  2  0  0  0
 20 21  1  0  0  0
 21 22  2  0  0  0
 22 25  1  0  0  0
 25 26  1  0  0  0
 26 27  1  0  0  0
 26 28  1  0  0  0
 22 23  1  0  0  0
 23 29  1  0  0  0
 29 30  1  0  0  0
 30 31  1  0  0  0
 31 32  1  0  0  0
 23 24  2  0  0  0
  3  4  1  0  0  0
  4  5  1  0  0  0
  5  6  1  0  0  0
  6 33  1  0  0  0
 33 34  1  0  0  0
  6  7  1  0  0  0
  7  8  1  0  0  0
  8  9  1  0  0  0
  9 10  1  0  0  0
 18 12  1  0  0  0
 10  1  2  0  0  0
 24 19  1  0  0  0
 10  4  1  0  0  0
 32 30  1  0  0  0
M  END
> <minimizedAffinity>
34.73805

> <CNNscore>
0.4999664724

> <CNNaffinity>
6.5429143906

> <CNN_VS>
3.2712378502

> <CNNaffinity_variance>
0.5513775349

$$$$
[H]c1c([H])c(-c2nc(-c3c([H])c(C([H])([H])[H])nc(C([H])([H])[H])c3[H])c3n2C([H])([H])[C@]([H])(C([H])([H])F)OC([H])([H])C3([H])[H])c([H])c(OC2([H])C([H])([H])C2([H])[H])c1OC([H])(F)F


 34 38  0  0  0  0  0  0  0  0999 V2000
   21.0487    6.3937   53.4662 C   0  0  0  0  0  0  0  0  0  0  0  0
   22.1528    6.5891   54.1812 N   0  0  0  0  0  0  0  0  0  0  0  0
   22.6417    7.8650   54.0160 C   0  0  0  0  0  0  0  0  0  0  0  0
   21.8171    8.4777   53.1684 N   0  0  0  0  0  0  0  0  0  0  0  0
   22.0216    9.8031   52.6833 C   0  0  0  0  0  0  0  0  0  0  0  0
   21.4108   10.0657   51.3218 C   0  0  0  0  0  0  0  0  0  0  0  0
   20.0353   10.0558   51.4875 O   0  0  0  0  0  0  0  0  0  0  0  0
   19.6339    8.8241   50.9644 C   0  0  0  0  0  0  0  0  0  0  0  0
   19.6613    7.7291   51.9660 C   0  0  0  0  0  0  0  0  0  0  0  0
   20.8312    7.6044   52.8181 C   0  0  0  0  0  0  0  0  0  0  0  0
   20.6134    1.5192   52.5507 C   0  0  0  0  0  0  0  0  0  0  0  0
   20.0271    2.7911   53.0068 C   0  0  0  0  0  0  0  0  0  0  0  0
   20.8000    3.9347   53.0081 C   0  0  0  0  0  0  0  0  0  0  0  0
   20.3114    5.1374   53.4190 C   0  0  0  0  0  0  0  0  0  0  0  0
   18.9668    5.1093   53.8354 C   0  0  0  0  0  0  0  0  0  0  0  0
   18.2108    3.9589   53.8271 C   0  0  0  0  0  0  0  0  0  0  0  0
   16.7843    3.9454   54.2723 C   0  0  0  0  0  0  0  0  0  0  0  0
   18.7316    2.8094   53.4179 N   0  0  0  0  0  0  0  0  0  0  0  0
   23.8595    8.2724   54.7068 C   0  0  0  0  0  0  0  0  0  0  0  0
   23.9133    9.2569   55.6525 C   0  0  0  0  0  0  0  0  0  0  0  0
   25.1075    9.6717   56.2660 C   0  0  0  0  0  0  0  0  0  0  0  0
   26.2657    9.0579   55.8978 C   0  0  0  0  0  0  0  0  0  0  0  0
   26.2709    8.0341   54.9283 C   0  0  0  0  0  0  0  0  0  0  0  0
   25.0814    7.6792   54.3710 C   0  0  0  0  0  0  0  0  0  0  0  0
   27.5037    9.3583   56.4110 O   0  0  0  0  0  0  0  0  0  0  0  0
   27.7551    9.6737   57.7183 C   0  0  0  0  0  0  0  0  0  0  0  0
   28.5375    8.6651   58.3139 F   0  0  0  0  0  0  0  0  0  0  0  0
   28.4506   10.8912   57.8219 F   0  0  0  0  0  0  0  0  0  0  0  0
   27.4656    7.4447   54.5912 O   0  0  0  0  0  0  0  0  0  0  0  0
   28.4908    8.0631   53.8935 C   0  0  0  0  0  0  0  0  0  0  0  0
   29.7537    8.4385   54.6697 C   0  0  0  0  0  0  0  0  0  0  0  0
   28.8054    9.5006   54.1301 C   0  0  0  0  0  0  0  0  0  0  0  0
   21.9240   11.3915   50.8129 C   0  0  0  0  0  0  0  0  0  0  0  0
   21.5990   12.3462   51.7706 F   0  0  0  0  0  0  0  0  0  0  0  0
 11 12  1  0  0  0
 12 13  2  0  0  0
 13 14  1  0  0  0
 14 15  2  0  0  0
 15 16  1  0  0  0
 16 17  1  0  0  0
 16 18  2  0  0  0
 14  1  1  0  0  0
  1  2  1  0  0  0
  2  3  2  0  0  0
  3 19  1  0  0  0
 19 20  2  0  0  0
 20 21  1  0  0  0
 21 22  2  0  0  0
 22 25  1  0  0  0
 25 26  1  0  0  0
 26 27  1  0  0  0
 26 28  1  0  0  0
 22 23  1  0  0  0
 23 29  1  0  0  0
 29 30  1  0  0  0
 30 31  1  0  0  0
 31 32  1  0  0  0
 23 24  2  0  0  0
  3  4  1  0  0  0
  4  5  1  0  0  0
  5  6  1  0  0  0
  6 33  1  0  0  0
 33 34  1  0  0  0
  6  7  1  0  0  0
  7  8  1  0  0  0
  8  9  1  0  0  0
  9 10  1  0  0  0
 18 12  1  0  0  0
 10  1  2  0  0  0
 24 19  1  0  0  0
 10  4  1  0  0  0
 32 30  1  0  0  0
M  END
> <minimizedAffinity>
28.93193

> <CNNscore>
0.4834454358

> <CNNaffinity>
6.6296567917

> <CNN_VS>
3.2050774097

> <CNNaffinity_variance>
0.5591715574

$$$$
[H]c1c([H])c(-c2nc(-c3c([H])c(C([H])([H])[H])nc(C([H])([H])[H])c3[H])c3n2C([H])([H])[C@]([H])(C([H])([H])F)OC([H])([H])C3([H])[H])c([H])c(OC2([H])C([H])([H])C2([H])[H])c1OC([H])(F)F


 34 38  0  0  0  0  0  0  0  0999 V2000
   21.6172    6.3557   53.3083 C   0  0  0  0  0  0  0  0  0  0  0  0
   22.8896    6.4627   53.6797 N   0  0  0  0  0  0  0  0  0  0  0  0
   23.3571    7.7467   53.5144 C   0  0  0  0  0  0  0  0  0  0  0  0
   22.3437    8.4561   53.0207 N   0  0  0  0  0  0  0  0  0  0  0  0
   22.4474    9.8269   52.6417 C   0  0  0  0  0  0  0  0  0  0  0  0
   21.4733   10.2459   51.5593 C   0  0  0  0  0  0  0  0  0  0  0  0
   20.2083   10.2243   52.1240 O   0  0  0  0  0  0  0  0  0  0  0  0
   19.6233    9.0622   51.6150 C   0  0  0  0  0  0  0  0  0  0  0  0
   19.9021    7.8602   52.4399 C   0  0  0  0  0  0  0  0  0  0  0  0
   21.2654    7.6334   52.8876 C   0  0  0  0  0  0  0  0  0  0  0  0
   21.0604    1.4444   52.7105 C   0  0  0  0  0  0  0  0  0  0  0  0
   20.5082    2.7563   53.0892 C   0  0  0  0  0  0  0  0  0  0  0  0
   21.3072    3.8791   53.0107 C   0  0  0  0  0  0  0  0  0  0  0  0
   20.8506    5.1167   53.3479 C   0  0  0  0  0  0  0  0  0  0  0  0
   19.5100    5.1470   53.7768 C   0  0  0  0  0  0  0  0  0  0  0  0
   18.7277    4.0166   53.8486 C   0  0  0  0  0  0  0  0  0  0  0  0
   17.3058    4.0654   54.3060 C   0  0  0  0  0  0  0  0  0  0  0  0
   19.2176    2.8314   53.5093 N   0  0  0  0  0  0  0  0  0  0  0  0
   24.7391    8.0666   53.8518 C   0  0  0  0  0  0  0  0  0  0  0  0
   25.7946    7.9067   52.9992 C   0  0  0  0  0  0  0  0  0  0  0  0
   27.1261    8.1691   53.3636 C   0  0  0  0  0  0  0  0  0  0  0  0
   27.3714    8.6058   54.6297 C   0  0  0  0  0  0  0  0  0  0  0  0
   26.3215    8.7909   55.5524 C   0  0  0  0  0  0  0  0  0  0  0  0
   25.0545    8.5183   55.1379 C   0  0  0  0  0  0  0  0  0  0  0  0
   28.6184    8.9011   55.1239 O   0  0  0  0  0  0  0  0  0  0  0  0
   29.4432    9.8786   54.6379 C   0  0  0  0  0  0  0  0  0  0  0  0
   29.0953   10.1829   53.3074 F   0  0  0  0  0  0  0  0  0  0  0  0
   29.3409   11.0548   55.4013 F   0  0  0  0  0  0  0  0  0  0  0  0
   26.6202    9.2344   56.8183 O   0  0  0  0  0  0  0  0  0  0  0  0
   27.8959    9.3204   57.3525 C   0  0  0  0  0  0  0  0  0  0  0  0
   28.0743    8.9635   58.8286 C   0  0  0  0  0  0  0  0  0  0  0  0
   28.2347   10.3933   58.3300 C   0  0  0  0  0  0  0  0  0  0  0  0
   21.8647   11.6184   51.0660 C   0  0  0  0  0  0  0  0  0  0  0  0
   21.5473   12.5181   52.0778 F   0  0  0  0  0  0  0  0  0  0  0  0
 11 12  1  0  0  0
 12 13  2  0  0  0
 13 14  1  0  0  0
 14 15  2  0  0  0
 15 16  1  0  0  0
 16 17  1  0  0  0
 16 18  2  0  0  0
 14  1  1  0  0  0
  1  2  1  0  0  0
  2  3  2  0  0  0
  3 19  1  0  0  0
 19 20  2  0  0  0
 20 21  1  0  0  0
 21 22  2  0  0  0
 22 25  1  0  0  0
 25 26  1  0  0  0
 26 27  1  0  0  0
 26 28  1  0  0  0
 22 23  1  0  0  0
 23 29  1  0  0  0
 29 30  1  0  0  0
 30 31  1  0  0  0
 31 32  1  0  0  0
 23 24  2  0  0  0
  3  4  1  0  0  0
  4  5  1  0  0  0
  5  6  1  0  0  0
  6 33  1  0  0  0
 33 34  1  0  0  0
  6  7  1  0  0  0
  7  8  1  0  0  0
  8  9  1  0  0  0
  9 10  1  0  0  0
 18 12  1  0  0  0
 10  1  2  0  0  0
 24 19  1  0  0  0
 10  4  1  0  0  0
 32 30  1  0  0  0
M  END
> <minimizedAffinity>
30.29177

> <CNNscore>
0.4792982340

> <CNNaffinity>
6.5802536011

> <CNN_VS>
3.1539039612

> <CNNaffinity_variance>
0.6887751818

$$$$
[H]c1c([H])c(-c2nc(-c3c([H])c(C([H])([H])[H])nc(C([H])([H])[H])c3[H])c3n2C([H])([H])[C@]([H])(C([H])([H])F)OC([H])([H])C3([H])[H])c([H])c(OC2([H])C([H])([H])C2([H])[H])c1OC([H])(F)F


 34 38  0  0  0  0  0  0  0  0999 V2000
   21.4964    6.4462   53.3465 C   0  0  0  0  0  0  0  0  0  0  0  0
   22.7704    6.5203   53.7206 N   0  0  0  0  0  0  0  0  0  0  0  0
   23.2831    7.7814   53.5179 C   0  0  0  0  0  0  0  0  0  0  0  0
   22.2971    8.5100   52.9976 N   0  0  0  0  0  0  0  0  0  0  0  0
   22.4500    9.8640   52.5768 C   0  0  0  0  0  0  0  0  0  0  0  0
   21.4953   10.2828   51.4774 C   0  0  0  0  0  0  0  0  0  0  0  0
   20.2282   10.3229   52.0364 O   0  0  0  0  0  0  0  0  0  0  0  0
   19.6048    9.1666   51.5607 C   0  0  0  0  0  0  0  0  0  0  0  0
   19.8383    7.9818   52.4238 C   0  0  0  0  0  0  0  0  0  0  0  0
   21.1912    7.7216   52.8848 C   0  0  0  0  0  0  0  0  0  0  0  0
   17.3027    3.9497   54.3304 C   0  0  0  0  0  0  0  0  0  0  0  0
   18.7007    3.9669   53.8670 C   0  0  0  0  0  0  0  0  0  0  0  0
   19.3936    5.1605   53.8396 C   0  0  0  0  0  0  0  0  0  0  0  0
   20.6869    5.2365   53.4207 C   0  0  0  0  0  0  0  0  0  0  0  0
   21.2452    4.0061   53.0249 C   0  0  0  0  0  0  0  0  0  0  0  0
   20.5388    2.8250   53.0592 C   0  0  0  0  0  0  0  0  0  0  0  0
   21.1458    1.5267   52.6356 C   0  0  0  0  0  0  0  0  0  0  0  0
   19.2794    2.8011   53.4752 N   0  0  0  0  0  0  0  0  0  0  0  0
   24.6742    8.0633   53.8519 C   0  0  0  0  0  0  0  0  0  0  0  0
   25.7279    7.8283   53.0147 C   0  0  0  0  0  0  0  0  0  0  0  0
   27.0662    8.0558   53.3777 C   0  0  0  0  0  0  0  0  0  0  0  0
   27.3204    8.5360   54.6262 C   0  0  0  0  0  0  0  0  0  0  0  0
   26.2728    8.7990   55.5324 C   0  0  0  0  0  0  0  0  0  0  0  0
   24.9988    8.5567   55.1203 C   0  0  0  0  0  0  0  0  0  0  0  0
   28.5747    8.8049   55.1168 O   0  0  0  0  0  0  0  0  0  0  0  0
   29.4112    9.7771   54.6404 C   0  0  0  0  0  0  0  0  0  0  0  0
   29.0499   10.1180   53.3223 F   0  0  0  0  0  0  0  0  0  0  0  0
   29.3430   10.9375   55.4312 F   0  0  0  0  0  0  0  0  0  0  0  0
   26.5805    9.2839   56.7809 O   0  0  0  0  0  0  0  0  0  0  0  0
   27.8515    9.3173   57.3320 C   0  0  0  0  0  0  0  0  0  0  0  0
   27.9988    8.9290   58.8036 C   0  0  0  0  0  0  0  0  0  0  0  0
   28.2137   10.3610   58.3324 C   0  0  0  0  0  0  0  0  0  0  0  0
   21.9363   11.6248   50.9438 C   0  0  0  0  0  0  0  0  0  0  0  0
   21.6281   12.5689   51.9173 F   0  0  0  0  0  0  0  0  0  0  0  0
 11 12  1  0  0  0
 12 13  2  0  0  0
 13 14  1  0  0  0
 14 15  2  0  0  0
 15 16  1  0  0  0
 16 17  1  0  0  0
 16 18  2  0  0  0
 14  1  1  0  0  0
  1  2  1  0  0  0
  2  3  2  0  0  0
  3 19  1  0  0  0
 19 20  2  0  0  0
 20 21  1  0  0  0
 21 22  2  0  0  0
 22 25  1  0  0  0
 25 26  1  0  0  0
 26 27  1  0  0  0
 26 28  1  0  0  0
 22 23  1  0  0  0
 23 29  1  0  0  0
 29 30  1  0  0  0
 30 31  1  0  0  0
 31 32  1  0  0  0
 23 24  2  0  0  0
  3  4  1  0  0  0
  4  5  1  0  0  0
  5  6  1  0  0  0
  6 33  1  0  0  0
 33 34  1  0  0  0
  6  7  1  0  0  0
  7  8  1  0  0  0
  8  9  1  0  0  0
  9 10  1  0  0  0
 18 12  1  0  0  0
 10  1  2  0  0  0
 24 19  1  0  0  0
 10  4  1  0  0  0
 32 30  1  0  0  0
M  END
> <minimizedAffinity>
31.48922

> <CNNscore>
0.4645657241

> <CNNaffinity>
6.5308179855

> <CNN_VS>
3.0339941978

> <CNNaffinity_variance>
0.6182416677

$$$$
[H]c1c([H])c(-c2nc(-c3c([H])c(C([H])([H])[H])nc(C([H])([H])[H])c3[H])c3n2C([H])([H])[C@]([H])(C([H])([H])F)OC([H])([H])C3([H])[H])c([H])c(OC2([H])C([H])([H])C2([H])[H])c1OC([H])(F)F


 34 38  0  0  0  0  0  0  0  0999 V2000
   24.4764    8.6445   54.3478 C   0  0  0  0  0  0  0  0  0  0  0  0
   23.9477    9.5437   53.5229 N   0  0  0  0  0  0  0  0  0  0  0  0
   22.6668    9.1994   53.1553 C   0  0  0  0  0  0  0  0  0  0  0  0
   22.3953    8.0485   53.7681 N   0  0  0  0  0  0  0  0  0  0  0  0
   21.1823    7.3212   53.5856 C   0  0  0  0  0  0  0  0  0  0  0  0
   21.3153    5.8284   53.8087 C   0  0  0  0  0  0  0  0  0  0  0  0
   21.5331    5.6404   55.1640 O   0  0  0  0  0  0  0  0  0  0  0  0
   22.8968    5.3512   55.2571 C   0  0  0  0  0  0  0  0  0  0  0  0
   23.7415    6.5641   55.3923 C   0  0  0  0  0  0  0  0  0  0  0  0
   23.4814    7.6866   54.5075 C   0  0  0  0  0  0  0  0  0  0  0  0
   27.8061    9.9213   57.8221 C   0  0  0  0  0  0  0  0  0  0  0  0
   27.4869    9.3013   56.5247 C   0  0  0  0  0  0  0  0  0  0  0  0
   26.1792    9.2819   56.0834 C   0  0  0  0  0  0  0  0  0  0  0  0
   25.8256    8.7226   54.8935 C   0  0  0  0  0  0  0  0  0  0  0  0
   26.8985    8.1747   54.1648 C   0  0  0  0  0  0  0  0  0  0  0  0
   28.1970    8.2033   54.6207 C   0  0  0  0  0  0  0  0  0  0  0  0
   29.3252    7.6172   53.8351 C   0  0  0  0  0  0  0  0  0  0  0  0
   28.4927    8.7598   55.7880 N   0  0  0  0  0  0  0  0  0  0  0  0
   21.9188   10.0526   52.2394 C   0  0  0  0  0  0  0  0  0  0  0  0
   20.9441    9.6033   51.3942 C   0  0  0  0  0  0  0  0  0  0  0  0
   20.2740   10.4338   50.4799 C   0  0  0  0  0  0  0  0  0  0  0  0
   20.6153   11.7512   50.4393 C   0  0  0  0  0  0  0  0  0  0  0  0
   21.6126   12.2716   51.2893 C   0  0  0  0  0  0  0  0  0  0  0  0
   22.2246   11.4151   52.1514 C   0  0  0  0  0  0  0  0  0  0  0  0
   20.0470   12.6775   49.5994 O   0  0  0  0  0  0  0  0  0  0  0  0
   19.7254   12.4542   48.2884 C   0  0  0  0  0  0  0  0  0  0  0  0
   18.4660   11.8292   48.2026 F   0  0  0  0  0  0  0  0  0  0  0  0
   19.6704   13.6596   47.5670 F   0  0  0  0  0  0  0  0  0  0  0  0
   21.9207   13.6086   51.2111 O   0  0  0  0  0  0  0  0  0  0  0  0
   21.2449   14.6223   51.8713 C   0  0  0  0  0  0  0  0  0  0  0  0
   20.0632   14.2287   52.7583 C   0  0  0  0  0  0  0  0  0  0  0  0
   19.8629   15.0004   51.4611 C   0  0  0  0  0  0  0  0  0  0  0  0
   20.0523    5.1562   53.3257 C   0  0  0  0  0  0  0  0  0  0  0  0
   19.4791    6.0016   52.3818 F   0  0  0  0  0  0  0  0  0  0  0  0
 11 12  1  0  0  0
 12 13  2  0  0  0
 13 14  1  0  0  0
 14 15  2  0  0  0
 15 16  1  0  0  0
 16 17  1  0  0  0
 16 18  2  0  0  0
 14  1  1  0  0  0
  1  2  1  0  0  0
  2  3  2  0  0  0
  3 19  1  0  0  0
 19 20  2  0  0  0
 20 21  1  0  0  0
 21 22  2  0  0  0
 22 25  1  0  0  0
 25 26  1  0  0  0
 26 27  1  0  0  0
 26 28  1  0  0  0
 22 23  1  0  0  0
 23 29  1  0  0  0
 29 30  1  0  0  0
 30 31  1  0  0  0
 31 32  1  0  0  0
 23 24  2  0  0  0
  3  4  1  0  0  0
  4  5  1  0  0  0
  5  6  1  0  0  0
  6 33  1  0  0  0
 33 34  1  0  0  0
  6  7  1  0  0  0
  7  8  1  0  0  0
  8  9  1  0  0  0
  9 10  1  0  0  0
 18 12  1  0  0  0
 10  1  2  0  0  0
 24 19  1  0  0  0
 10  4  1  0  0  0
 32 30  1  0  0  0
M  END
> <minimizedAffinity>
38.51606

> <CNNscore>
0.4559216499

> <CNNaffinity>
6.2366929054

> <CNN_VS>
2.8434433937

> <CNNaffinity_variance>
0.5408257246

$$$$
[H]c1c([H])c(-c2nc(-c3c([H])c(C([H])([H])[H])nc(C([H])([H])[H])c3[H])c3n2C([H])([H])[C@]([H])(C([H])([H])F)OC([H])([H])C3([H])[H])c([H])c(OC2([H])C([H])([H])C2([H])[H])c1OC([H])(F)F


 34 38  0  0  0  0  0  0  0  0999 V2000
   27.2945    9.1706   51.7260 C   0  0  0  0  0  0  0  0  0  0  0  0
   26.1590    8.4934   51.8691 N   0  0  0  0  0  0  0  0  0  0  0  0
   25.8546    8.2936   53.1964 C   0  0  0  0  0  0  0  0  0  0  0  0
   26.8347    8.8609   53.8974 N   0  0  0  0  0  0  0  0  0  0  0  0
   26.9238    8.8083   55.3197 C   0  0  0  0  0  0  0  0  0  0  0  0
   28.3373    8.9092   55.8560 C   0  0  0  0  0  0  0  0  0  0  0  0
   28.7701   10.2028   55.6132 O   0  0  0  0  0  0  0  0  0  0  0  0
   29.6397   10.0772   54.5270 C   0  0  0  0  0  0  0  0  0  0  0  0
   28.9507   10.1691   53.2156 C   0  0  0  0  0  0  0  0  0  0  0  0
   27.7276    9.4086   53.0256 C   0  0  0  0  0  0  0  0  0  0  0  0
   28.8336   12.3976   48.2611 C   0  0  0  0  0  0  0  0  0  0  0  0
   28.6575   11.0119   48.7285 C   0  0  0  0  0  0  0  0  0  0  0  0
   28.0756   10.7775   49.9580 C   0  0  0  0  0  0  0  0  0  0  0  0
   27.8879    9.5184   50.4410 C   0  0  0  0  0  0  0  0  0  0  0  0
   28.3336    8.4929   49.5855 C   0  0  0  0  0  0  0  0  0  0  0  0
   28.9117    8.7456   48.3620 C   0  0  0  0  0  0  0  0  0  0  0  0
   29.3797    7.6457   47.4650 C   0  0  0  0  0  0  0  0  0  0  0  0
   29.0739    9.9907   47.9339 N   0  0  0  0  0  0  0  0  0  0  0  0
   24.6519    7.5553   53.5636 C   0  0  0  0  0  0  0  0  0  0  0  0
   24.4547    6.2292   53.3011 C   0  0  0  0  0  0  0  0  0  0  0  0
   23.2650    5.5503   53.6145 C   0  0  0  0  0  0  0  0  0  0  0  0
   22.2626    6.2527   54.2109 C   0  0  0  0  0  0  0  0  0  0  0  0
   22.4103    7.6231   54.5075 C   0  0  0  0  0  0  0  0  0  0  0  0
   23.5865    8.2225   54.1778 C   0  0  0  0  0  0  0  0  0  0  0  0
   21.0485    5.7224   54.5731 O   0  0  0  0  0  0  0  0  0  0  0  0
   19.9261    5.7267   53.7908 C   0  0  0  0  0  0  0  0  0  0  0  0
   20.0968    6.6146   52.7108 F   0  0  0  0  0  0  0  0  0  0  0  0
   19.6637    4.4464   53.2727 F   0  0  0  0  0  0  0  0  0  0  0  0
   21.3699    8.2880   55.1109 O   0  0  0  0  0  0  0  0  0  0  0  0
   20.8150    9.4754   54.6612 C   0  0  0  0  0  0  0  0  0  0  0  0
   21.3306   10.0454   53.3393 C   0  0  0  0  0  0  0  0  0  0  0  0
   21.6148   10.7330   54.6678 C   0  0  0  0  0  0  0  0  0  0  0  0
   28.3179    8.5709   57.3276 C   0  0  0  0  0  0  0  0  0  0  0  0
   28.3197    9.7768   58.0204 F   0  0  0  0  0  0  0  0  0  0  0  0
 11 12  1  0  0  0
 12 13  2  0  0  0
 13 14  1  0  0  0
 14 15  2  0  0  0
 15 16  1  0  0  0
 16 17  1  0  0  0
 16 18  2  0  0  0
 14  1  1  0  0  0
  1  2  1  0  0  0
  2  3  2  0  0  0
  3 19  1  0  0  0
 19 20  2  0  0  0
 20 21  1  0  0  0
 21 22  2  0  0  0
 22 25  1  0  0  0
 25 26  1  0  0  0
 26 27  1  0  0  0
 26 28  1  0  0  0
 22 23  1  0  0  0
 23 29  1  0  0  0
 29 30  1  0  0  0
 30 31  1  0  0  0
 31 32  1  0  0  0
 23 24  2  0  0  0
  3  4  1  0  0  0
  4  5  1  0  0  0
  5  6  1  0  0  0
  6 33  1  0  0  0
 33 34  1  0  0  0
  6  7  1  0  0  0
  7  8  1  0  0  0
  8  9  1  0  0  0
  9 10  1  0  0  0
 18 12  1  0  0  0
 10  1  2  0  0  0
 24 19  1  0  0  0
 10  4  1  0  0  0
 32 30  1  0  0  0
M  END
> <minimizedAffinity>
25.90354

> <CNNscore>
0.4426876903

> <CNNaffinity>
6.1924018860

> <CNN_VS>
2.7413001060

> <CNNaffinity_variance>
0.0782517642

$$$$
[H]c1c([H])c(-c2nc(-c3c([H])c(C([H])([H])[H])nc(C([H])([H])[H])c3[H])c3n2C([H])([H])[C@]([H])(C([H])([H])F)OC([H])([H])C3([H])[H])c([H])c(OC2([H])C([H])([H])C2([H])[H])c1OC([H])(F)F


 34 38  0  0  0  0  0  0  0  0999 V2000
   25.6379    9.3215   55.9769 C   0  0  0  0  0  0  0  0  0  0  0  0
   25.7848    8.0538   55.6034 N   0  0  0  0  0  0  0  0  0  0  0  0
   24.7074    7.6167   54.8669 C   0  0  0  0  0  0  0  0  0  0  0  0
   23.8645    8.6447   54.7855 N   0  0  0  0  0  0  0  0  0  0  0  0
   22.5858    8.5726   54.1582 C   0  0  0  0  0  0  0  0  0  0  0  0
   21.5693    9.5517   54.7093 C   0  0  0  0  0  0  0  0  0  0  0  0
   21.9792   10.8183   54.3254 O   0  0  0  0  0  0  0  0  0  0  0  0
   22.5200   11.3728   55.4881 C   0  0  0  0  0  0  0  0  0  0  0  0
   23.9622   11.0687   55.6623 C   0  0  0  0  0  0  0  0  0  0  0  0
   24.4082    9.7022   55.4514 C   0  0  0  0  0  0  0  0  0  0  0  0
   27.9215   13.4776   57.4937 C   0  0  0  0  0  0  0  0  0  0  0  0
   27.7438   12.0173   57.5681 C   0  0  0  0  0  0  0  0  0  0  0  0
   26.8103   11.4035   56.7574 C   0  0  0  0  0  0  0  0  0  0  0  0
   26.6028   10.0581   56.7836 C   0  0  0  0  0  0  0  0  0  0  0  0
   27.4147    9.3603   57.6979 C   0  0  0  0  0  0  0  0  0  0  0  0
   28.3410    9.9894   58.4987 C   0  0  0  0  0  0  0  0  0  0  0  0
   29.1956    9.2344   59.4646 C   0  0  0  0  0  0  0  0  0  0  0  0
   28.5071   11.3041   58.4377 N   0  0  0  0  0  0  0  0  0  0  0  0
   24.6708    6.2443   54.3755 C   0  0  0  0  0  0  0  0  0  0  0  0
   24.7984    5.8956   53.0608 C   0  0  0  0  0  0  0  0  0  0  0  0
   24.7048    4.5706   52.6024 C   0  0  0  0  0  0  0  0  0  0  0  0
   24.4774    3.5887   53.5179 C   0  0  0  0  0  0  0  0  0  0  0  0
   24.3391    3.8890   54.8885 C   0  0  0  0  0  0  0  0  0  0  0  0
   24.4391    5.1919   55.2679 C   0  0  0  0  0  0  0  0  0  0  0  0
   24.3629    2.2537   53.2162 O   0  0  0  0  0  0  0  0  0  0  0  0
   25.4035    1.4365   52.8679 C   0  0  0  0  0  0  0  0  0  0  0  0
   26.3547    2.1609   52.1232 F   0  0  0  0  0  0  0  0  0  0  0  0
   26.0401    0.9123   54.0066 F   0  0  0  0  0  0  0  0  0  0  0  0
   24.1114    2.8628   55.7737 O   0  0  0  0  0  0  0  0  0  0  0  0
   23.3782    2.9681   56.9448 C   0  0  0  0  0  0  0  0  0  0  0  0
   24.0963    3.4936   58.1883 C   0  0  0  0  0  0  0  0  0  0  0  0
   23.6396    2.0447   58.0851 C   0  0  0  0  0  0  0  0  0  0  0  0
   20.2092    9.1915   54.1609 C   0  0  0  0  0  0  0  0  0  0  0  0
   20.3366    7.9513   53.5446 F   0  0  0  0  0  0  0  0  0  0  0  0
 11 12  1  0  0  0
 12 13  2  0  0  0
 13 14  1  0  0  0
 14 15  2  0  0  0
 15 16  1  0  0  0
 16 17  1  0  0  0
 16 18  2  0  0  0
 14  1  1  0  0  0
  1  2  1  0  0  0
  2  3  2  0  0  0
  3 19  1  0  0  0
 19 20  2  0  0  0
 20 21  1  0  0  0
 21 22  2  0  0  0
 22 25  1  0  0  0
 25 26  1  0  0  0
 26 27  1  0  0  0
 26 28  1  0  0  0
 22 23  1  0  0  0
 23 29  1  0  0  0
 29 30  1  0  0  0
 30 31  1  0  0  0
 31 32  1  0  0  0
 23 24  2  0  0  0
  3  4  1  0  0  0
  4  5  1  0  0  0
  5  6  1  0  0  0
  6 33  1  0  0  0
 33 34  1  0  0  0
  6  7  1  0  0  0
  7  8  1  0  0  0
  8  9  1  0  0  0
  9 10  1  0  0  0
 18 12  1  0  0  0
 10  1  2  0  0  0
 24 19  1  0  0  0
 10  4  1  0  0  0
 32 30  1  0  0  0
M  END
> <minimizedAffinity>
63.13839

> <CNNscore>
0.3750126660

> <CNNaffinity>
5.5505475998

> <CNN_VS>
2.0815255642

> <CNNaffinity_variance>
0.9405316114

$$$$
[H]c1c([H])c(-c2nc(-c3c([H])c(C([H])([H])[H])nc(C([H])([H])[H])c3[H])c3n2C([H])([H])[C@]([H])(C([H])([H])F)OC([H])([H])C3([H])[H])c([H])c(OC2([H])C([H])([H])C2([H])[H])c1OC([H])(F)F


 34 38  0  0  0  0  0  0  0  0999 V2000
   27.0104    9.0527   56.2584 C   0  0  0  0  0  0  0  0  0  0  0  0
   25.6902    8.9010   56.2106 N   0  0  0  0  0  0  0  0  0  0  0  0
   25.2563    8.6600   54.9269 C   0  0  0  0  0  0  0  0  0  0  0  0
   26.3414    8.6671   54.1546 N   0  0  0  0  0  0  0  0  0  0  0  0
   26.3048    8.5240   52.7363 C   0  0  0  0  0  0  0  0  0  0  0  0
   27.4645    9.1824   52.0169 C   0  0  0  0  0  0  0  0  0  0  0  0
   28.5994    8.4502   52.3258 O   0  0  0  0  0  0  0  0  0  0  0  0
   29.2761    9.2402   53.2585 C   0  0  0  0  0  0  0  0  0  0  0  0
   28.8517    8.9824   54.6572 C   0  0  0  0  0  0  0  0  0  0  0  0
   27.4293    8.9009   54.9414 C   0  0  0  0  0  0  0  0  0  0  0  0
   29.7521    7.7539   60.2061 C   0  0  0  0  0  0  0  0  0  0  0  0
   29.0907    8.7902   59.3949 C   0  0  0  0  0  0  0  0  0  0  0  0
   28.3920    8.4243   58.2620 C   0  0  0  0  0  0  0  0  0  0  0  0
   27.7616    9.3385   57.4743 C   0  0  0  0  0  0  0  0  0  0  0  0
   27.8845   10.6705   57.9136 C   0  0  0  0  0  0  0  0  0  0  0  0
   28.5854   11.0169   59.0466 C   0  0  0  0  0  0  0  0  0  0  0  0
   28.7066   12.4358   59.4999 C   0  0  0  0  0  0  0  0  0  0  0  0
   29.1839   10.0896   59.7826 N   0  0  0  0  0  0  0  0  0  0  0  0
   23.8337    8.4800   54.6617 C   0  0  0  0  0  0  0  0  0  0  0  0
   22.8589    8.5571   55.6157 C   0  0  0  0  0  0  0  0  0  0  0  0
   21.4990    8.3255   55.3483 C   0  0  0  0  0  0  0  0  0  0  0  0
   21.1396    8.0107   54.0733 C   0  0  0  0  0  0  0  0  0  0  0  0
   22.1020    7.9188   53.0471 C   0  0  0  0  0  0  0  0  0  0  0  0
   23.4025    8.1536   53.3713 C   0  0  0  0  0  0  0  0  0  0  0  0
   19.8521    7.7592   53.6665 O   0  0  0  0  0  0  0  0  0  0  0  0
   19.3955    6.5529   53.2101 C   0  0  0  0  0  0  0  0  0  0  0  0
   19.4287    6.5282   51.8022 F   0  0  0  0  0  0  0  0  0  0  0  0
   20.1888    5.4957   53.6892 F   0  0  0  0  0  0  0  0  0  0  0  0
   21.6892    7.5989   51.7760 O   0  0  0  0  0  0  0  0  0  0  0  0
   21.4201    8.5144   50.7712 C   0  0  0  0  0  0  0  0  0  0  0  0
   20.6010    9.7524   51.1380 C   0  0  0  0  0  0  0  0  0  0  0  0
   20.0372    8.6631   50.2356 C   0  0  0  0  0  0  0  0  0  0  0  0
   27.1671    9.1941   50.5365 C   0  0  0  0  0  0  0  0  0  0  0  0
   27.9083   10.2323   49.9827 F   0  0  0  0  0  0  0  0  0  0  0  0
 11 12  1  0  0  0
 12 13  2  0  0  0
 13 14  1  0  0  0
 14 15  2  0  0  0
 15 16  1  0  0  0
 16 17  1  0  0  0
 16 18  2  0  0  0
 14  1  1  0  0  0
  1  2  1  0  0  0
  2  3  2  0  0  0
  3 19  1  0  0  0
 19 20  2  0  0  0
 20 21  1  0  0  0
 21 22  2  0  0  0
 22 25  1  0  0  0
 25 26  1  0  0  0
 26 27  1  0  0  0
 26 28  1  0  0  0
 22 23  1  0  0  0
 23 29  1  0  0  0
 29 30  1  0  0  0
 30 31  1  0  0  0
 31 32  1  0  0  0
 23 24  2  0  0  0
  3  4  1  0  0  0
  4  5  1  0  0  0
  5  6  1  0  0  0
  6 33  1  0  0  0
 33 34  1  0  0  0
  6  7  1  0  0  0
  7  8  1  0  0  0
  8  9  1  0  0  0
  9 10  1  0  0  0
 18 12  1  0  0  0
 10  1  2  0  0  0
 24 19  1  0  0  0
 10  4  1  0  0  0
 32 30  1  0  0  0
M  END
> <minimizedAffinity>
29.71549

> <CNNscore>
0.3705759645

> <CNNaffinity>
6.2115449905

> <CNN_VS>
2.3018493652

> <CNNaffinity_variance>
0.1870091558

$$$$
[H]c1nc(C#N)c([H])c([H])c1N1C([H])([H])c2c(nc(-c3c([H])c(C([H])([H])[H])nc(C([H])([H])[H])c3[H])n2C(C([H])([H])[H])(C([H])([H])[H])C([H])([H])[H])C([H])([H])C1([H])[H]


 29 32  0  0  0  0  0  0  0  0999 V2000
   23.5831    7.9697   55.0701 N   0  0  0  0  0  0  0  0  0  0  0  0
   24.8802    7.6948   55.0199 C   0  0  0  0  0  0  0  0  0  0  0  0
   25.0268    6.3286   54.7761 N   0  0  0  0  0  0  0  0  0  0  0  0
   23.8316    5.7948   54.6759 C   0  0  0  0  0  0  0  0  0  0  0  0
   23.3636    4.3736   54.4267 C   0  0  0  0  0  0  0  0  0  0  0  0
   22.2889    4.5662   53.3388 C   0  0  0  0  0  0  0  0  0  0  0  0
   21.2134    5.2678   53.9352 N   0  0  0  0  0  0  0  0  0  0  0  0
   21.5168    6.4473   54.7521 C   0  0  0  0  0  0  0  0  0  0  0  0
   22.9106    6.7976   54.8527 C   0  0  0  0  0  0  0  0  0  0  0  0
   26.1466    8.4160   55.1783 C   0  0  0  0  0  0  0  0  0  0  0  0
   27.2477    8.3312   54.4026 C   0  0  0  0  0  0  0  0  0  0  0  0
   28.3651    9.1081   54.5811 C   0  0  0  0  0  0  0  0  0  0  0  0
   29.5680    8.9727   53.6831 C   0  0  0  0  0  0  0  0  0  0  0  0
   28.3811   10.0006   55.5726 N   0  0  0  0  0  0  0  0  0  0  0  0
   27.3078   10.1284   56.3818 C   0  0  0  0  0  0  0  0  0  0  0  0
   27.3933   11.1415   57.4667 C   0  0  0  0  0  0  0  0  0  0  0  0
   26.1870    9.3660   56.2205 C   0  0  0  0  0  0  0  0  0  0  0  0
   19.8300    4.9168   53.8018 C   0  0  0  0  0  0  0  0  0  0  0  0
   19.4330    3.6381   53.4722 C   0  0  0  0  0  0  0  0  0  0  0  0
   18.0758    3.3873   53.3699 C   0  0  0  0  0  0  0  0  0  0  0  0
   17.1141    4.3475   53.5804 C   0  0  0  0  0  0  0  0  0  0  0  0
   17.5236    5.5780   53.8984 N   0  0  0  0  0  0  0  0  0  0  0  0
   18.8353    5.8367   54.0013 C   0  0  0  0  0  0  0  0  0  0  0  0
   15.7030    4.0307   53.4600 C   0  0  0  0  0  0  0  0  0  0  0  0
   14.5802    3.7671   53.3627 N   0  0  0  0  0  0  0  0  0  0  0  0
   21.4898    9.1659   55.7015 C   0  0  0  0  0  0  0  0  0  0  0  0
   22.9715    9.1959   55.3845 C   0  0  0  0  0  0  0  0  0  0  0  0
   23.5801    9.7499   56.6782 C   0  0  0  0  0  0  0  0  0  0  0  0
   23.0775   10.2669   54.3234 C   0  0  0  0  0  0  0  0  0  0  0  0
 26 27  1  0  0  0
 27 28  1  0  0  0
 27 29  1  0  0  0
 27  1  1  0  0  0
  1  2  1  0  0  0
  2  3  2  0  0  0
  3  4  1  0  0  0
  4  5  1  0  0  0
  5  6  1  0  0  0
  6  7  1  0  0  0
  7  8  1  0  0  0
  8  9  1  0  0  0
  7 18  1  0  0  0
 18 19  2  0  0  0
 19 20  1  0  0  0
 20 21  2  0  0  0
 21 22  1  0  0  0
 22 23  2  0  0  0
 21 24  1  0  0  0
 24 25  3  0  0  0
  2 10  1  0  0  0
 10 11  2  0  0  0
 11 12  1  0  0  0
 12 13  1  0  0  0
 12 14  2  0  0  0
 14 15  1  0  0  0
 15 16  1  0  0  0
 15 17  2  0  0  0
  9  1  1  0  0  0
 23 18  1  0  0  0
 17 10  1  0  0  0
  9  4  2  0  0  0
M  END
> <minimizedAffinity>
41.01636

> <CNNscore>
0.5119082928

> <CNNaffinity>
6.6450662613

> <CNN_VS>
3.4016644955

> <CNNaffinity_variance>
1.2901425362

$$$$
[H]c1nc(C#N)c([H])c([H])c1N1C([H])([H])c2c(nc(-c3c([H])c(C([H])([H])[H])nc(C([H])([H])[H])c3[H])n2C(C([H])([H])[H])(C([H])([H])[H])C([H])([H])[H])C([H])([H])C1([H])[H]


 29 32  0  0  0  0  0  0  0  0999 V2000
   24.0165    7.0024   54.2756 N   0  0  0  0  0  0  0  0  0  0  0  0
   24.6317    8.1569   54.4975 C   0  0  0  0  0  0  0  0  0  0  0  0
   23.6843    9.1782   54.4157 N   0  0  0  0  0  0  0  0  0  0  0  0
   22.5159    8.6397   54.1539 C   0  0  0  0  0  0  0  0  0  0  0  0
   21.1370    9.2375   53.9485 C   0  0  0  0  0  0  0  0  0  0  0  0
   20.2513    8.3342   54.8290 C   0  0  0  0  0  0  0  0  0  0  0  0
   20.2482    7.0484   54.2361 N   0  0  0  0  0  0  0  0  0  0  0  0
   21.5281    6.4725   53.8111 C   0  0  0  0  0  0  0  0  0  0  0  0
   22.6933    7.2812   54.0638 C   0  0  0  0  0  0  0  0  0  0  0  0
   25.9959    8.6228   54.7640 C   0  0  0  0  0  0  0  0  0  0  0  0
   26.9523    8.9350   53.8644 C   0  0  0  0  0  0  0  0  0  0  0  0
   28.1811    9.4422   54.2063 C   0  0  0  0  0  0  0  0  0  0  0  0
   29.2126    9.7754   53.1591 C   0  0  0  0  0  0  0  0  0  0  0  0
   28.4627    9.6425   55.4948 N   0  0  0  0  0  0  0  0  0  0  0  0
   27.5444    9.3467   56.4395 C   0  0  0  0  0  0  0  0  0  0  0  0
   27.9244    9.5936   57.8555 C   0  0  0  0  0  0  0  0  0  0  0  0
   26.3168    8.8423   56.1201 C   0  0  0  0  0  0  0  0  0  0  0  0
   19.0789    6.2489   54.0163 C   0  0  0  0  0  0  0  0  0  0  0  0
   19.1530    4.8812   53.8573 C   0  0  0  0  0  0  0  0  0  0  0  0
   17.9726    4.1877   53.6546 C   0  0  0  0  0  0  0  0  0  0  0  0
   16.7403    4.7961   53.6051 C   0  0  0  0  0  0  0  0  0  0  0  0
   16.6946    6.1214   53.7618 N   0  0  0  0  0  0  0  0  0  0  0  0
   17.8299    6.8073   53.9591 C   0  0  0  0  0  0  0  0  0  0  0  0
   15.5325    4.0210   53.3896 C   0  0  0  0  0  0  0  0  0  0  0  0
   14.5666    3.4039   53.2287 N   0  0  0  0  0  0  0  0  0  0  0  0
   24.2649    4.9236   52.9234 C   0  0  0  0  0  0  0  0  0  0  0  0
   24.5913    5.7239   54.1684 C   0  0  0  0  0  0  0  0  0  0  0  0
   26.1167    5.8579   54.0906 C   0  0  0  0  0  0  0  0  0  0  0  0
   24.2639    4.7670   55.2915 C   0  0  0  0  0  0  0  0  0  0  0  0
 26 27  1  0  0  0
 27 28  1  0  0  0
 27 29  1  0  0  0
 27  1  1  0  0  0
  1  2  1  0  0  0
  2  3  2  0  0  0
  3  4  1  0  0  0
  4  5  1  0  0  0
  5  6  1  0  0  0
  6  7  1  0  0  0
  7  8  1  0  0  0
  8  9  1  0  0  0
  7 18  1  0  0  0
 18 19  2  0  0  0
 19 20  1  0  0  0
 20 21  2  0  0  0
 21 22  1  0  0  0
 22 23  2  0  0  0
 21 24  1  0  0  0
 24 25  3  0  0  0
  2 10  1  0  0  0
 10 11  2  0  0  0
 11 12  1  0  0  0
 12 13  1  0  0  0
 12 14  2  0  0  0
 14 15  1  0  0  0
 15 16  1  0  0  0
 15 17  2  0  0  0
  9  1  1  0  0  0
 23 18  1  0  0  0
 17 10  1  0  0  0
  9  4  2  0  0  0
M  END
> <minimizedAffinity>
40.73363

> <CNNscore>
0.4777610004

> <CNNaffinity>
6.2555437088

> <CNN_VS>
2.9886548519

> <CNNaffinity_variance>
1.8469146490

$$$$
[H]c1nc(C#N)c([H])c([H])c1N1C([H])([H])c2c(nc(-c3c([H])c(C([H])([H])[H])nc(C([H])([H])[H])c3[H])n2C(C([H])([H])[H])(C([H])([H])[H])C([H])([H])[H])C([H])([H])C1([H])[H]


 29 32  0  0  0  0  0  0  0  0999 V2000
   22.2768   10.8050   54.0034 N   0  0  0  0  0  0  0  0  0  0  0  0
   21.7599   11.2855   52.8798 C   0  0  0  0  0  0  0  0  0  0  0  0
   21.4446   10.2087   52.0500 N   0  0  0  0  0  0  0  0  0  0  0  0
   21.7638    9.0980   52.6728 C   0  0  0  0  0  0  0  0  0  0  0  0
   21.6613    7.6373   52.2767 C   0  0  0  0  0  0  0  0  0  0  0  0
   21.0339    6.9986   53.5313 C   0  0  0  0  0  0  0  0  0  0  0  0
   21.9928    7.0897   54.5691 N   0  0  0  0  0  0  0  0  0  0  0  0
   22.6778    8.3697   54.7762 C   0  0  0  0  0  0  0  0  0  0  0  0
   22.2835    9.4405   53.8967 C   0  0  0  0  0  0  0  0  0  0  0  0
   21.4745   12.5988   52.2943 C   0  0  0  0  0  0  0  0  0  0  0  0
   22.0864   13.1851   51.2439 C   0  0  0  0  0  0  0  0  0  0  0  0
   21.6969   14.3892   50.7123 C   0  0  0  0  0  0  0  0  0  0  0  0
   22.4159   14.9981   49.5359 C   0  0  0  0  0  0  0  0  0  0  0  0
   20.6588   15.0296   51.2526 N   0  0  0  0  0  0  0  0  0  0  0  0
   20.0090   14.4912   52.3067 C   0  0  0  0  0  0  0  0  0  0  0  0
   18.8618   15.2583   52.8600 C   0  0  0  0  0  0  0  0  0  0  0  0
   20.3802   13.2950   52.8494 C   0  0  0  0  0  0  0  0  0  0  0  0
   22.3529    6.0180   55.4503 C   0  0  0  0  0  0  0  0  0  0  0  0
   21.5897    5.6958   56.5526 C   0  0  0  0  0  0  0  0  0  0  0  0
   22.0097    4.6423   57.3458 C   0  0  0  0  0  0  0  0  0  0  0  0
   23.1439    3.9093   57.0862 C   0  0  0  0  0  0  0  0  0  0  0  0
   23.8661    4.2406   56.0131 N   0  0  0  0  0  0  0  0  0  0  0  0
   23.4721    5.2589   55.2347 C   0  0  0  0  0  0  0  0  0  0  0  0
   23.5395    2.8133   57.9514 C   0  0  0  0  0  0  0  0  0  0  0  0
   23.8560    1.9465   58.6501 N   0  0  0  0  0  0  0  0  0  0  0  0
   21.8970   11.8255   56.2452 C   0  0  0  0  0  0  0  0  0  0  0  0
   22.8203   11.5254   55.0815 C   0  0  0  0  0  0  0  0  0  0  0  0
   23.9295   10.6957   55.7387 C   0  0  0  0  0  0  0  0  0  0  0  0
   23.3939   12.8802   54.7356 C   0  0  0  0  0  0  0  0  0  0  0  0
 26 27  1  0  0  0
 27 28  1  0  0  0
 27 29  1  0  0  0
 27  1  1  0  0  0
  1  2  1  0  0  0
  2  3  2  0  0  0
  3  4  1  0  0  0
  4  5  1  0  0  0
  5  6  1  0  0  0
  6  7  1  0  0  0
  7  8  1  0  0  0
  8  9  1  0  0  0
  7 18  1  0  0  0
 18 19  2  0  0  0
 19 20  1  0  0  0
 20 21  2  0  0  0
 21 22  1  0  0  0
 22 23  2  0  0  0
 21 24  1  0  0  0
 24 25  3  0  0  0
  2 10  1  0  0  0
 10 11  2  0  0  0
 11 12  1  0  0  0
 12 13  1  0  0  0
 12 14  2  0  0  0
 14 15  1  0  0  0
 15 16  1  0  0  0
 15 17  2  0  0  0
  9  1  1  0  0  0
 23 18  1  0  0  0
 17 10  1  0  0  0
  9  4  2  0  0  0
M  END
> <minimizedAffinity>
61.83682

> <CNNscore>
0.4353432655

> <CNNaffinity>
6.1197919846

> <CNN_VS>
2.6642103195

> <CNNaffinity_variance>
0.7118722796

$$$$
[H]c1nc(C#N)c([H])c([H])c1N1C([H])([H])c2c(nc(-c3c([H])c(C([H])([H])[H])nc(C([H])([H])[H])c3[H])n2C(C([H])([H])[H])(C([H])([H])[H])C([H])([H])[H])C([H])([H])C1([H])[H]


 29 32  0  0  0  0  0  0  0  0999 V2000
   21.3047    6.9030   53.5346 N   0  0  0  0  0  0  0  0  0  0  0  0
   20.7452    5.7073   53.6682 C   0  0  0  0  0  0  0  0  0  0  0  0
   21.7624    4.7665   53.8341 N   0  0  0  0  0  0  0  0  0  0  0  0
   22.9155    5.3933   53.8060 C   0  0  0  0  0  0  0  0  0  0  0  0
   24.3474    4.9071   53.9258 C   0  0  0  0  0  0  0  0  0  0  0  0
   24.9502    5.9023   54.9366 C   0  0  0  0  0  0  0  0  0  0  0  0
   24.9845    7.1688   54.3045 N   0  0  0  0  0  0  0  0  0  0  0  0
   23.7872    7.6258   53.5915 C   0  0  0  0  0  0  0  0  0  0  0  0
   22.6595    6.7297   53.6228 C   0  0  0  0  0  0  0  0  0  0  0  0
   19.3950    5.1365   53.6560 C   0  0  0  0  0  0  0  0  0  0  0  0
   18.2358    5.7512   53.9721 C   0  0  0  0  0  0  0  0  0  0  0  0
   17.0037    5.1578   53.8540 C   0  0  0  0  0  0  0  0  0  0  0  0
   15.7395    5.8922   54.2201 C   0  0  0  0  0  0  0  0  0  0  0  0
   16.9299    3.9038   53.4048 N   0  0  0  0  0  0  0  0  0  0  0  0
   18.0576    3.2385   53.0746 C   0  0  0  0  0  0  0  0  0  0  0  0
   17.9028    1.8444   52.5819 C   0  0  0  0  0  0  0  0  0  0  0  0
   19.2919    3.8110   53.1843 C   0  0  0  0  0  0  0  0  0  0  0  0
   26.1096    8.0569   54.3065 C   0  0  0  0  0  0  0  0  0  0  0  0
   26.7388    8.4357   53.1394 C   0  0  0  0  0  0  0  0  0  0  0  0
   27.8146    9.3011   53.2348 C   0  0  0  0  0  0  0  0  0  0  0  0
   28.2800    9.7956   54.4307 C   0  0  0  0  0  0  0  0  0  0  0  0
   27.6541    9.4142   55.5468 N   0  0  0  0  0  0  0  0  0  0  0  0
   26.6101    8.5761   55.4707 C   0  0  0  0  0  0  0  0  0  0  0  0
   29.4132   10.7012   54.4744 C   0  0  0  0  0  0  0  0  0  0  0  0
   30.3162   11.4237   54.5205 N   0  0  0  0  0  0  0  0  0  0  0  0
   21.5202    9.2123   52.6224 C   0  0  0  0  0  0  0  0  0  0  0  0
   20.6717    8.1264   53.2531 C   0  0  0  0  0  0  0  0  0  0  0  0
   19.5782    7.9022   52.2021 C   0  0  0  0  0  0  0  0  0  0  0  0
   20.0434    8.8219   54.4388 C   0  0  0  0  0  0  0  0  0  0  0  0
 26 27  1  0  0  0
 27 28  1  0  0  0
 27 29  1  0  0  0
 27  1  1  0  0  0
  1  2  1  0  0  0
  2  3  2  0  0  0
  3  4  1  0  0  0
  4  5  1  0  0  0
  5  6  1  0  0  0
  6  7  1  0  0  0
  7  8  1  0  0  0
  8  9  1  0  0  0
  7 18  1  0  0  0
 18 19  2  0  0  0
 19 20  1  0  0  0
 20 21  2  0  0  0
 21 22  1  0  0  0
 22 23  2  0  0  0
 21 24  1  0  0  0
 24 25  3  0  0  0
  2 10  1  0  0  0
 10 11  2  0  0  0
 11 12  1  0  0  0
 12 13  1  0  0  0
 12 14  2  0  0  0
 14 15  1  0  0  0
 15 16  1  0  0  0
 15 17  2  0  0  0
  9  1  1  0  0  0
 23 18  1  0  0  0
 17 10  1  0  0  0
  9  4  2  0  0  0
M  END
> <minimizedAffinity>
40.08984

> <CNNscore>
0.4301483631

> <CNNaffinity>
6.3104124069

> <CNN_VS>
2.7144136429

> <CNNaffinity_variance>
0.8194236755

$$$$
[H]c1nc(C#N)c([H])c([H])c1N1C([H])([H])c2c(nc(-c3c([H])c(C([H])([H])[H])nc(C([H])([H])[H])c3[H])n2C(C([H])([H])[H])(C([H])([H])[H])C([H])([H])[H])C([H])([H])C1([H])[H]


 29 32  0  0  0  0  0  0  0  0999 V2000
   23.5215    8.2947   55.0037 N   0  0  0  0  0  0  0  0  0  0  0  0
   24.8154    8.0055   54.9526 C   0  0  0  0  0  0  0  0  0  0  0  0
   24.9468    6.6352   54.7237 N   0  0  0  0  0  0  0  0  0  0  0  0
   23.7457    6.1130   54.6333 C   0  0  0  0  0  0  0  0  0  0  0  0
   23.2619    4.6941   54.4014 C   0  0  0  0  0  0  0  0  0  0  0  0
   22.1859    4.8859   53.3147 C   0  0  0  0  0  0  0  0  0  0  0  0
   21.1197    5.6056   53.9065 N   0  0  0  0  0  0  0  0  0  0  0  0
   21.4382    6.7908   54.7091 C   0  0  0  0  0  0  0  0  0  0  0  0
   22.8359    7.1274   54.8016 C   0  0  0  0  0  0  0  0  0  0  0  0
   26.0898    8.7151   55.0991 C   0  0  0  0  0  0  0  0  0  0  0  0
   26.6277    9.2218   56.2284 C   0  0  0  0  0  0  0  0  0  0  0  0
   27.8700    9.8028   56.2846 C   0  0  0  0  0  0  0  0  0  0  0  0
   28.4232   10.3516   57.5747 C   0  0  0  0  0  0  0  0  0  0  0  0
   28.5990    9.8806   55.1700 N   0  0  0  0  0  0  0  0  0  0  0  0
   28.1110    9.3915   54.0099 C   0  0  0  0  0  0  0  0  0  0  0  0
   28.9755    9.5118   52.8063 C   0  0  0  0  0  0  0  0  0  0  0  0
   26.8786    8.8095   53.9333 C   0  0  0  0  0  0  0  0  0  0  0  0
   19.7323    5.2678   53.7813 C   0  0  0  0  0  0  0  0  0  0  0  0
   18.7560    6.2351   53.6694 C   0  0  0  0  0  0  0  0  0  0  0  0
   17.4420    5.8181   53.5474 C   0  0  0  0  0  0  0  0  0  0  0  0
   17.0698    4.4943   53.5330 C   0  0  0  0  0  0  0  0  0  0  0  0
   18.0334    3.5765   53.6427 N   0  0  0  0  0  0  0  0  0  0  0  0
   19.3114    3.9648   53.7616 C   0  0  0  0  0  0  0  0  0  0  0  0
   15.6760    4.1114   53.4026 C   0  0  0  0  0  0  0  0  0  0  0  0
   14.5671    3.7956   53.3022 N   0  0  0  0  0  0  0  0  0  0  0  0
   23.8500   10.6711   55.6792 C   0  0  0  0  0  0  0  0  0  0  0  0
   22.9239    9.5308   55.3062 C   0  0  0  0  0  0  0  0  0  0  0  0
   22.2134   10.0700   54.0591 C   0  0  0  0  0  0  0  0  0  0  0  0
   21.9248    9.5104   56.4400 C   0  0  0  0  0  0  0  0  0  0  0  0
 26 27  1  0  0  0
 27 28  1  0  0  0
 27 29  1  0  0  0
 27  1  1  0  0  0
  1  2  1  0  0  0
  2  3  2  0  0  0
  3  4  1  0  0  0
  4  5  1  0  0  0
  5  6  1  0  0  0
  6  7  1  0  0  0
  7  8  1  0  0  0
  8  9  1  0  0  0
  7 18  1  0  0  0
 18 19  2  0  0  0
 19 20  1  0  0  0
 20 21  2  0  0  0
 21 22  1  0  0  0
 22 23  2  0  0  0
 21 24  1  0  0  0
 24 25  3  0  0  0
  2 10  1  0  0  0
 10 11  2  0  0  0
 11 12  1  0  0  0
 12 13  1  0  0  0
 12 14  2  0  0  0
 14 15  1  0  0  0
 15 16  1  0  0  0
 15 17  2  0  0  0
  9  1  1  0  0  0
 23 18  1  0  0  0
 17 10  1  0  0  0
  9  4  2  0  0  0
M  END
> <minimizedAffinity>
35.75504

> <CNNscore>
0.4223824739

> <CNNaffinity>
6.4605584145

> <CNN_VS>
2.7288267612

> <CNNaffinity_variance>
1.1264872551

$$$$
[H]c1nc(C#N)c([H])c([H])c1N1C([H])([H])c2c(nc(-c3c([H])c(C([H])([H])[H])nc(C([H])([H])[H])c3[H])n2C(C([H])([H])[H])(C([H])([H])[H])C([H])([H])[H])C([H])([H])C1([H])[H]


 29 32  0  0  0  0  0  0  0  0999 V2000
   22.3826   10.2172   53.5576 N   0  0  0  0  0  0  0  0  0  0  0  0
   21.5627   10.9559   52.8210 C   0  0  0  0  0  0  0  0  0  0  0  0
   21.2454   10.2364   51.6682 N   0  0  0  0  0  0  0  0  0  0  0  0
   21.8636    9.0793   51.7184 C   0  0  0  0  0  0  0  0  0  0  0  0
   21.9067    7.9003   50.7649 C   0  0  0  0  0  0  0  0  0  0  0  0
   21.6783    6.7038   51.7093 C   0  0  0  0  0  0  0  0  0  0  0  0
   22.8154    6.6121   52.5480 N   0  0  0  0  0  0  0  0  0  0  0  0
   23.3201    7.8373   53.1764 C   0  0  0  0  0  0  0  0  0  0  0  0
   22.5793    9.0391   52.8893 C   0  0  0  0  0  0  0  0  0  0  0  0
   20.9536   12.2878   52.8847 C   0  0  0  0  0  0  0  0  0  0  0  0
   21.0596   13.2880   51.9848 C   0  0  0  0  0  0  0  0  0  0  0  0
   20.3855   14.4791   52.0892 C   0  0  0  0  0  0  0  0  0  0  0  0
   20.5397   15.5627   51.0530 C   0  0  0  0  0  0  0  0  0  0  0  0
   19.5778   14.6763   53.1325 N   0  0  0  0  0  0  0  0  0  0  0  0
   19.4339   13.7109   54.0655 C   0  0  0  0  0  0  0  0  0  0  0  0
   18.5190   13.9971   55.2019 C   0  0  0  0  0  0  0  0  0  0  0  0
   20.0947   12.5195   53.9795 C   0  0  0  0  0  0  0  0  0  0  0  0
   23.5237    5.4007   52.8408 C   0  0  0  0  0  0  0  0  0  0  0  0
   23.1859    4.6023   53.9131 C   0  0  0  0  0  0  0  0  0  0  0  0
   23.9207    3.4476   54.1179 C   0  0  0  0  0  0  0  0  0  0  0  0
   24.9633    3.0643   53.3072 C   0  0  0  0  0  0  0  0  0  0  0  0
   25.2712    3.8540   52.2754 N   0  0  0  0  0  0  0  0  0  0  0  0
   24.5684    4.9763   52.0638 C   0  0  0  0  0  0  0  0  0  0  0  0
   25.7018    1.8424   53.5671 C   0  0  0  0  0  0  0  0  0  0  0  0
   26.2984    0.8737   53.7801 N   0  0  0  0  0  0  0  0  0  0  0  0
   23.5855   11.9837   54.8400 C   0  0  0  0  0  0  0  0  0  0  0  0
   23.0301   10.5762   54.7528 C   0  0  0  0  0  0  0  0  0  0  0  0
   22.0214   10.5417   55.9070 C   0  0  0  0  0  0  0  0  0  0  0  0
   24.2097    9.7135   55.1384 C   0  0  0  0  0  0  0  0  0  0  0  0
 26 27  1  0  0  0
 27 28  1  0  0  0
 27 29  1  0  0  0
 27  1  1  0  0  0
  1  2  1  0  0  0
  2  3  2  0  0  0
  3  4  1  0  0  0
  4  5  1  0  0  0
  5  6  1  0  0  0
  6  7  1  0  0  0
  7  8  1  0  0  0
  8  9  1  0  0  0
  7 18  1  0  0  0
 18 19  2  0  0  0
 19 20  1  0  0  0
 20 21  2  0  0  0
 21 22  1  0  0  0
 22 23  2  0  0  0
 21 24  1  0  0  0
 24 25  3  0  0  0
  2 10  1  0  0  0
 10 11  2  0  0  0
 11 12  1  0  0  0
 12 13  1  0  0  0
 12 14  2  0  0  0
 14 15  1  0  0  0
 15 16  1  0  0  0
 15 17  2  0  0  0
  9  1  1  0  0  0
 23 18  1  0  0  0
 17 10  1  0  0  0
  9  4  2  0  0  0
M  END
> <minimizedAffinity>
69.02926

> <CNNscore>
0.4204249084

> <CNNaffinity>
5.7077064514

> <CNN_VS>
2.3996620178

> <CNNaffinity_variance>
0.7494426966

$$$$
[H]c1nc(C#N)c([H])c([H])c1N1C([H])([H])c2c(nc(-c3c([H])c(C([H])([H])[H])nc(C([H])([H])[H])c3[H])n2C(C([H])([H])[H])(C([H])([H])[H])C([H])([H])[H])C([H])([H])C1([H])[H]


 29 32  0  0  0  0  0  0  0  0999 V2000
   26.8644    9.1579   56.0252 N   0  0  0  0  0  0  0  0  0  0  0  0
   27.0247    9.4736   57.3039 C   0  0  0  0  0  0  0  0  0  0  0  0
   25.7785    9.8223   57.8260 N   0  0  0  0  0  0  0  0  0  0  0  0
   24.8834    9.7106   56.8722 C   0  0  0  0  0  0  0  0  0  0  0  0
   23.3869    9.9566   56.8397 C   0  0  0  0  0  0  0  0  0  0  0  0
   22.8605    8.6946   56.1285 C   0  0  0  0  0  0  0  0  0  0  0  0
   23.3270    8.7440   54.7926 N   0  0  0  0  0  0  0  0  0  0  0  0
   24.7370    9.0711   54.5571 C   0  0  0  0  0  0  0  0  0  0  0  0
   25.5334    9.2944   55.7367 C   0  0  0  0  0  0  0  0  0  0  0  0
   28.1284    9.5775   58.2631 C   0  0  0  0  0  0  0  0  0  0  0  0
   28.7145   10.7005   58.7289 C   0  0  0  0  0  0  0  0  0  0  0  0
   29.6932   10.7042   59.6913 C   0  0  0  0  0  0  0  0  0  0  0  0
   30.3129   11.9895   60.1768 C   0  0  0  0  0  0  0  0  0  0  0  0
   30.1006    9.5421   60.2044 N   0  0  0  0  0  0  0  0  0  0  0  0
   29.5507    8.3860   59.7752 C   0  0  0  0  0  0  0  0  0  0  0  0
   30.0519    7.1278   60.3887 C   0  0  0  0  0  0  0  0  0  0  0  0
   28.5761    8.3610   58.8197 C   0  0  0  0  0  0  0  0  0  0  0  0
   22.5228    8.4937   53.6327 C   0  0  0  0  0  0  0  0  0  0  0  0
   22.2072    7.2133   53.2296 C   0  0  0  0  0  0  0  0  0  0  0  0
   21.4208    7.0650   52.1005 C   0  0  0  0  0  0  0  0  0  0  0  0
   20.9445    8.1277   51.3691 C   0  0  0  0  0  0  0  0  0  0  0  0
   21.2637    9.3576   51.7795 N   0  0  0  0  0  0  0  0  0  0  0  0
   22.0249    9.5176   52.8718 C   0  0  0  0  0  0  0  0  0  0  0  0
   20.1230    7.9160   50.1916 C   0  0  0  0  0  0  0  0  0  0  0  0
   19.4690    7.7360   49.2538 N   0  0  0  0  0  0  0  0  0  0  0  0
   28.7708    7.6736   55.4137 C   0  0  0  0  0  0  0  0  0  0  0  0
   27.8578    8.8373   55.0834 C   0  0  0  0  0  0  0  0  0  0  0  0
   27.1929    8.3822   53.7790 C   0  0  0  0  0  0  0  0  0  0  0  0
   28.8230    9.9517   54.7508 C   0  0  0  0  0  0  0  0  0  0  0  0
 26 27  1  0  0  0
 27 28  1  0  0  0
 27 29  1  0  0  0
 27  1  1  0  0  0
  1  2  1  0  0  0
  2  3  2  0  0  0
  3  4  1  0  0  0
  4  5  1  0  0  0
  5  6  1  0  0  0
  6  7  1  0  0  0
  7  8  1  0  0  0
  8  9  1  0  0  0
  7 18  1  0  0  0
 18 19  2  0  0  0
 19 20  1  0  0  0
 20 21  2  0  0  0
 21 22  1  0  0  0
 22 23  2  0  0  0
 21 24  1  0  0  0
 24 25  3  0  0  0
  2 10  1  0  0  0
 10 11  2  0  0  0
 11 12  1  0  0  0
 12 13  1  0  0  0
 12 14  2  0  0  0
 14 15  1  0  0  0
 15 16  1  0  0  0
 15 17  2  0  0  0
  9  1  1  0  0  0
 23 18  1  0  0  0
 17 10  1  0  0  0
  9  4  2  0  0  0
M  END
> <minimizedAffinity>
32.66806

> <CNNscore>
0.3901734054

> <CNNaffinity>
6.1495490074

> <CNN_VS>
2.3993904591

> <CNNaffinity_variance>
0.9895085096

$$$$
[H]c1nc(C#N)c([H])c([H])c1N1C([H])([H])c2c(nc(-c3c([H])c(C([H])([H])[H])nc(C([H])([H])[H])c3[H])n2C(C([H])([H])[H])(C([H])([H])[H])C([H])([H])[H])C([H])([H])C1([H])[H]


 29 32  0  0  0  0  0  0  0  0999 V2000
   21.3928   10.2904   53.1190 N   0  0  0  0  0  0  0  0  0  0  0  0
   21.2495   11.1539   52.1219 C   0  0  0  0  0  0  0  0  0  0  0  0
   20.9712   10.4343   50.9591 N   0  0  0  0  0  0  0  0  0  0  0  0
   20.9428    9.1565   51.2591 C   0  0  0  0  0  0  0  0  0  0  0  0
   20.6998    7.9145   50.4229 C   0  0  0  0  0  0  0  0  0  0  0  0
   19.6913    7.1291   51.2840 C   0  0  0  0  0  0  0  0  0  0  0  0
   20.3722    6.7233   52.4572 N   0  0  0  0  0  0  0  0  0  0  0  0
   21.1881    7.7128   53.1684 C   0  0  0  0  0  0  0  0  0  0  0  0
   21.2002    9.0376   52.6025 C   0  0  0  0  0  0  0  0  0  0  0  0
   21.3347   12.6041   51.9250 C   0  0  0  0  0  0  0  0  0  0  0  0
   22.2383   13.2859   51.1902 C   0  0  0  0  0  0  0  0  0  0  0  0
   22.1923   14.6441   50.9975 C   0  0  0  0  0  0  0  0  0  0  0  0
   23.2280   15.3552   50.1647 C   0  0  0  0  0  0  0  0  0  0  0  0
   21.2073   15.3447   51.5619 N   0  0  0  0  0  0  0  0  0  0  0  0
   20.2753   14.7157   52.3095 C   0  0  0  0  0  0  0  0  0  0  0  0
   19.2064   15.5570   52.9097 C   0  0  0  0  0  0  0  0  0  0  0  0
   20.3031   13.3661   52.5126 C   0  0  0  0  0  0  0  0  0  0  0  0
   20.3268    5.4049   53.0181 C   0  0  0  0  0  0  0  0  0  0  0  0
   19.1405    4.8235   53.4129 C   0  0  0  0  0  0  0  0  0  0  0  0
   19.1896    3.5446   53.9395 C   0  0  0  0  0  0  0  0  0  0  0  0
   20.3580    2.8341   54.0852 C   0  0  0  0  0  0  0  0  0  0  0  0
   21.4936    3.4186   53.6955 N   0  0  0  0  0  0  0  0  0  0  0  0
   21.4623    4.6575   53.1833 C   0  0  0  0  0  0  0  0  0  0  0  0
   20.3533    1.4947   54.6439 C   0  0  0  0  0  0  0  0  0  0  0  0
   20.3472    0.4308   55.0996 N   0  0  0  0  0  0  0  0  0  0  0  0
   22.4402    9.4356   55.2128 C   0  0  0  0  0  0  0  0  0  0  0  0
   21.7706   10.5586   54.4464 C   0  0  0  0  0  0  0  0  0  0  0  0
   22.8404   11.6569   54.4578 C   0  0  0  0  0  0  0  0  0  0  0  0
   20.6517   10.9878   55.3673 C   0  0  0  0  0  0  0  0  0  0  0  0
 26 27  1  0  0  0
 27 28  1  0  0  0
 27 29  1  0  0  0
 27  1  1  0  0  0
  1  2  1  0  0  0
  2  3  2  0  0  0
  3  4  1  0  0  0
  4  5  1  0  0  0
  5  6  1  0  0  0
  6  7  1  0  0  0
  7  8  1  0  0  0
  8  9  1  0  0  0
  7 18  1  0  0  0
 18 19  2  0  0  0
 19 20  1  0  0  0
 20 21  2  0  0  0
 21 22  1  0  0  0
 22 23  2  0  0  0
 21 24  1  0  0  0
 24 25  3  0  0  0
  2 10  1  0  0  0
 10 11  2  0  0  0
 11 12  1  0  0  0
 12 13  1  0  0  0
 12 14  2  0  0  0
 14 15  1  0  0  0
 15 16  1  0  0  0
 15 17  2  0  0  0
  9  1  1  0  0  0
 23 18  1  0  0  0
 17 10  1  0  0  0
  9  4  2  0  0  0
M  END
> <minimizedAffinity>
61.56985

> <CNNscore>
0.3699948788

> <CNNaffinity>
6.0523838997

> <CNN_VS>
2.2393510342

> <CNNaffinity_variance>
0.5200676322

$$$$
[H]c1nc(C#N)c([H])c([H])c1N1C([H])([H])c2c(nc(-c3c([H])c(C([H])([H])[H])nc(C([H])([H])[H])c3[H])n2C(C([H])([H])[H])(C([H])([H])[H])C([H])([H])[H])C([H])([H])C1([H])[H]


 29 32  0  0  0  0  0  0  0  0999 V2000
   23.3702    8.8482   54.9290 N   0  0  0  0  0  0  0  0  0  0  0  0
   23.2598    7.9219   53.9855 C   0  0  0  0  0  0  0  0  0  0  0  0
   24.5444    7.5203   53.6169 N   0  0  0  0  0  0  0  0  0  0  0  0
   25.4118    8.1944   54.3359 C   0  0  0  0  0  0  0  0  0  0  0  0
   26.9282    8.1934   54.3755 C   0  0  0  0  0  0  0  0  0  0  0  0
   27.2186    8.1217   55.8875 C   0  0  0  0  0  0  0  0  0  0  0  0
   26.7809    9.3432   56.4542 N   0  0  0  0  0  0  0  0  0  0  0  0
   25.4577    9.8522   56.0793 C   0  0  0  0  0  0  0  0  0  0  0  0
   24.7059    9.0295   55.1662 C   0  0  0  0  0  0  0  0  0  0  0  0
   22.1860    7.2604   53.2382 C   0  0  0  0  0  0  0  0  0  0  0  0
   21.6587    6.0377   53.4584 C   0  0  0  0  0  0  0  0  0  0  0  0
   20.5954    5.5303   52.7542 C   0  0  0  0  0  0  0  0  0  0  0  0
   20.0448    4.1574   53.0432 C   0  0  0  0  0  0  0  0  0  0  0  0
   20.0414    6.2730   51.7944 N   0  0  0  0  0  0  0  0  0  0  0  0
   20.5284    7.5040   51.5289 C   0  0  0  0  0  0  0  0  0  0  0  0
   19.8644    8.2770   50.4462 C   0  0  0  0  0  0  0  0  0  0  0  0
   21.5843    8.0269   52.2181 C   0  0  0  0  0  0  0  0  0  0  0  0
   27.5350   10.1346   57.3814 C   0  0  0  0  0  0  0  0  0  0  0  0
   28.3756    9.5605   58.3115 C   0  0  0  0  0  0  0  0  0  0  0  0
   29.0692   10.4014   59.1641 C   0  0  0  0  0  0  0  0  0  0  0  0
   28.9585   11.7716   59.1257 C   0  0  0  0  0  0  0  0  0  0  0  0
   28.1383   12.3037   58.2163 N   0  0  0  0  0  0  0  0  0  0  0  0
   27.4594   11.5019   57.3829 C   0  0  0  0  0  0  0  0  0  0  0  0
   29.7092   12.6079   60.0440 C   0  0  0  0  0  0  0  0  0  0  0  0
   30.3166   13.2750   60.7690 N   0  0  0  0  0  0  0  0  0  0  0  0
   21.7210   10.7019   54.6934 C   0  0  0  0  0  0  0  0  0  0  0  0
   22.3429    9.5992   55.5267 C   0  0  0  0  0  0  0  0  0  0  0  0
   21.1478    8.6837   55.8172 C   0  0  0  0  0  0  0  0  0  0  0  0
   22.7143   10.3031   56.8115 C   0  0  0  0  0  0  0  0  0  0  0  0
 26 27  1  0  0  0
 27 28  1  0  0  0
 27 29  1  0  0  0
 27  1  1  0  0  0
  1  2  1  0  0  0
  2  3  2  0  0  0
  3  4  1  0  0  0
  4  5  1  0  0  0
  5  6  1  0  0  0
  6  7  1  0  0  0
  7  8  1  0  0  0
  8  9  1  0  0  0
  7 18  1  0  0  0
 18 19  2  0  0  0
 19 20  1  0  0  0
 20 21  2  0  0  0
 21 22  1  0  0  0
 22 23  2  0  0  0
 21 24  1  0  0  0
 24 25  3  0  0  0
  2 10  1  0  0  0
 10 11  2  0  0  0
 11 12  1  0  0  0
 12 13  1  0  0  0
 12 14  2  0  0  0
 14 15  1  0  0  0
 15 16  1  0  0  0
 15 17  2  0  0  0
  9  1  1  0  0  0
 23 18  1  0  0  0
 17 10  1  0  0  0
  9  4  2  0  0  0
M  END
> <minimizedAffinity>
20.59599

> <CNNscore>
0.3697075844

> <CNNaffinity>
6.3280844688

> <CNN_VS>
2.3395407200

> <CNNaffinity_variance>
0.8746428490

$$$$
[H]OC(=O)[C@@]1(F)[C@]2([H])C([H])([H])[C@@]([H])(OC([H])([H])c3c([H])c([H])c(Cl)c(Cl)c3[H])[C@](C(=O)O[H])(N([H])[H])[C@]12[H]


 28 30  0  0  0  0  0  0  0  0999 V2000
   20.0739    6.9564   52.9910 N   0  0  0  0  0  0  0  0  0  0  0  0
   21.1583    7.9040   53.1671 C   0  0  0  0  0  0  0  0  0  0  0  0
   22.4474    7.1142   53.1236 C   0  0  0  0  0  0  0  0  0  0  0  0
   22.8941    6.9134   54.5322 C   0  0  0  0  0  0  0  0  0  0  0  0
   21.7778    7.4842   55.3809 C   0  0  0  0  0  0  0  0  0  0  0  0
   21.0812    8.5168   54.5454 C   0  0  0  0  0  0  0  0  0  0  0  0
   22.5347    5.7466   53.6352 C   0  0  0  0  0  0  0  0  0  0  0  0
   21.3966    5.0726   54.0393 F   0  0  0  0  0  0  0  0  0  0  0  0
   20.2359    6.3977   52.1221 H   0  0  0  0  0  0  0  0  0  0  0  0
   19.1565    7.4592   52.8199 H   0  0  0  0  0  0  0  0  0  0  0  0
   23.6811    4.9213   53.2322 C   0  0  0  0  0  0  0  0  0  0  0  0
   24.5235    5.2947   52.1936 O   0  0  0  0  0  0  0  0  0  0  0  0
   23.9359    3.8406   53.8223 O   0  0  0  0  0  0  0  0  0  0  0  0
   24.7090    4.7039   51.3915 H   0  0  0  0  0  0  0  0  0  0  0  0
   21.1502    8.8901   52.0934 C   0  0  0  0  0  0  0  0  0  0  0  0
   21.5087   10.1970   52.3411 O   0  0  0  0  0  0  0  0  0  0  0  0
   20.8149    8.5456   50.9379 O   0  0  0  0  0  0  0  0  0  0  0  0
   21.3711   10.9314   51.6467 H   0  0  0  0  0  0  0  0  0  0  0  0
   21.5263    9.7730   54.6478 O   0  0  0  0  0  0  0  0  0  0  0  0
   22.4457   10.1418   55.5523 C   0  0  0  0  0  0  0  0  0  0  0  0
   23.7798    9.5952   55.1772 C   0  0  0  0  0  0  0  0  0  0  0  0
   24.0408    9.0373   53.9490 C   0  0  0  0  0  0  0  0  0  0  0  0
   25.2841    8.5458   53.6453 C   0  0  0  0  0  0  0  0  0  0  0  0
   26.3037    8.6008   54.5692 C   0  0  0  0  0  0  0  0  0  0  0  0
   27.9019    7.9613   54.1591 Cl  0  0  0  0  0  0  0  0  0  0  0  0
   26.0597    9.1552   55.8011 C   0  0  0  0  0  0  0  0  0  0  0  0
   27.3826    9.2046   56.9437 Cl  0  0  0  0  0  0  0  0  0  0  0  0
   24.8075    9.6448   56.0933 C   0  0  0  0  0  0  0  0  0  0  0  0
  1  2  1  0  0  0
  2  3  1  0  0  0
  3  4  1  0  0  0
  4  5  1  0  0  0
  5  6  1  0  0  0
  6 19  1  0  0  0
 19 20  1  0  0  0
 20 21  1  0  0  0
 21 22  2  0  0  0
 22 23  1  0  0  0
 23 24  2  0  0  0
 24 25  1  0  0  0
 24 26  1  0  0  0
 26 27  1  0  0  0
 26 28  2  0  0  0
  4  7  1  0  0  0
  7  8  1  0  0  0
  7 11  1  0  0  0
 11 12  1  0  0  0
 11 13  2  0  0  0
  2 15  1  0  0  0
 15 16  1  0  0  0
 15 17  2  0  0  0
  6  2  1  0  0  0
 28 21  1  0  0  0
  7  3  1  0  0  0
  1  9  1  0  0  0
  1 10  1  0  0  0
 12 14  1  0  0  0
 16 18  1  0  0  0
M  END
> <minimizedAffinity>
4.79721

> <CNNscore>
0.7313693166

> <CNNaffinity>
6.4742431641

> <CNN_VS>
4.7350625992

> <CNNaffinity_variance>
0.3577077091

$$$$
[H]OC(=O)[C@@]1(F)[C@]2([H])C([H])([H])[C@@]([H])(OC([H])([H])c3c([H])c([H])c(Cl)c(Cl)c3[H])[C@](C(=O)O[H])(N([H])[H])[C@]12[H]


 28 30  0  0  0  0  0  0  0  0999 V2000
   20.1045    7.6136   53.7311 N   0  0  0  0  0  0  0  0  0  0  0  0
   21.5069    7.8161   54.0426 C   0  0  0  0  0  0  0  0  0  0  0  0
   21.8801    9.1894   53.5305 C   0  0  0  0  0  0  0  0  0  0  0  0
   22.5828    9.0030   52.2283 C   0  0  0  0  0  0  0  0  0  0  0  0
   22.4894    7.5190   51.9431 C   0  0  0  0  0  0  0  0  0  0  0  0
   22.3489    6.8300   53.2679 C   0  0  0  0  0  0  0  0  0  0  0  0
   21.2729    9.7579   52.3272 C   0  0  0  0  0  0  0  0  0  0  0  0
   20.2200    9.1165   51.7001 F   0  0  0  0  0  0  0  0  0  0  0  0
   19.5436    8.4092   54.1128 H   0  0  0  0  0  0  0  0  0  0  0  0
   19.7270    6.7563   54.2274 H   0  0  0  0  0  0  0  0  0  0  0  0
   21.3927   11.2041   52.1003 C   0  0  0  0  0  0  0  0  0  0  0  0
   21.4092   11.7462   50.8221 O   0  0  0  0  0  0  0  0  0  0  0  0
   21.4848   12.0025   53.0674 O   0  0  0  0  0  0  0  0  0  0  0  0
   22.1576   12.3385   50.4816 H   0  0  0  0  0  0  0  0  0  0  0  0
   21.7212    7.7544   55.4833 C   0  0  0  0  0  0  0  0  0  0  0  0
   21.8991    6.5421   56.1129 O   0  0  0  0  0  0  0  0  0  0  0  0
   21.7435    8.8118   56.1524 O   0  0  0  0  0  0  0  0  0  0  0  0
   21.9035    6.4617   57.1298 H   0  0  0  0  0  0  0  0  0  0  0  0
   23.4789    6.4374   53.8642 O   0  0  0  0  0  0  0  0  0  0  0  0
   24.6906    6.6619   53.3342 C   0  0  0  0  0  0  0  0  0  0  0  0
   25.4797    7.5585   54.2244 C   0  0  0  0  0  0  0  0  0  0  0  0
   24.9020    8.3681   55.1724 C   0  0  0  0  0  0  0  0  0  0  0  0
   25.6665    9.1785   55.9714 C   0  0  0  0  0  0  0  0  0  0  0  0
   27.0371    9.1991   55.8405 C   0  0  0  0  0  0  0  0  0  0  0  0
   28.0074   10.2517   56.8807 Cl  0  0  0  0  0  0  0  0  0  0  0  0
   27.6304    8.3963   54.8982 C   0  0  0  0  0  0  0  0  0  0  0  0
   29.3732    8.4538   54.7660 Cl  0  0  0  0  0  0  0  0  0  0  0  0
   26.8516    7.5876   54.1027 C   0  0  0  0  0  0  0  0  0  0  0  0
  1  2  1  0  0  0
  2  3  1  0  0  0
  3  4  1  0  0  0
  4  5  1  0  0  0
  5  6  1  0  0  0
  6 19  1  0  0  0
 19 20  1  0  0  0
 20 21  1  0  0  0
 21 22  2  0  0  0
 22 23  1  0  0  0
 23 24  2  0  0  0
 24 25  1  0  0  0
 24 26  1  0  0  0
 26 27  1  0  0  0
 26 28  2  0  0  0
  4  7  1  0  0  0
  7  8  1  0  0  0
  7 11  1  0  0  0
 11 12  1  0  0  0
 11 13  2  0  0  0
  2 15  1  0  0  0
 15 16  1  0  0  0
 15 17  2  0  0  0
  6  2  1  0  0  0
 28 21  1  0  0  0
  7  3  1  0  0  0
  1  9  1  0  0  0
  1 10  1  0  0  0
 12 14  1  0  0  0
 16 18  1  0  0  0
M  END
> <minimizedAffinity>
2.46675

> <CNNscore>
0.7125099897

> <CNNaffinity>
6.1428675652

> <CNN_VS>
4.3768544197

> <CNNaffinity_variance>
0.2245154828

$$$$
[H]OC(=O)[C@@]1(F)[C@]2([H])C([H])([H])[C@@]([H])(OC([H])([H])c3c([H])c([H])c(Cl)c(Cl)c3[H])[C@](C(=O)O[H])(N([H])[H])[C@]12[H]


 28 30  0  0  0  0  0  0  0  0999 V2000
   19.8072    8.9916   52.4515 N   0  0  0  0  0  0  0  0  0  0  0  0
   21.1350    8.9060   53.0299 C   0  0  0  0  0  0  0  0  0  0  0  0
   21.4224    7.4396   53.2630 C   0  0  0  0  0  0  0  0  0  0  0  0
   21.1830    7.1635   54.7089 C   0  0  0  0  0  0  0  0  0  0  0  0
   20.6313    8.4580   55.2675 C   0  0  0  0  0  0  0  0  0  0  0  0
   21.1419    9.5623   54.3903 C   0  0  0  0  0  0  0  0  0  0  0  0
   20.3676    6.4920   53.6229 C   0  0  0  0  0  0  0  0  0  0  0  0
   19.0400    6.8798   53.6129 F   0  0  0  0  0  0  0  0  0  0  0  0
   19.7540    8.3778   51.6067 H   0  0  0  0  0  0  0  0  0  0  0  0
   19.6161    9.9683   52.0865 H   0  0  0  0  0  0  0  0  0  0  0  0
   20.6358    5.0560   53.4692 C   0  0  0  0  0  0  0  0  0  0  0  0
   19.6101    4.1281   53.3484 O   0  0  0  0  0  0  0  0  0  0  0  0
   21.8150    4.6202   53.4424 O   0  0  0  0  0  0  0  0  0  0  0  0
   19.5095    3.3305   53.9654 H   0  0  0  0  0  0  0  0  0  0  0  0
   22.1244    9.4607   52.1142 C   0  0  0  0  0  0  0  0  0  0  0  0
   23.3307    8.8248   51.9185 O   0  0  0  0  0  0  0  0  0  0  0  0
   21.8749   10.5231   51.5013 O   0  0  0  0  0  0  0  0  0  0  0  0
   24.0913    9.2655   51.4010 H   0  0  0  0  0  0  0  0  0  0  0  0
   22.2943   10.1341   54.7530 O   0  0  0  0  0  0  0  0  0  0  0  0
   22.9843    9.7446   55.8355 C   0  0  0  0  0  0  0  0  0  0  0  0
   24.3212    9.2270   55.4306 C   0  0  0  0  0  0  0  0  0  0  0  0
   24.5105    8.4228   54.3327 C   0  0  0  0  0  0  0  0  0  0  0  0
   25.7593    7.9683   53.9958 C   0  0  0  0  0  0  0  0  0  0  0  0
   26.8569    8.3095   54.7542 C   0  0  0  0  0  0  0  0  0  0  0  0
   28.4609    7.7133   54.3037 Cl  0  0  0  0  0  0  0  0  0  0  0  0
   26.6851    9.1124   55.8544 C   0  0  0  0  0  0  0  0  0  0  0  0
   28.1057    9.5210   56.7888 Cl  0  0  0  0  0  0  0  0  0  0  0  0
   25.4265    9.5618   56.1816 C   0  0  0  0  0  0  0  0  0  0  0  0
  1  2  1  0  0  0
  2  3  1  0  0  0
  3  4  1  0  0  0
  4  5  1  0  0  0
  5  6  1  0  0  0
  6 19  1  0  0  0
 19 20  1  0  0  0
 20 21  1  0  0  0
 21 22  2  0  0  0
 22 23  1  0  0  0
 23 24  2  0  0  0
 24 25  1  0  0  0
 24 26  1  0  0  0
 26 27  1  0  0  0
 26 28  2  0  0  0
  4  7  1  0  0  0
  7  8  1  0  0  0
  7 11  1  0  0  0
 11 12  1  0  0  0
 11 13  2  0  0  0
  2 15  1  0  0  0
 15 16  1  0  0  0
 15 17  2  0  0  0
  6  2  1  0  0  0
 28 21  1  0  0  0
  7  3  1  0  0  0
  1  9  1  0  0  0
  1 10  1  0  0  0
 12 14  1  0  0  0
 16 18  1  0  0  0
M  END
> <minimizedAffinity>
10.47059

> <CNNscore>
0.6754550934

> <CNNaffinity>
6.0870604515

> <CNN_VS>
4.1115360260

> <CNNaffinity_variance>
0.4379524291

$$$$
[H]OC(=O)[C@@]1(F)[C@]2([H])C([H])([H])[C@@]([H])(OC([H])([H])c3c([H])c([H])c(Cl)c(Cl)c3[H])[C@](C(=O)O[H])(N([H])[H])[C@]12[H]


 28 30  0  0  0  0  0  0  0  0999 V2000
   20.1535    8.1387   54.1411 N   0  0  0  0  0  0  0  0  0  0  0  0
   21.5597    8.3857   54.3990 C   0  0  0  0  0  0  0  0  0  0  0  0
   21.9414    9.6249   53.6206 C   0  0  0  0  0  0  0  0  0  0  0  0
   22.6337    9.1747   52.3787 C   0  0  0  0  0  0  0  0  0  0  0  0
   22.5256    7.6647   52.3969 C   0  0  0  0  0  0  0  0  0  0  0  0
   22.3879    7.2562   53.8335 C   0  0  0  0  0  0  0  0  0  0  0  0
   21.3312    9.9469   52.3306 C   0  0  0  0  0  0  0  0  0  0  0  0
   20.2687    9.2034   51.8497 F   0  0  0  0  0  0  0  0  0  0  0  0
   19.6021    9.0001   54.3583 H   0  0  0  0  0  0  0  0  0  0  0  0
   19.7719    7.4019   54.8008 H   0  0  0  0  0  0  0  0  0  0  0  0
   21.4619   11.3173   51.8181 C   0  0  0  0  0  0  0  0  0  0  0  0
   21.1961   11.6319   50.4922 O   0  0  0  0  0  0  0  0  0  0  0  0
   21.8225   12.2558   52.5733 O   0  0  0  0  0  0  0  0  0  0  0  0
   21.8680   12.0880   49.8860 H   0  0  0  0  0  0  0  0  0  0  0  0
   21.7829    8.6116   55.8219 C   0  0  0  0  0  0  0  0  0  0  0  0
   21.5223    7.6161   56.7377 O   0  0  0  0  0  0  0  0  0  0  0  0
   22.2149    9.7191   56.2133 O   0  0  0  0  0  0  0  0  0  0  0  0
   21.5299    7.7959   57.7417 H   0  0  0  0  0  0  0  0  0  0  0  0
   23.5184    6.9799   54.4910 O   0  0  0  0  0  0  0  0  0  0  0  0
   24.6186    6.5222   53.8748 C   0  0  0  0  0  0  0  0  0  0  0  0
   25.7480    7.4733   54.0719 C   0  0  0  0  0  0  0  0  0  0  0  0
   26.4956    7.9719   53.0324 C   0  0  0  0  0  0  0  0  0  0  0  0
   27.5274    8.8459   53.2589 C   0  0  0  0  0  0  0  0  0  0  0  0
   27.8386    9.2452   54.5395 C   0  0  0  0  0  0  0  0  0  0  0  0
   29.1738   10.3740   54.8121 Cl  0  0  0  0  0  0  0  0  0  0  0  0
   27.1015    8.7564   55.5893 C   0  0  0  0  0  0  0  0  0  0  0  0
   27.5309    9.2897   57.1985 Cl  0  0  0  0  0  0  0  0  0  0  0  0
   26.0686    7.8799   55.3484 C   0  0  0  0  0  0  0  0  0  0  0  0
  1  2  1  0  0  0
  2  3  1  0  0  0
  3  4  1  0  0  0
  4  5  1  0  0  0
  5  6  1  0  0  0
  6 19  1  0  0  0
 19 20  1  0  0  0
 20 21  1  0  0  0
 21 22  2  0  0  0
 22 23  1  0  0  0
 23 24  2  0  0  0
 24 25  1  0  0  0
 24 26  1  0  0  0
 26 27  1  0  0  0
 26 28  2  0  0  0
  4  7  1  0  0  0
  7  8  1  0  0  0
  7 11  1  0  0  0
 11 12  1  0  0  0
 11 13  2  0  0  0
  2 15  1  0  0  0
 15 16  1  0  0  0
 15 17  2  0  0  0
  6  2  1  0  0  0
 28 21  1  0  0  0
  7  3  1  0  0  0
  1  9  1  0  0  0
  1 10  1  0  0  0
 12 14  1  0  0  0
 16 18  1  0  0  0
M  END
> <minimizedAffinity>
4.81425

> <CNNscore>
0.6606854796

> <CNNaffinity>
6.1995058060

> <CNN_VS>
4.0959234238

> <CNNaffinity_variance>
0.2458034456

$$$$
[H]OC(=O)[C@@]1(F)[C@]2([H])C([H])([H])[C@@]([H])(OC([H])([H])c3c([H])c([H])c(Cl)c(Cl)c3[H])[C@](C(=O)O[H])(N([H])[H])[C@]12[H]


 28 30  0  0  0  0  0  0  0  0999 V2000
   19.8817    8.2103   54.2127 N   0  0  0  0  0  0  0  0  0  0  0  0
   21.3298    8.1668   54.2902 C   0  0  0  0  0  0  0  0  0  0  0  0
   21.8497    9.3674   53.5315 C   0  0  0  0  0  0  0  0  0  0  0  0
   22.2818    8.8907   52.1860 C   0  0  0  0  0  0  0  0  0  0  0  0
   21.8811    7.4314   52.1416 C   0  0  0  0  0  0  0  0  0  0  0  0
   21.8432    6.9478   53.5609 C   0  0  0  0  0  0  0  0  0  0  0  0
   21.1612    9.8964   52.3542 C   0  0  0  0  0  0  0  0  0  0  0  0
   19.9221    9.4058   51.9842 F   0  0  0  0  0  0  0  0  0  0  0  0
   19.5419    9.1412   54.5462 H   0  0  0  0  0  0  0  0  0  0  0  0
   19.4463    7.5106   54.8795 H   0  0  0  0  0  0  0  0  0  0  0  0
   21.4957   11.2524   51.8993 C   0  0  0  0  0  0  0  0  0  0  0  0
   21.3833   11.6267   50.5670 O   0  0  0  0  0  0  0  0  0  0  0  0
   21.8980   12.1235   52.7119 O   0  0  0  0  0  0  0  0  0  0  0  0
   22.1536   12.0125   50.0335 H   0  0  0  0  0  0  0  0  0  0  0  0
   21.7662    8.2372   55.6794 C   0  0  0  0  0  0  0  0  0  0  0  0
   21.6192    7.1518   56.5148 O   0  0  0  0  0  0  0  0  0  0  0  0
   22.2785    9.2927   56.1154 O   0  0  0  0  0  0  0  0  0  0  0  0
   21.7795    7.2231   57.5196 H   0  0  0  0  0  0  0  0  0  0  0  0
   22.9690    6.4136   54.0444 O   0  0  0  0  0  0  0  0  0  0  0  0
   24.0736    6.2604   53.2988 C   0  0  0  0  0  0  0  0  0  0  0  0
   25.1561    7.1530   53.7995 C   0  0  0  0  0  0  0  0  0  0  0  0
   25.3779    7.3823   55.1360 C   0  0  0  0  0  0  0  0  0  0  0  0
   26.3863    8.2120   55.5535 C   0  0  0  0  0  0  0  0  0  0  0  0
   27.2032    8.8369   54.6378 C   0  0  0  0  0  0  0  0  0  0  0  0
   28.4997    9.9043   55.1956 Cl  0  0  0  0  0  0  0  0  0  0  0  0
   26.9952    8.6185   53.2986 C   0  0  0  0  0  0  0  0  0  0  0  0
   28.0556    9.4320   52.1708 Cl  0  0  0  0  0  0  0  0  0  0  0  0
   25.9797    7.7836   52.8929 C   0  0  0  0  0  0  0  0  0  0  0  0
  1  2  1  0  0  0
  2  3  1  0  0  0
  3  4  1  0  0  0
  4  5  1  0  0  0
  5  6  1  0  0  0
  6 19  1  0  0  0
 19 20  1  0  0  0
 20 21  1  0  0  0
 21 22  2  0  0  0
 22 23  1  0  0  0
 23 24  2  0  0  0
 24 25  1  0  0  0
 24 26  1  0  0  0
 26 27  1  0  0  0
 26 28  2  0  0  0
  4  7  1  0  0  0
  7  8  1  0  0  0
  7 11  1  0  0  0
 11 12  1  0  0  0
 11 13  2  0  0  0
  2 15  1  0  0  0
 15 16  1  0  0  0
 15 17  2  0  0  0
  6  2  1  0  0  0
 28 21  1  0  0  0
  7  3  1  0  0  0
  1  9  1  0  0  0
  1 10  1  0  0  0
 12 14  1  0  0  0
 16 18  1  0  0  0
M  END
> <minimizedAffinity>
7.50029

> <CNNscore>
0.6602271199

> <CNNaffinity>
6.1744308472

> <CNN_VS>
4.0765266418

> <CNNaffinity_variance>
0.2645034790

$$$$
[H]OC(=O)[C@@]1(F)[C@]2([H])C([H])([H])[C@@]([H])(OC([H])([H])c3c([H])c([H])c(Cl)c(Cl)c3[H])[C@](C(=O)O[H])(N([H])[H])[C@]12[H]


 28 30  0  0  0  0  0  0  0  0999 V2000
   20.9194    6.5741   53.8125 N   0  0  0  0  0  0  0  0  0  0  0  0
   22.2622    6.9299   54.2311 C   0  0  0  0  0  0  0  0  0  0  0  0
   22.2636    8.4192   54.4943 C   0  0  0  0  0  0  0  0  0  0  0  0
   22.8640    9.0816   53.3005 C   0  0  0  0  0  0  0  0  0  0  0  0
   23.0836    7.9640   52.3031 C   0  0  0  0  0  0  0  0  0  0  0  0
   23.2291    6.6980   53.0941 C   0  0  0  0  0  0  0  0  0  0  0  0
   21.4322    9.3423   53.7219 C   0  0  0  0  0  0  0  0  0  0  0  0
   20.4982    8.8627   52.8216 F   0  0  0  0  0  0  0  0  0  0  0  0
   20.2311    6.9109   54.5239 H   0  0  0  0  0  0  0  0  0  0  0  0
   20.7952    5.5215   53.7957 H   0  0  0  0  0  0  0  0  0  0  0  0
   21.1983   10.6892   54.2593 C   0  0  0  0  0  0  0  0  0  0  0  0
   20.9258   10.9043   55.6036 O   0  0  0  0  0  0  0  0  0  0  0  0
   21.2384   11.6978   53.5096 O   0  0  0  0  0  0  0  0  0  0  0  0
   20.0986   11.3903   55.9299 H   0  0  0  0  0  0  0  0  0  0  0  0
   22.6200    6.2155   55.4505 C   0  0  0  0  0  0  0  0  0  0  0  0
   21.8785    6.3786   56.6000 O   0  0  0  0  0  0  0  0  0  0  0  0
   23.6087    5.4481   55.4519 O   0  0  0  0  0  0  0  0  0  0  0  0
   22.1919    6.0079   57.4972 H   0  0  0  0  0  0  0  0  0  0  0  0
   24.4699    6.3502   53.4492 O   0  0  0  0  0  0  0  0  0  0  0  0
   25.5601    6.9324   52.9276 C   0  0  0  0  0  0  0  0  0  0  0  0
   26.2596    7.7343   53.9701 C   0  0  0  0  0  0  0  0  0  0  0  0
   27.6280    7.8351   54.0428 C   0  0  0  0  0  0  0  0  0  0  0  0
   28.2311    8.5848   55.0195 C   0  0  0  0  0  0  0  0  0  0  0  0
   27.4747    9.2564   55.9539 C   0  0  0  0  0  0  0  0  0  0  0  0
   28.2709   10.2191   57.2072 Cl  0  0  0  0  0  0  0  0  0  0  0  0
   26.1062    9.1663   55.8954 C   0  0  0  0  0  0  0  0  0  0  0  0
   25.1847   10.0351   57.1013 Cl  0  0  0  0  0  0  0  0  0  0  0  0
   25.5135    8.4106   54.9101 C   0  0  0  0  0  0  0  0  0  0  0  0
  1  2  1  0  0  0
  2  3  1  0  0  0
  3  4  1  0  0  0
  4  5  1  0  0  0
  5  6  1  0  0  0
  6 19  1  0  0  0
 19 20  1  0  0  0
 20 21  1  0  0  0
 21 22  2  0  0  0
 22 23  1  0  0  0
 23 24  2  0  0  0
 24 25  1  0  0  0
 24 26  1  0  0  0
 26 27  1  0  0  0
 26 28  2  0  0  0
  4  7  1  0  0  0
  7  8  1  0  0  0
  7 11  1  0  0  0
 11 12  1  0  0  0
 11 13  2  0  0  0
  2 15  1  0  0  0
 15 16  1  0  0  0
 15 17  2  0  0  0
  6  2  1  0  0  0
 28 21  1  0  0  0
  7  3  1  0  0  0
  1  9  1  0  0  0
  1 10  1  0  0  0
 12 14  1  0  0  0
 16 18  1  0  0  0
M  END
> <minimizedAffinity>
5.06054

> <CNNscore>
0.5647600293

> <CNNaffinity>
6.3203988075

> <CNN_VS>
3.5695085526

> <CNNaffinity_variance>
0.2710412443

$$$$
[H]OC(=O)[C@@]1(F)[C@]2([H])C([H])([H])[C@@]([H])(OC([H])([H])c3c([H])c([H])c(Cl)c(Cl)c3[H])[C@](C(=O)O[H])(N([H])[H])[C@]12[H]


 28 30  0  0  0  0  0  0  0  0999 V2000
   20.8260    6.5970   53.8348 N   0  0  0  0  0  0  0  0  0  0  0  0
   22.1797    6.9149   54.2485 C   0  0  0  0  0  0  0  0  0  0  0  0
   22.2231    8.4031   54.5148 C   0  0  0  0  0  0  0  0  0  0  0  0
   22.8364    9.0513   53.3199 C   0  0  0  0  0  0  0  0  0  0  0  0
   23.0212    7.9302   52.3193 C   0  0  0  0  0  0  0  0  0  0  0  0
   23.1352    6.6590   53.1070 C   0  0  0  0  0  0  0  0  0  0  0  0
   21.4141    9.3503   53.7478 C   0  0  0  0  0  0  0  0  0  0  0  0
   20.4636    8.8984   52.8504 F   0  0  0  0  0  0  0  0  0  0  0  0
   20.1500    6.9510   54.5497 H   0  0  0  0  0  0  0  0  0  0  0  0
   20.6728    5.5482   53.8163 H   0  0  0  0  0  0  0  0  0  0  0  0
   21.2195   10.7019   54.2890 C   0  0  0  0  0  0  0  0  0  0  0  0
   20.9458   10.9206   55.6325 O   0  0  0  0  0  0  0  0  0  0  0  0
   21.2958   11.7115   53.5433 O   0  0  0  0  0  0  0  0  0  0  0  0
   20.1325   11.4312   55.9558 H   0  0  0  0  0  0  0  0  0  0  0  0
   22.5228    6.1883   55.4650 C   0  0  0  0  0  0  0  0  0  0  0  0
   21.7810    6.3570   56.6134 O   0  0  0  0  0  0  0  0  0  0  0  0
   23.4991    5.4052   55.4647 O   0  0  0  0  0  0  0  0  0  0  0  0
   22.0860    5.9766   57.5093 H   0  0  0  0  0  0  0  0  0  0  0  0
   24.3674    6.2766   53.4562 O   0  0  0  0  0  0  0  0  0  0  0  0
   25.4700    6.8913   53.0024 C   0  0  0  0  0  0  0  0  0  0  0  0
   26.0368    7.7722   54.0616 C   0  0  0  0  0  0  0  0  0  0  0  0
   25.3958    8.0178   55.2519 C   0  0  0  0  0  0  0  0  0  0  0  0
   25.9539    8.8358   56.2001 C   0  0  0  0  0  0  0  0  0  0  0  0
   27.1752    9.4322   55.9792 C   0  0  0  0  0  0  0  0  0  0  0  0
   27.8798   10.4850   57.2148 Cl  0  0  0  0  0  0  0  0  0  0  0  0
   27.8290    9.1972   54.7952 C   0  0  0  0  0  0  0  0  0  0  0  0
   29.3771    9.9747   54.5564 Cl  0  0  0  0  0  0  0  0  0  0  0  0
   27.2579    8.3742   53.8519 C   0  0  0  0  0  0  0  0  0  0  0  0
  1  2  1  0  0  0
  2  3  1  0  0  0
  3  4  1  0  0  0
  4  5  1  0  0  0
  5  6  1  0  0  0
  6 19  1  0  0  0
 19 20  1  0  0  0
 20 21  1  0  0  0
 21 22  2  0  0  0
 22 23  1  0  0  0
 23 24  2  0  0  0
 24 25  1  0  0  0
 24 26  1  0  0  0
 26 27  1  0  0  0
 26 28  2  0  0  0
  4  7  1  0  0  0
  7  8  1  0  0  0
  7 11  1  0  0  0
 11 12  1  0  0  0
 11 13  2  0  0  0
  2 15  1  0  0  0
 15 16  1  0  0  0
 15 17  2  0  0  0
  6  2  1  0  0  0
 28 21  1  0  0  0
  7  3  1  0  0  0
  1  9  1  0  0  0
  1 10  1  0  0  0
 12 14  1  0  0  0
 16 18  1  0  0  0
M  END
> <minimizedAffinity>
3.90565

> <CNNscore>
0.5498476624

> <CNNaffinity>
6.2286696434

> <CNN_VS>
3.4248194695

> <CNNaffinity_variance>
0.1814033836

$$$$
[H]OC(=O)[C@@]1(F)[C@]2([H])C([H])([H])[C@@]([H])(OC([H])([H])c3c([H])c([H])c(Cl)c(Cl)c3[H])[C@](C(=O)O[H])(N([H])[H])[C@]12[H]


 28 30  0  0  0  0  0  0  0  0999 V2000
   29.0612    7.7984   54.3287 N   0  0  0  0  0  0  0  0  0  0  0  0
   27.8104    8.4970   54.1000 C   0  0  0  0  0  0  0  0  0  0  0  0
   27.6220    9.4563   55.2540 C   0  0  0  0  0  0  0  0  0  0  0  0
   26.6622    8.8251   56.2051 C   0  0  0  0  0  0  0  0  0  0  0  0
   26.4083    7.4423   55.6435 C   0  0  0  0  0  0  0  0  0  0  0  0
   26.6608    7.5198   54.1671 C   0  0  0  0  0  0  0  0  0  0  0  0
   28.0886    9.1431   56.6046 C   0  0  0  0  0  0  0  0  0  0  0  0
   28.8574    8.0177   56.8401 F   0  0  0  0  0  0  0  0  0  0  0  0
   29.8287    8.4939   54.4719 H   0  0  0  0  0  0  0  0  0  0  0  0
   29.3515    7.2514   53.4683 H   0  0  0  0  0  0  0  0  0  0  0  0
   28.2124   10.2402   57.5733 C   0  0  0  0  0  0  0  0  0  0  0  0
   28.8984   10.0864   58.7706 O   0  0  0  0  0  0  0  0  0  0  0  0
   27.6951   11.3632   57.3444 O   0  0  0  0  0  0  0  0  0  0  0  0
   28.4800   10.2674   59.6756 H   0  0  0  0  0  0  0  0  0  0  0  0
   27.8660    9.2408   52.8474 C   0  0  0  0  0  0  0  0  0  0  0  0
   28.7316   10.3025   52.7019 O   0  0  0  0  0  0  0  0  0  0  0  0
   27.1210    8.9113   51.8972 O   0  0  0  0  0  0  0  0  0  0  0  0
   28.6854   10.9253   51.8954 H   0  0  0  0  0  0  0  0  0  0  0  0
   25.6101    7.8055   53.3917 O   0  0  0  0  0  0  0  0  0  0  0  0
   24.4030    7.2510   53.5785 C   0  0  0  0  0  0  0  0  0  0  0  0
   23.3928    8.3087   53.8611 C   0  0  0  0  0  0  0  0  0  0  0  0
   23.0306    8.6756   55.1347 C   0  0  0  0  0  0  0  0  0  0  0  0
   22.0957    9.6550   55.3498 C   0  0  0  0  0  0  0  0  0  0  0  0
   21.4960   10.2958   54.2886 C   0  0  0  0  0  0  0  0  0  0  0  0
   20.2914   11.5575   54.5858 Cl  0  0  0  0  0  0  0  0  0  0  0  0
   21.8466    9.9412   53.0096 C   0  0  0  0  0  0  0  0  0  0  0  0
   21.0605   10.7804   51.6920 Cl  0  0  0  0  0  0  0  0  0  0  0  0
   22.7863    8.9567   52.8075 C   0  0  0  0  0  0  0  0  0  0  0  0
  1  2  1  0  0  0
  2  3  1  0  0  0
  3  4  1  0  0  0
  4  5  1  0  0  0
  5  6  1  0  0  0
  6 19  1  0  0  0
 19 20  1  0  0  0
 20 21  1  0  0  0
 21 22  2  0  0  0
 22 23  1  0  0  0
 23 24  2  0  0  0
 24 25  1  0  0  0
 24 26  1  0  0  0
 26 27  1  0  0  0
 26 28  2  0  0  0
  4  7  1  0  0  0
  7  8  1  0  0  0
  7 11  1  0  0  0
 11 12  1  0  0  0
 11 13  2  0  0  0
  2 15  1  0  0  0
 15 16  1  0  0  0
 15 17  2  0  0  0
  6  2  1  0  0  0
 28 21  1  0  0  0
  7  3  1  0  0  0
  1  9  1  0  0  0
  1 10  1  0  0  0
 12 14  1  0  0  0
 16 18  1  0  0  0
M  END
> <minimizedAffinity>
15.67148

> <CNNscore>
0.5475296378

> <CNNaffinity>
5.5415096283

> <CNN_VS>
3.0341408253

> <CNNaffinity_variance>
0.1430406570

$$$$
[H]OC(=O)[C@@]1(F)[C@]2([H])C([H])([H])[C@@]([H])(OC([H])([H])c3c([H])c([H])c(Cl)c(Cl)c3[H])[C@](C(=O)O[H])(N([H])[H])[C@]12[H]


 28 30  0  0  0  0  0  0  0  0999 V2000
   20.1322    7.9167   51.4605 N   0  0  0  0  0  0  0  0  0  0  0  0
   20.9192    7.8320   52.6764 C   0  0  0  0  0  0  0  0  0  0  0  0
   21.2529    9.2488   53.0872 C   0  0  0  0  0  0  0  0  0  0  0  0
   22.6514    9.5221   52.6469 C   0  0  0  0  0  0  0  0  0  0  0  0
   23.0628    8.2914   51.8669 C   0  0  0  0  0  0  0  0  0  0  0  0
   22.2362    7.1522   52.3851 C   0  0  0  0  0  0  0  0  0  0  0  0
   21.4757   10.3077   52.1028 C   0  0  0  0  0  0  0  0  0  0  0  0
   21.2375   10.0810   50.7594 F   0  0  0  0  0  0  0  0  0  0  0  0
   19.3146    8.5495   51.6171 H   0  0  0  0  0  0  0  0  0  0  0  0
   19.7031    6.9773   51.2217 H   0  0  0  0  0  0  0  0  0  0  0  0
   21.4237   11.7044   52.5547 C   0  0  0  0  0  0  0  0  0  0  0  0
   21.5872   12.7657   51.6745 O   0  0  0  0  0  0  0  0  0  0  0  0
   21.2275   11.9829   53.7651 O   0  0  0  0  0  0  0  0  0  0  0  0
   22.2906   13.4845   51.7986 H   0  0  0  0  0  0  0  0  0  0  0  0
   20.1531    7.1821   53.7328 C   0  0  0  0  0  0  0  0  0  0  0  0
   19.6270    5.9233   53.5424 O   0  0  0  0  0  0  0  0  0  0  0  0
   19.9727    7.7733   54.8211 O   0  0  0  0  0  0  0  0  0  0  0  0
   18.9693    5.5114   54.2043 H   0  0  0  0  0  0  0  0  0  0  0  0
   22.7564    6.4401   53.3895 O   0  0  0  0  0  0  0  0  0  0  0  0
   24.0541    6.1041   53.4400 C   0  0  0  0  0  0  0  0  0  0  0  0
   24.8190    7.1314   54.2007 C   0  0  0  0  0  0  0  0  0  0  0  0
   24.2252    8.0126   55.0718 C   0  0  0  0  0  0  0  0  0  0  0  0
   24.9675    8.9431   55.7522 C   0  0  0  0  0  0  0  0  0  0  0  0
   26.3314    9.0153   55.5764 C   0  0  0  0  0  0  0  0  0  0  0  0
   27.2729   10.2229   56.4633 Cl  0  0  0  0  0  0  0  0  0  0  0  0
   26.9404    8.1421   54.7098 C   0  0  0  0  0  0  0  0  0  0  0  0
   28.6738    8.2688   54.5169 Cl  0  0  0  0  0  0  0  0  0  0  0  0
   26.1839    7.2131   54.0331 C   0  0  0  0  0  0  0  0  0  0  0  0
  1  2  1  0  0  0
  2  3  1  0  0  0
  3  4  1  0  0  0
  4  5  1  0  0  0
  5  6  1  0  0  0
  6 19  1  0  0  0
 19 20  1  0  0  0
 20 21  1  0  0  0
 21 22  2  0  0  0
 22 23  1  0  0  0
 23 24  2  0  0  0
 24 25  1  0  0  0
 24 26  1  0  0  0
 26 27  1  0  0  0
 26 28  2  0  0  0
  4  7  1  0  0  0
  7  8  1  0  0  0
  7 11  1  0  0  0
 11 12  1  0  0  0
 11 13  2  0  0  0
  2 15  1  0  0  0
 15 16  1  0  0  0
 15 17  2  0  0  0
  6  2  1  0  0  0
 28 21  1  0  0  0
  7  3  1  0  0  0
  1  9  1  0  0  0
  1 10  1  0  0  0
 12 14  1  0  0  0
 16 18  1  0  0  0
M  END
> <minimizedAffinity>
8.33575

> <CNNscore>
0.5218768120

> <CNNaffinity>
5.8351893425

> <CNN_VS>
3.0452499390

> <CNNaffinity_variance>
0.2129508704

$$$$
