[H]c1nc(C([H])([H])[H])c([H])c(-c2nc(-c3c([H])c([H])c(OC(F)(F)F)c(C([H])([H])[H])c3[H])n3c2C([H])([H])C([H])([H])O[C@]([H])(C([H])([H])[H])C3([H])[H])c1[H]


 30 33  0  0  0  0  0  0  0  0999 V2000
   21.7409    4.4263   53.7935 C   0  0  0  0  0  0  0  0  0  0  0  0
   21.4744    5.7504   54.4690 C   0  0  0  0  0  0  0  0  0  0  0  0
   21.6857    6.8215   53.4006 C   0  0  0  0  0  0  0  0  0  0  0  0
   22.9147    7.5492   53.5483 N   0  0  0  0  0  0  0  0  0  0  0  0
   24.0358    7.1537   54.2238 C   0  0  0  0  0  0  0  0  0  0  0  0
   24.4102    5.9332   54.9594 C   0  0  0  0  0  0  0  0  0  0  0  0
   23.3150    5.2495   55.6969 C   0  0  0  0  0  0  0  0  0  0  0  0
   22.1659    5.9851   55.6134 O   0  0  0  0  0  0  0  0  0  0  0  0
   24.9659    8.1799   54.1409 C   0  0  0  0  0  0  0  0  0  0  0  0
   24.3733    9.1331   53.4298 N   0  0  0  0  0  0  0  0  0  0  0  0
   23.1117    8.7637   53.0545 C   0  0  0  0  0  0  0  0  0  0  0  0
   22.2838    9.6830   52.2887 C   0  0  0  0  0  0  0  0  0  0  0  0
   21.3458    9.1650   51.3788 C   0  0  0  0  0  0  0  0  0  0  0  0
   20.4856    9.9052   50.6392 C   0  0  0  0  0  0  0  0  0  0  0  0
   20.5145   11.2745   50.7726 C   0  0  0  0  0  0  0  0  0  0  0  0
   21.4123   11.8292   51.6483 C   0  0  0  0  0  0  0  0  0  0  0  0
   21.4532   13.3324   51.7915 C   0  0  0  0  0  0  0  0  0  0  0  0
   22.2817   11.0441   52.3942 C   0  0  0  0  0  0  0  0  0  0  0  0
   19.6192   12.0207   49.9996 O   0  0  0  0  0  0  0  0  0  0  0  0
   20.0452   12.9583   49.0634 C   0  0  0  0  0  0  0  0  0  0  0  0
   21.4067   12.7918   48.8356 F   0  0  0  0  0  0  0  0  0  0  0  0
   19.4341   12.8013   47.8304 F   0  0  0  0  0  0  0  0  0  0  0  0
   19.7924   14.2475   49.4630 F   0  0  0  0  0  0  0  0  0  0  0  0
   26.3197    8.2894   54.6784 C   0  0  0  0  0  0  0  0  0  0  0  0
   27.4181    7.8265   54.0133 C   0  0  0  0  0  0  0  0  0  0  0  0
   28.6653    7.9633   54.5800 C   0  0  0  0  0  0  0  0  0  0  0  0
   28.8217    8.5456   55.7792 N   0  0  0  0  0  0  0  0  0  0  0  0
   27.7878    9.0221   56.4868 C   0  0  0  0  0  0  0  0  0  0  0  0
   27.9937    9.6665   57.8215 C   0  0  0  0  0  0  0  0  0  0  0  0
   26.5408    8.8877   55.9248 C   0  0  0  0  0  0  0  0  0  0  0  0
  1  2  1  0  0  0
  2  3  1  0  0  0
  3  4  1  0  0  0
  4  5  1  0  0  0
  5  6  1  0  0  0
  6  7  1  0  0  0
  7  8  1  0  0  0
  5  9  2  0  0  0
  9 10  1  0  0  0
 10 11  2  0  0  0
 11 12  1  0  0  0
 12 13  2  0  0  0
 13 14  1  0  0  0
 14 15  2  0  0  0
 15 19  1  0  0  0
 19 20  1  0  0  0
 20 21  1  0  0  0
 20 22  1  0  0  0
 20 23  1  0  0  0
 15 16  1  0  0  0
 16 17  1  0  0  0
 16 18  2  0  0  0
  9 24  1  0  0  0
 24 25  2  0  0  0
 25 26  1  0  0  0
 26 27  2  0  0  0
 27 28  1  0  0  0
 28 29  1  0  0  0
 28 30  2  0  0  0
  8  2  1  0  0  0
 18 12  1  0  0  0
 30 24  1  0  0  0
 11  4  1  0  0  0
M  END
> <minimizedAffinity>
41.90567

> <CNNscore>
0.4652739167

> <CNNaffinity>
6.0429048538

> <CNN_VS>
2.8116059303

> <CNNaffinity_variance>
0.3700454831

$$$$
[H]c1nc(C([H])([H])[H])c([H])c(-c2nc(-c3c([H])c([H])c(OC(F)(F)F)c(C([H])([H])[H])c3[H])n3c2C([H])([H])C([H])([H])O[C@]([H])(C([H])([H])[H])C3([H])[H])c1[H]


 30 33  0  0  0  0  0  0  0  0999 V2000
   20.4457   10.9985   56.0519 C   0  0  0  0  0  0  0  0  0  0  0  0
   20.4996   10.4545   54.6442 C   0  0  0  0  0  0  0  0  0  0  0  0
   20.4076    8.9352   54.7730 C   0  0  0  0  0  0  0  0  0  0  0  0
   21.6573    8.2612   54.5587 N   0  0  0  0  0  0  0  0  0  0  0  0
   22.9132    8.7918   54.6620 C   0  0  0  0  0  0  0  0  0  0  0  0
   23.4367   10.1174   55.0357 C   0  0  0  0  0  0  0  0  0  0  0  0
   22.6102   11.2864   54.6341 C   0  0  0  0  0  0  0  0  0  0  0  0
   21.5455   10.8700   53.8848 O   0  0  0  0  0  0  0  0  0  0  0  0
   23.8229    7.7976   54.3318 C   0  0  0  0  0  0  0  0  0  0  0  0
   23.0861    6.7286   54.0490 N   0  0  0  0  0  0  0  0  0  0  0  0
   21.7516    6.9929   54.1843 C   0  0  0  0  0  0  0  0  0  0  0  0
   20.7732    5.9561   53.8935 C   0  0  0  0  0  0  0  0  0  0  0  0
   19.4068    6.2861   53.8853 C   0  0  0  0  0  0  0  0  0  0  0  0
   18.3995    5.4308   53.5874 C   0  0  0  0  0  0  0  0  0  0  0  0
   18.7153    4.1309   53.2644 C   0  0  0  0  0  0  0  0  0  0  0  0
   20.0353    3.7589   53.2581 C   0  0  0  0  0  0  0  0  0  0  0  0
   20.3857    2.3308   52.9125 C   0  0  0  0  0  0  0  0  0  0  0  0
   21.0466    4.6590   53.5672 C   0  0  0  0  0  0  0  0  0  0  0  0
   17.6611    3.2634   52.9611 O   0  0  0  0  0  0  0  0  0  0  0  0
   16.4460    3.3021   53.6386 C   0  0  0  0  0  0  0  0  0  0  0  0
   16.6796    3.5701   54.9827 F   0  0  0  0  0  0  0  0  0  0  0  0
   15.6139    4.3146   53.1906 F   0  0  0  0  0  0  0  0  0  0  0  0
   15.7396    2.1313   53.5113 F   0  0  0  0  0  0  0  0  0  0  0  0
   25.2824    7.8169   54.2757 C   0  0  0  0  0  0  0  0  0  0  0  0
   25.9932    7.1604   53.3130 C   0  0  0  0  0  0  0  0  0  0  0  0
   27.3685    7.2218   53.3210 C   0  0  0  0  0  0  0  0  0  0  0  0
   28.0259    7.9181   54.2615 N   0  0  0  0  0  0  0  0  0  0  0  0
   27.3919    8.5859   55.2355 C   0  0  0  0  0  0  0  0  0  0  0  0
   28.1524    9.3536   56.2706 C   0  0  0  0  0  0  0  0  0  0  0  0
   26.0187    8.5272   55.2315 C   0  0  0  0  0  0  0  0  0  0  0  0
  1  2  1  0  0  0
  2  3  1  0  0  0
  3  4  1  0  0  0
  4  5  1  0  0  0
  5  6  1  0  0  0
  6  7  1  0  0  0
  7  8  1  0  0  0
  5  9  2  0  0  0
  9 10  1  0  0  0
 10 11  2  0  0  0
 11 12  1  0  0  0
 12 13  2  0  0  0
 13 14  1  0  0  0
 14 15  2  0  0  0
 15 19  1  0  0  0
 19 20  1  0  0  0
 20 21  1  0  0  0
 20 22  1  0  0  0
 20 23  1  0  0  0
 15 16  1  0  0  0
 16 17  1  0  0  0
 16 18  2  0  0  0
  9 24  1  0  0  0
 24 25  2  0  0  0
 25 26  1  0  0  0
 26 27  2  0  0  0
 27 28  1  0  0  0
 28 29  1  0  0  0
 28 30  2  0  0  0
  8  2  1  0  0  0
 18 12  1  0  0  0
 30 24  1  0  0  0
 11  4  1  0  0  0
M  END
> <minimizedAffinity>
32.46879

> <CNNscore>
0.4636001885

> <CNNaffinity>
6.1270699501

> <CNN_VS>
2.8405108452

> <CNNaffinity_variance>
0.4791670442

$$$$
[H]c1nc(C([H])([H])[H])c([H])c(-c2nc(-c3c([H])c([H])c(OC(F)(F)F)c(C([H])([H])[H])c3[H])n3c2C([H])([H])C([H])([H])O[C@]([H])(C([H])([H])[H])C3([H])[H])c1[H]


 30 33  0  0  0  0  0  0  0  0999 V2000
   21.4898   10.6955   50.8488 C   0  0  0  0  0  0  0  0  0  0  0  0
   21.5044   10.5671   52.3534 C   0  0  0  0  0  0  0  0  0  0  0  0
   22.8213    9.8786   52.7074 C   0  0  0  0  0  0  0  0  0  0  0  0
   22.6698    8.5003   53.0802 N   0  0  0  0  0  0  0  0  0  0  0  0
   21.6274    7.6693   52.7759 C   0  0  0  0  0  0  0  0  0  0  0  0
   20.3902    7.8247   51.9910 C   0  0  0  0  0  0  0  0  0  0  0  0
   19.7491    9.1656   52.0351 C   0  0  0  0  0  0  0  0  0  0  0  0
   20.4179    9.9742   52.9111 O   0  0  0  0  0  0  0  0  0  0  0  0
   21.8764    6.4404   53.3696 C   0  0  0  0  0  0  0  0  0  0  0  0
   23.0400    6.5830   53.9952 N   0  0  0  0  0  0  0  0  0  0  0  0
   23.5449    7.8423   53.8278 C   0  0  0  0  0  0  0  0  0  0  0  0
   24.8034    8.2096   54.4588 C   0  0  0  0  0  0  0  0  0  0  0  0
   24.7810    8.9622   55.6459 C   0  0  0  0  0  0  0  0  0  0  0  0
   25.8737    9.3311   56.3564 C   0  0  0  0  0  0  0  0  0  0  0  0
   27.1143    8.9502   55.8988 C   0  0  0  0  0  0  0  0  0  0  0  0
   27.1898    8.2140   54.7442 C   0  0  0  0  0  0  0  0  0  0  0  0
   28.5502    7.8011   54.2338 C   0  0  0  0  0  0  0  0  0  0  0  0
   26.0511    7.8498   54.0375 C   0  0  0  0  0  0  0  0  0  0  0  0
   28.2298    9.3418   56.6460 O   0  0  0  0  0  0  0  0  0  0  0  0
   28.2486    9.2949   58.0368 C   0  0  0  0  0  0  0  0  0  0  0  0
   26.9885    8.9330   58.4998 F   0  0  0  0  0  0  0  0  0  0  0  0
   29.1210    8.3387   58.5297 F   0  0  0  0  0  0  0  0  0  0  0  0
   28.6255   10.4918   58.5948 F   0  0  0  0  0  0  0  0  0  0  0  0
   21.1000    5.2031   53.3694 C   0  0  0  0  0  0  0  0  0  0  0  0
   21.6327    3.9970   53.0165 C   0  0  0  0  0  0  0  0  0  0  0  0
   20.8418    2.8703   53.0392 C   0  0  0  0  0  0  0  0  0  0  0  0
   19.5515    2.9363   53.4033 N   0  0  0  0  0  0  0  0  0  0  0  0
   18.9641    4.0866   53.7615 C   0  0  0  0  0  0  0  0  0  0  0  0
   17.5231    4.1286   54.1627 C   0  0  0  0  0  0  0  0  0  0  0  0
   19.7500    5.2139   53.7403 C   0  0  0  0  0  0  0  0  0  0  0  0
  1  2  1  0  0  0
  2  3  1  0  0  0
  3  4  1  0  0  0
  4  5  1  0  0  0
  5  6  1  0  0  0
  6  7  1  0  0  0
  7  8  1  0  0  0
  5  9  2  0  0  0
  9 10  1  0  0  0
 10 11  2  0  0  0
 11 12  1  0  0  0
 12 13  2  0  0  0
 13 14  1  0  0  0
 14 15  2  0  0  0
 15 19  1  0  0  0
 19 20  1  0  0  0
 20 21  1  0  0  0
 20 22  1  0  0  0
 20 23  1  0  0  0
 15 16  1  0  0  0
 16 17  1  0  0  0
 16 18  2  0  0  0
  9 24  1  0  0  0
 24 25  2  0  0  0
 25 26  1  0  0  0
 26 27  2  0  0  0
 27 28  1  0  0  0
 28 29  1  0  0  0
 28 30  2  0  0  0
  8  2  1  0  0  0
 18 12  1  0  0  0
 30 24  1  0  0  0
 11  4  1  0  0  0
M  END
> <minimizedAffinity>
27.95895

> <CNNscore>
0.4299390614

> <CNNaffinity>
6.3345646858

> <CNN_VS>
2.7234768867

> <CNNaffinity_variance>
0.7456040382

$$$$
[H]c1nc(C([H])([H])[H])c([H])c(-c2nc(-c3c([H])c([H])c(OC(F)(F)F)c(C([H])([H])[H])c3[H])n3c2C([H])([H])C([H])([H])O[C@]([H])(C([H])([H])[H])C3([H])[H])c1[H]


 30 33  0  0  0  0  0  0  0  0999 V2000
   25.8290    6.6597   53.7697 C   0  0  0  0  0  0  0  0  0  0  0  0
   24.6617    6.8671   54.7051 C   0  0  0  0  0  0  0  0  0  0  0  0
   23.4296    6.3461   53.9676 C   0  0  0  0  0  0  0  0  0  0  0  0
   22.5780    7.3852   53.4609 N   0  0  0  0  0  0  0  0  0  0  0  0
   22.9184    8.6848   53.2060 C   0  0  0  0  0  0  0  0  0  0  0  0
   24.1733    9.4511   53.2990 C   0  0  0  0  0  0  0  0  0  0  0  0
   25.0920    9.0743   54.4058 C   0  0  0  0  0  0  0  0  0  0  0  0
   24.5069    8.1237   55.1948 O   0  0  0  0  0  0  0  0  0  0  0  0
   21.7795    9.3438   52.7662 C   0  0  0  0  0  0  0  0  0  0  0  0
   20.8184    8.4263   52.7751 N   0  0  0  0  0  0  0  0  0  0  0  0
   21.2899    7.2146   53.1977 C   0  0  0  0  0  0  0  0  0  0  0  0
   20.3848    6.0804   53.3038 C   0  0  0  0  0  0  0  0  0  0  0  0
   19.0095    6.3149   53.4762 C   0  0  0  0  0  0  0  0  0  0  0  0
   18.0569    5.3542   53.5440 C   0  0  0  0  0  0  0  0  0  0  0  0
   18.4430    4.0375   53.4385 C   0  0  0  0  0  0  0  0  0  0  0  0
   19.7744    3.7562   53.2690 C   0  0  0  0  0  0  0  0  0  0  0  0
   20.2035    2.3118   53.1613 C   0  0  0  0  0  0  0  0  0  0  0  0
   20.7285    4.7632   53.2022 C   0  0  0  0  0  0  0  0  0  0  0  0
   17.4447    3.0609   53.5120 O   0  0  0  0  0  0  0  0  0  0  0  0
   16.2430    3.2729   54.1813 C   0  0  0  0  0  0  0  0  0  0  0  0
   15.5042    2.0951   54.1799 F   0  0  0  0  0  0  0  0  0  0  0  0
   16.4223    3.6045   55.5141 F   0  0  0  0  0  0  0  0  0  0  0  0
   15.5057    4.2877   53.6223 F   0  0  0  0  0  0  0  0  0  0  0  0
   21.5744   10.7318   52.3598 C   0  0  0  0  0  0  0  0  0  0  0  0
   21.9476   11.2057   51.1354 C   0  0  0  0  0  0  0  0  0  0  0  0
   21.7236   12.5268   50.8193 C   0  0  0  0  0  0  0  0  0  0  0  0
   21.1427   13.3606   51.6962 N   0  0  0  0  0  0  0  0  0  0  0  0
   20.7515   12.9628   52.9149 C   0  0  0  0  0  0  0  0  0  0  0  0
   20.1064   13.9159   53.8712 C   0  0  0  0  0  0  0  0  0  0  0  0
   20.9733   11.6446   53.2349 C   0  0  0  0  0  0  0  0  0  0  0  0
  1  2  1  0  0  0
  2  3  1  0  0  0
  3  4  1  0  0  0
  4  5  1  0  0  0
  5  6  1  0  0  0
  6  7  1  0  0  0
  7  8  1  0  0  0
  5  9  2  0  0  0
  9 10  1  0  0  0
 10 11  2  0  0  0
 11 12  1  0  0  0
 12 13  2  0  0  0
 13 14  1  0  0  0
 14 15  2  0  0  0
 15 19  1  0  0  0
 19 20  1  0  0  0
 20 21  1  0  0  0
 20 22  1  0  0  0
 20 23  1  0  0  0
 15 16  1  0  0  0
 16 17  1  0  0  0
 16 18  2  0  0  0
  9 24  1  0  0  0
 24 25  2  0  0  0
 25 26  1  0  0  0
 26 27  2  0  0  0
 27 28  1  0  0  0
 28 29  1  0  0  0
 28 30  2  0  0  0
  8  2  1  0  0  0
 18 12  1  0  0  0
 30 24  1  0  0  0
 11  4  1  0  0  0
M  END
> <minimizedAffinity>
39.13960

> <CNNscore>
0.4258473814

> <CNNaffinity>
6.0436201096

> <CNN_VS>
2.5736598969

> <CNNaffinity_variance>
0.5445626974

$$$$
[H]c1nc(C([H])([H])[H])c([H])c(-c2nc(-c3c([H])c([H])c(OC(F)(F)F)c(C([H])([H])[H])c3[H])n3c2C([H])([H])C([H])([H])O[C@]([H])(C([H])([H])[H])C3([H])[H])c1[H]


 30 33  0  0  0  0  0  0  0  0999 V2000
   28.8439    8.2972   56.6695 C   0  0  0  0  0  0  0  0  0  0  0  0
   27.7064    9.2118   56.2818 C   0  0  0  0  0  0  0  0  0  0  0  0
   26.6923    8.3385   55.5456 C   0  0  0  0  0  0  0  0  0  0  0  0
   26.6875    8.5340   54.1231 N   0  0  0  0  0  0  0  0  0  0  0  0
   27.6911    9.0562   53.3551 C   0  0  0  0  0  0  0  0  0  0  0  0
   29.0534    9.5389   53.6414 C   0  0  0  0  0  0  0  0  0  0  0  0
   29.2490   10.2120   54.9527 C   0  0  0  0  0  0  0  0  0  0  0  0
   28.0504   10.3333   55.5986 O   0  0  0  0  0  0  0  0  0  0  0  0
   27.2441    9.0971   52.0423 C   0  0  0  0  0  0  0  0  0  0  0  0
   26.0103    8.6050   52.0770 N   0  0  0  0  0  0  0  0  0  0  0  0
   25.6501    8.2513   53.3474 C   0  0  0  0  0  0  0  0  0  0  0  0
   24.3221    7.7145   53.6026 C   0  0  0  0  0  0  0  0  0  0  0  0
   24.1241    6.3236   53.5542 C   0  0  0  0  0  0  0  0  0  0  0  0
   22.9541    5.6927   53.8145 C   0  0  0  0  0  0  0  0  0  0  0  0
   21.8591    6.4535   54.1553 C   0  0  0  0  0  0  0  0  0  0  0  0
   22.0007    7.8161   54.2165 C   0  0  0  0  0  0  0  0  0  0  0  0
   20.7991    8.6555   54.5817 C   0  0  0  0  0  0  0  0  0  0  0  0
   23.2141    8.4348   53.9449 C   0  0  0  0  0  0  0  0  0  0  0  0
   20.6603    5.7833   54.4192 O   0  0  0  0  0  0  0  0  0  0  0  0
   19.8312    5.3124   53.4053 C   0  0  0  0  0  0  0  0  0  0  0  0
   19.9135    6.1677   52.3123 F   0  0  0  0  0  0  0  0  0  0  0  0
   20.2104    4.0649   52.9381 F   0  0  0  0  0  0  0  0  0  0  0  0
   18.5243    5.1966   53.8109 F   0  0  0  0  0  0  0  0  0  0  0  0
   27.9013    9.5582   50.8220 C   0  0  0  0  0  0  0  0  0  0  0  0
   28.2722   10.8575   50.6287 C   0  0  0  0  0  0  0  0  0  0  0  0
   28.8882   11.2221   49.4528 C   0  0  0  0  0  0  0  0  0  0  0  0
   29.1319   10.3201   48.4891 N   0  0  0  0  0  0  0  0  0  0  0  0
   28.7948    9.0286   48.6121 C   0  0  0  0  0  0  0  0  0  0  0  0
   29.0795    8.0461   47.5200 C   0  0  0  0  0  0  0  0  0  0  0  0
   28.1795    8.6601   49.7845 C   0  0  0  0  0  0  0  0  0  0  0  0
  1  2  1  0  0  0
  2  3  1  0  0  0
  3  4  1  0  0  0
  4  5  1  0  0  0
  5  6  1  0  0  0
  6  7  1  0  0  0
  7  8  1  0  0  0
  5  9  2  0  0  0
  9 10  1  0  0  0
 10 11  2  0  0  0
 11 12  1  0  0  0
 12 13  2  0  0  0
 13 14  1  0  0  0
 14 15  2  0  0  0
 15 19  1  0  0  0
 19 20  1  0  0  0
 20 21  1  0  0  0
 20 22  1  0  0  0
 20 23  1  0  0  0
 15 16  1  0  0  0
 16 17  1  0  0  0
 16 18  2  0  0  0
  9 24  1  0  0  0
 24 25  2  0  0  0
 25 26  1  0  0  0
 26 27  2  0  0  0
 27 28  1  0  0  0
 28 29  1  0  0  0
 28 30  2  0  0  0
  8  2  1  0  0  0
 18 12  1  0  0  0
 30 24  1  0  0  0
 11  4  1  0  0  0
M  END
> <minimizedAffinity>
30.52754

> <CNNscore>
0.3964046240

> <CNNaffinity>
5.7526102066

> <CNN_VS>
2.2803611755

> <CNNaffinity_variance>
0.0651816279

$$$$
[H]c1nc(C([H])([H])[H])c([H])c(-c2nc(-c3c([H])c([H])c(OC(F)(F)F)c(C([H])([H])[H])c3[H])n3c2C([H])([H])C([H])([H])O[C@]([H])(C([H])([H])[H])C3([H])[H])c1[H]


 30 33  0  0  0  0  0  0  0  0999 V2000
   20.9454    5.8956   53.4468 C   0  0  0  0  0  0  0  0  0  0  0  0
   22.1190    6.5436   52.7516 C   0  0  0  0  0  0  0  0  0  0  0  0
   22.9374    7.2246   53.8469 C   0  0  0  0  0  0  0  0  0  0  0  0
   22.7911    8.6528   53.8730 N   0  0  0  0  0  0  0  0  0  0  0  0
   21.7638    9.3902   53.3529 C   0  0  0  0  0  0  0  0  0  0  0  0
   20.5056    9.0502   52.6656 C   0  0  0  0  0  0  0  0  0  0  0  0
   20.5431    7.8555   51.7811 C   0  0  0  0  0  0  0  0  0  0  0  0
   21.8170    7.3646   51.7134 O   0  0  0  0  0  0  0  0  0  0  0  0
   22.0507   10.7302   53.5691 C   0  0  0  0  0  0  0  0  0  0  0  0
   23.2198   10.7407   54.2004 N   0  0  0  0  0  0  0  0  0  0  0  0
   23.6909    9.4727   54.3982 C   0  0  0  0  0  0  0  0  0  0  0  0
   24.9749    9.2691   55.0516 C   0  0  0  0  0  0  0  0  0  0  0  0
   25.1074    9.5831   56.4153 C   0  0  0  0  0  0  0  0  0  0  0  0
   26.2289    9.4002   57.1525 C   0  0  0  0  0  0  0  0  0  0  0  0
   27.3389    8.8663   56.5387 C   0  0  0  0  0  0  0  0  0  0  0  0
   27.2605    8.5428   55.2083 C   0  0  0  0  0  0  0  0  0  0  0  0
   28.4791    7.9644   54.5285 C   0  0  0  0  0  0  0  0  0  0  0  0
   26.0957    8.7410   54.4784 C   0  0  0  0  0  0  0  0  0  0  0  0
   28.4870    8.6864   57.3167 O   0  0  0  0  0  0  0  0  0  0  0  0
   28.5542    9.0843   58.6487 C   0  0  0  0  0  0  0  0  0  0  0  0
   29.3777    8.2086   59.3472 F   0  0  0  0  0  0  0  0  0  0  0  0
   29.1181   10.3395   58.8059 F   0  0  0  0  0  0  0  0  0  0  0  0
   27.3166    9.1354   59.2416 F   0  0  0  0  0  0  0  0  0  0  0  0
   21.3039   11.9365   53.2211 C   0  0  0  0  0  0  0  0  0  0  0  0
   20.4460   12.5497   54.0878 C   0  0  0  0  0  0  0  0  0  0  0  0
   19.7744   13.6846   53.6925 C   0  0  0  0  0  0  0  0  0  0  0  0
   19.9484   14.2013   52.4660 N   0  0  0  0  0  0  0  0  0  0  0  0
   20.7745   13.6512   51.5652 C   0  0  0  0  0  0  0  0  0  0  0  0
   20.9476   14.2504   50.2051 C   0  0  0  0  0  0  0  0  0  0  0  0
   21.4470   12.5179   51.9555 C   0  0  0  0  0  0  0  0  0  0  0  0
  1  2  1  0  0  0
  2  3  1  0  0  0
  3  4  1  0  0  0
  4  5  1  0  0  0
  5  6  1  0  0  0
  6  7  1  0  0  0
  7  8  1  0  0  0
  5  9  2  0  0  0
  9 10  1  0  0  0
 10 11  2  0  0  0
 11 12  1  0  0  0
 12 13  2  0  0  0
 13 14  1  0  0  0
 14 15  2  0  0  0
 15 19  1  0  0  0
 19 20  1  0  0  0
 20 21  1  0  0  0
 20 22  1  0  0  0
 20 23  1  0  0  0
 15 16  1  0  0  0
 16 17  1  0  0  0
 16 18  2  0  0  0
  9 24  1  0  0  0
 24 25  2  0  0  0
 25 26  1  0  0  0
 26 27  2  0  0  0
 27 28  1  0  0  0
 28 29  1  0  0  0
 28 30  2  0  0  0
  8  2  1  0  0  0
 18 12  1  0  0  0
 30 24  1  0  0  0
 11  4  1  0  0  0
M  END
> <minimizedAffinity>
32.73437

> <CNNscore>
0.3800155520

> <CNNaffinity>
5.7526082993

> <CNN_VS>
2.1860806942

> <CNNaffinity_variance>
0.1381941289

$$$$
[H]c1nc(C([H])([H])[H])c([H])c(-c2nc(-c3c([H])c([H])c(OC(F)(F)F)c(C([H])([H])[H])c3[H])n3c2C([H])([H])C([H])([H])O[C@]([H])(C([H])([H])[H])C3([H])[H])c1[H]


 30 33  0  0  0  0  0  0  0  0999 V2000
   21.5047   10.7305   50.7165 C   0  0  0  0  0  0  0  0  0  0  0  0
   21.5241   10.6508   52.2245 C   0  0  0  0  0  0  0  0  0  0  0  0
   22.8058    9.9060   52.5932 C   0  0  0  0  0  0  0  0  0  0  0  0
   22.5853    8.5505   53.0122 N   0  0  0  0  0  0  0  0  0  0  0  0
   21.4985    7.7660   52.7418 C   0  0  0  0  0  0  0  0  0  0  0  0
   20.2652    7.9604   51.9595 C   0  0  0  0  0  0  0  0  0  0  0  0
   19.6955    9.3339   51.9631 C   0  0  0  0  0  0  0  0  0  0  0  0
   20.4124   10.1344   52.8079 O   0  0  0  0  0  0  0  0  0  0  0  0
   21.6875    6.5457   53.3744 C   0  0  0  0  0  0  0  0  0  0  0  0
   22.8616    6.6474   53.9880 N   0  0  0  0  0  0  0  0  0  0  0  0
   23.4305    7.8723   53.7760 C   0  0  0  0  0  0  0  0  0  0  0  0
   24.7113    8.1933   54.3871 C   0  0  0  0  0  0  0  0  0  0  0  0
   24.7362    8.9686   55.5594 C   0  0  0  0  0  0  0  0  0  0  0  0
   25.8523    9.3004   56.2515 C   0  0  0  0  0  0  0  0  0  0  0  0
   27.0692    8.8544   55.7890 C   0  0  0  0  0  0  0  0  0  0  0  0
   27.0983    8.0937   54.6483 C   0  0  0  0  0  0  0  0  0  0  0  0
   28.4328    7.6091   54.1323 C   0  0  0  0  0  0  0  0  0  0  0  0
   25.9366    7.7687   53.9603 C   0  0  0  0  0  0  0  0  0  0  0  0
   28.2095    9.2085   56.5172 O   0  0  0  0  0  0  0  0  0  0  0  0
   28.1371    9.8701   57.7395 C   0  0  0  0  0  0  0  0  0  0  0  0
   29.3790   10.4203   58.0365 F   0  0  0  0  0  0  0  0  0  0  0  0
   27.2479   10.9319   57.7231 F   0  0  0  0  0  0  0  0  0  0  0  0
   27.7370    9.0416   58.7589 F   0  0  0  0  0  0  0  0  0  0  0  0
   20.8473    5.3516   53.4196 C   0  0  0  0  0  0  0  0  0  0  0  0
   19.5450    5.3799   53.8273 C   0  0  0  0  0  0  0  0  0  0  0  0
   18.8114    4.2151   53.8448 C   0  0  0  0  0  0  0  0  0  0  0  0
   19.3553    3.0475   53.4670 N   0  0  0  0  0  0  0  0  0  0  0  0
   20.6270    2.9471   53.0558 C   0  0  0  0  0  0  0  0  0  0  0  0
   21.2055    1.6310   52.6406 C   0  0  0  0  0  0  0  0  0  0  0  0
   21.3632    4.1076   53.0367 C   0  0  0  0  0  0  0  0  0  0  0  0
  1  2  1  0  0  0
  2  3  1  0  0  0
  3  4  1  0  0  0
  4  5  1  0  0  0
  5  6  1  0  0  0
  6  7  1  0  0  0
  7  8  1  0  0  0
  5  9  2  0  0  0
  9 10  1  0  0  0
 10 11  2  0  0  0
 11 12  1  0  0  0
 12 13  2  0  0  0
 13 14  1  0  0  0
 14 15  2  0  0  0
 15 19  1  0  0  0
 19 20  1  0  0  0
 20 21  1  0  0  0
 20 22  1  0  0  0
 20 23  1  0  0  0
 15 16  1  0  0  0
 16 17  1  0  0  0
 16 18  2  0  0  0
  9 24  1  0  0  0
 24 25  2  0  0  0
 25 26  1  0  0  0
 26 27  2  0  0  0
 27 28  1  0  0  0
 28 29  1  0  0  0
 28 30  2  0  0  0
  8  2  1  0  0  0
 18 12  1  0  0  0
 30 24  1  0  0  0
 11  4  1  0  0  0
M  END
> <minimizedAffinity>
32.95173

> <CNNscore>
0.3601874411

> <CNNaffinity>
6.1493921280

> <CNN_VS>
2.2149338722

> <CNNaffinity_variance>
0.6424306631

$$$$
[H]c1nc(C([H])([H])[H])c([H])c(-c2nc(-c3c([H])c([H])c(OC(F)(F)F)c(C([H])([H])[H])c3[H])n3c2C([H])([H])C([H])([H])O[C@]([H])(C([H])([H])[H])C3([H])[H])c1[H]


 30 33  0  0  0  0  0  0  0  0999 V2000
   20.6591    9.6701   49.7920 C   0  0  0  0  0  0  0  0  0  0  0  0
   20.6434    9.8335   51.2932 C   0  0  0  0  0  0  0  0  0  0  0  0
   21.8986    9.1324   51.8091 C   0  0  0  0  0  0  0  0  0  0  0  0
   21.6368    7.8665   52.4342 N   0  0  0  0  0  0  0  0  0  0  0  0
   20.5379    7.0704   52.2653 C   0  0  0  0  0  0  0  0  0  0  0  0
   19.3271    7.1611   51.4308 C   0  0  0  0  0  0  0  0  0  0  0  0
   18.7902    8.5283   51.1996 C   0  0  0  0  0  0  0  0  0  0  0  0
   19.5071    9.4398   51.9232 O   0  0  0  0  0  0  0  0  0  0  0  0
   20.6839    5.9642   53.0899 C   0  0  0  0  0  0  0  0  0  0  0  0
   21.8464    6.1399   53.7090 N   0  0  0  0  0  0  0  0  0  0  0  0
   22.4487    7.3032   53.3181 C   0  0  0  0  0  0  0  0  0  0  0  0
   23.7230    7.6928   53.9023 C   0  0  0  0  0  0  0  0  0  0  0  0
   24.6482    8.4028   53.1176 C   0  0  0  0  0  0  0  0  0  0  0  0
   25.8469    8.8627   53.5496 C   0  0  0  0  0  0  0  0  0  0  0  0
   26.2085    8.6277   54.8565 C   0  0  0  0  0  0  0  0  0  0  0  0
   25.3397    7.9388   55.6635 C   0  0  0  0  0  0  0  0  0  0  0  0
   25.7364    7.6712   57.0963 C   0  0  0  0  0  0  0  0  0  0  0  0
   24.1165    7.4803   55.1921 C   0  0  0  0  0  0  0  0  0  0  0  0
   27.4502    9.1097   55.2827 O   0  0  0  0  0  0  0  0  0  0  0  0
   28.5644    9.1381   54.4491 C   0  0  0  0  0  0  0  0  0  0  0  0
   29.3067    7.9776   54.6373 F   0  0  0  0  0  0  0  0  0  0  0  0
   28.2289    9.1580   53.1055 F   0  0  0  0  0  0  0  0  0  0  0  0
   29.3544   10.2393   54.6705 F   0  0  0  0  0  0  0  0  0  0  0  0
   19.8149    4.8099   53.3044 C   0  0  0  0  0  0  0  0  0  0  0  0
   20.2529    3.5229   53.1821 C   0  0  0  0  0  0  0  0  0  0  0  0
   19.3780    2.4823   53.3990 C   0  0  0  0  0  0  0  0  0  0  0  0
   18.0974    2.7108   53.7298 N   0  0  0  0  0  0  0  0  0  0  0  0
   17.6006    3.9481   53.8669 C   0  0  0  0  0  0  0  0  0  0  0  0
   16.1679    4.1713   54.2368 C   0  0  0  0  0  0  0  0  0  0  0  0
   18.4705    4.9901   53.6512 C   0  0  0  0  0  0  0  0  0  0  0  0
  1  2  1  0  0  0
  2  3  1  0  0  0
  3  4  1  0  0  0
  4  5  1  0  0  0
  5  6  1  0  0  0
  6  7  1  0  0  0
  7  8  1  0  0  0
  5  9  2  0  0  0
  9 10  1  0  0  0
 10 11  2  0  0  0
 11 12  1  0  0  0
 12 13  2  0  0  0
 13 14  1  0  0  0
 14 15  2  0  0  0
 15 19  1  0  0  0
 19 20  1  0  0  0
 20 21  1  0  0  0
 20 22  1  0  0  0
 20 23  1  0  0  0
 15 16  1  0  0  0
 16 17  1  0  0  0
 16 18  2  0  0  0
  9 24  1  0  0  0
 24 25  2  0  0  0
 25 26  1  0  0  0
 26 27  2  0  0  0
 27 28  1  0  0  0
 28 29  1  0  0  0
 28 30  2  0  0  0
  8  2  1  0  0  0
 18 12  1  0  0  0
 30 24  1  0  0  0
 11  4  1  0  0  0
M  END
> <minimizedAffinity>
53.34852

> <CNNscore>
0.3480442762

> <CNNaffinity>
6.0726470947

> <CNN_VS>
2.1135499477

> <CNNaffinity_variance>
0.7644899487

$$$$
[H]c1nc(C([H])([H])[H])c([H])c(-c2nc(-c3c([H])c([H])c(OC(F)(F)F)c(C([H])([H])[H])c3[H])n3c2C([H])([H])C([H])([H])O[C@]([H])(C([H])([H])[H])C3([H])[H])c1[H]


 30 33  0  0  0  0  0  0  0  0999 V2000
   28.2198    8.7167   51.5498 C   0  0  0  0  0  0  0  0  0  0  0  0
   27.5955    7.7649   52.5422 C   0  0  0  0  0  0  0  0  0  0  0  0
   26.2731    8.4012   52.9658 C   0  0  0  0  0  0  0  0  0  0  0  0
   26.3052    8.9780   54.2804 N   0  0  0  0  0  0  0  0  0  0  0  0
   27.4082    9.3739   54.9849 C   0  0  0  0  0  0  0  0  0  0  0  0
   28.8522    9.4038   54.6935 C   0  0  0  0  0  0  0  0  0  0  0  0
   29.3737    8.2990   53.8458 C   0  0  0  0  0  0  0  0  0  0  0  0
   28.3783    7.3980   53.5890 O   0  0  0  0  0  0  0  0  0  0  0  0
   26.9797    9.8356   56.2210 C   0  0  0  0  0  0  0  0  0  0  0  0
   25.6580    9.7000   56.2066 N   0  0  0  0  0  0  0  0  0  0  0  0
   25.2236    9.1757   55.0211 C   0  0  0  0  0  0  0  0  0  0  0  0
   23.8055    8.9237   54.8152 C   0  0  0  0  0  0  0  0  0  0  0  0
   23.4061    7.7398   54.1710 C   0  0  0  0  0  0  0  0  0  0  0  0
   22.1228    7.3630   53.9569 C   0  0  0  0  0  0  0  0  0  0  0  0
   21.1135    8.1890   54.3961 C   0  0  0  0  0  0  0  0  0  0  0  0
   21.4513    9.3566   55.0311 C   0  0  0  0  0  0  0  0  0  0  0  0
   20.3466   10.2703   55.5071 C   0  0  0  0  0  0  0  0  0  0  0  0
   22.7768    9.7160   55.2371 C   0  0  0  0  0  0  0  0  0  0  0  0
   19.7955    7.7825   54.1645 O   0  0  0  0  0  0  0  0  0  0  0  0
   19.4796    6.7307   53.3095 C   0  0  0  0  0  0  0  0  0  0  0  0
   20.2841    5.6377   53.6116 F   0  0  0  0  0  0  0  0  0  0  0  0
   18.1745    6.2916   53.4585 F   0  0  0  0  0  0  0  0  0  0  0  0
   19.6289    7.0696   51.9871 F   0  0  0  0  0  0  0  0  0  0  0  0
   27.7296   10.3711   57.3544 C   0  0  0  0  0  0  0  0  0  0  0  0
   28.4386    9.5795   58.2110 C   0  0  0  0  0  0  0  0  0  0  0  0
   29.1229   10.1524   59.2593 C   0  0  0  0  0  0  0  0  0  0  0  0
   29.1056   11.4802   59.4553 N   0  0  0  0  0  0  0  0  0  0  0  0
   28.4308   12.3160   58.6536 C   0  0  0  0  0  0  0  0  0  0  0  0
   28.4304   13.7923   58.8977 C   0  0  0  0  0  0  0  0  0  0  0  0
   27.7462   11.7483   57.6058 C   0  0  0  0  0  0  0  0  0  0  0  0
  1  2  1  0  0  0
  2  3  1  0  0  0
  3  4  1  0  0  0
  4  5  1  0  0  0
  5  6  1  0  0  0
  6  7  1  0  0  0
  7  8  1  0  0  0
  5  9  2  0  0  0
  9 10  1  0  0  0
 10 11  2  0  0  0
 11 12  1  0  0  0
 12 13  2  0  0  0
 13 14  1  0  0  0
 14 15  2  0  0  0
 15 19  1  0  0  0
 19 20  1  0  0  0
 20 21  1  0  0  0
 20 22  1  0  0  0
 20 23  1  0  0  0
 15 16  1  0  0  0
 16 17  1  0  0  0
 16 18  2  0  0  0
  9 24  1  0  0  0
 24 25  2  0  0  0
 25 26  1  0  0  0
 26 27  2  0  0  0
 27 28  1  0  0  0
 28 29  1  0  0  0
 28 30  2  0  0  0
  8  2  1  0  0  0
 18 12  1  0  0  0
 30 24  1  0  0  0
 11  4  1  0  0  0
M  END
> <minimizedAffinity>
29.04003

> <CNNscore>
0.3128837645

> <CNNaffinity>
5.8712577820

> <CNN_VS>
1.8370212317

> <CNNaffinity_variance>
0.2017124593

$$$$
[H]c1nc(C([H])([H])[H])c([H])c(-c2nc(-c3c([H])c([H])c(F)c(C([H])([H])[H])c3[H])n3c2C([H])([H])C([H])([H])O[C@]([H])(C([H])([H])[H])C3([H])[H])c1[H]


 26 29  0  0  0  0  0  0  0  0999 V2000
   21.3816   11.7355   52.5855 C   0  0  0  0  0  0  0  0  0  0  0  0
   21.3223   10.2400   52.4421 C   0  0  0  0  0  0  0  0  0  0  0  0
   22.6890    9.5925   52.6940 C   0  0  0  0  0  0  0  0  0  0  0  0
   22.5129    8.2172   53.0232 N   0  0  0  0  0  0  0  0  0  0  0  0
   21.3369    7.5456   52.8352 C   0  0  0  0  0  0  0  0  0  0  0  0
   20.0402    7.9060   52.2773 C   0  0  0  0  0  0  0  0  0  0  0  0
   19.9873    8.9385   51.2252 C   0  0  0  0  0  0  0  0  0  0  0  0
   21.0012    9.8406   51.1490 O   0  0  0  0  0  0  0  0  0  0  0  0
   21.5780    6.2705   53.3120 C   0  0  0  0  0  0  0  0  0  0  0  0
   22.8453    6.2394   53.7472 N   0  0  0  0  0  0  0  0  0  0  0  0
   23.4348    7.4448   53.5709 C   0  0  0  0  0  0  0  0  0  0  0  0
   24.8112    7.6860   53.9893 C   0  0  0  0  0  0  0  0  0  0  0  0
   25.9381    7.2238   53.3747 C   0  0  0  0  0  0  0  0  0  0  0  0
   27.2026    7.5792   53.8699 C   0  0  0  0  0  0  0  0  0  0  0  0
   27.3609    8.3886   54.9707 C   0  0  0  0  0  0  0  0  0  0  0  0
   28.5882    8.7163   55.4279 F   0  0  0  0  0  0  0  0  0  0  0  0
   26.2450    8.8575   55.5966 C   0  0  0  0  0  0  0  0  0  0  0  0
   26.3430    9.7350   56.7895 C   0  0  0  0  0  0  0  0  0  0  0  0
   25.0323    8.5096   55.1112 C   0  0  0  0  0  0  0  0  0  0  0  0
   20.7128    5.1209   53.3726 C   0  0  0  0  0  0  0  0  0  0  0  0
   21.1798    3.8763   53.0202 C   0  0  0  0  0  0  0  0  0  0  0  0
   20.3421    2.7528   53.0930 C   0  0  0  0  0  0  0  0  0  0  0  0
   19.0756    2.9202   53.5137 N   0  0  0  0  0  0  0  0  0  0  0  0
   18.5723    4.1281   53.8712 C   0  0  0  0  0  0  0  0  0  0  0  0
   17.1712    4.2738   54.3305 C   0  0  0  0  0  0  0  0  0  0  0  0
   19.4159    5.2369   53.7944 C   0  0  0  0  0  0  0  0  0  0  0  0
  1  2  1  0  0  0
  2  3  1  0  0  0
  3  4  1  0  0  0
  4  5  1  0  0  0
  5  6  1  0  0  0
  6  7  1  0  0  0
  7  8  1  0  0  0
  5  9  2  0  0  0
  9 10  1  0  0  0
 10 11  2  0  0  0
 11 12  1  0  0  0
 12 13  2  0  0  0
 13 14  1  0  0  0
 14 15  2  0  0  0
 15 16  1  0  0  0
 15 17  1  0  0  0
 17 18  1  0  0  0
 17 19  2  0  0  0
  9 20  1  0  0  0
 20 21  2  0  0  0
 21 22  1  0  0  0
 22 23  2  0  0  0
 23 24  1  0  0  0
 24 25  1  0  0  0
 24 26  2  0  0  0
  8  2  1  0  0  0
 19 12  1  0  0  0
 26 20  1  0  0  0
 11  4  1  0  0  0
M  END
> <minimizedAffinity>
23.70751

> <CNNscore>
0.5709124804

> <CNNaffinity>
6.4748749733

> <CNN_VS>
3.6965868473

> <CNNaffinity_variance>
0.7128751874

$$$$
[H]c1nc(C([H])([H])[H])c([H])c(-c2nc(-c3c([H])c([H])c(F)c(C([H])([H])[H])c3[H])n3c2C([H])([H])C([H])([H])O[C@]([H])(C([H])([H])[H])C3([H])[H])c1[H]


 26 29  0  0  0  0  0  0  0  0999 V2000
   21.1440   11.9177   52.1328 C   0  0  0  0  0  0  0  0  0  0  0  0
   21.2043   10.4153   52.1453 C   0  0  0  0  0  0  0  0  0  0  0  0
   22.5269    9.9067   52.7305 C   0  0  0  0  0  0  0  0  0  0  0  0
   22.3694    8.5594   53.1672 N   0  0  0  0  0  0  0  0  0  0  0  0
   21.2987    7.7806   52.8262 C   0  0  0  0  0  0  0  0  0  0  0  0
   20.1240    7.9808   51.9879 C   0  0  0  0  0  0  0  0  0  0  0  0
   20.2257    8.9008   50.8394 C   0  0  0  0  0  0  0  0  0  0  0  0
   21.1782    9.8700   50.8659 O   0  0  0  0  0  0  0  0  0  0  0  0
   21.5128    6.5803   53.4778 C   0  0  0  0  0  0  0  0  0  0  0  0
   22.6642    6.6927   54.1546 N   0  0  0  0  0  0  0  0  0  0  0  0
   23.2044    7.9192   53.9669 C   0  0  0  0  0  0  0  0  0  0  0  0
   24.4497    8.3090   54.6191 C   0  0  0  0  0  0  0  0  0  0  0  0
   24.5700    9.0093   55.7837 C   0  0  0  0  0  0  0  0  0  0  0  0
   25.8424    9.2716   56.3156 C   0  0  0  0  0  0  0  0  0  0  0  0
   26.9980    8.8468   55.7026 C   0  0  0  0  0  0  0  0  0  0  0  0
   28.2104    9.1117   56.2342 F   0  0  0  0  0  0  0  0  0  0  0  0
   26.8948    8.1470   54.5379 C   0  0  0  0  0  0  0  0  0  0  0  0
   28.1008    7.6589   53.8238 C   0  0  0  0  0  0  0  0  0  0  0  0
   25.6647    7.8995   54.0347 C   0  0  0  0  0  0  0  0  0  0  0  0
   20.7234    5.3758   53.4924 C   0  0  0  0  0  0  0  0  0  0  0  0
   21.2865    4.1679   53.1532 C   0  0  0  0  0  0  0  0  0  0  0  0
   20.5223    2.9912   53.1813 C   0  0  0  0  0  0  0  0  0  0  0  0
   19.2302    3.0713   53.5464 N   0  0  0  0  0  0  0  0  0  0  0  0
   18.6332    4.2403   53.8889 C   0  0  0  0  0  0  0  0  0  0  0  0
   17.2067    4.2895   54.2863 C   0  0  0  0  0  0  0  0  0  0  0  0
   19.4044    5.4026   53.8569 C   0  0  0  0  0  0  0  0  0  0  0  0
  1  2  1  0  0  0
  2  3  1  0  0  0
  3  4  1  0  0  0
  4  5  1  0  0  0
  5  6  1  0  0  0
  6  7  1  0  0  0
  7  8  1  0  0  0
  5  9  2  0  0  0
  9 10  1  0  0  0
 10 11  2  0  0  0
 11 12  1  0  0  0
 12 13  2  0  0  0
 13 14  1  0  0  0
 14 15  2  0  0  0
 15 16  1  0  0  0
 15 17  1  0  0  0
 17 18  1  0  0  0
 17 19  2  0  0  0
  9 20  1  0  0  0
 20 21  2  0  0  0
 21 22  1  0  0  0
 22 23  2  0  0  0
 23 24  1  0  0  0
 24 25  1  0  0  0
 24 26  2  0  0  0
  8  2  1  0  0  0
 19 12  1  0  0  0
 26 20  1  0  0  0
 11  4  1  0  0  0
M  END
> <minimizedAffinity>
24.11700

> <CNNscore>
0.5166367292

> <CNNaffinity>
6.4662880898

> <CNN_VS>
3.3407218456

> <CNNaffinity_variance>
0.7927383780

$$$$
[H]c1nc(C([H])([H])[H])c([H])c(-c2nc(-c3c([H])c([H])c(F)c(C([H])([H])[H])c3[H])n3c2C([H])([H])C([H])([H])O[C@]([H])(C([H])([H])[H])C3([H])[H])c1[H]


 26 29  0  0  0  0  0  0  0  0999 V2000
   21.4528   11.6821   51.8000 C   0  0  0  0  0  0  0  0  0  0  0  0
   21.4216   10.1929   52.0054 C   0  0  0  0  0  0  0  0  0  0  0  0
   22.8037    9.6439   52.3779 C   0  0  0  0  0  0  0  0  0  0  0  0
   22.6588    8.3786   53.0173 N   0  0  0  0  0  0  0  0  0  0  0  0
   21.4944    7.6621   53.0074 C   0  0  0  0  0  0  0  0  0  0  0  0
   20.1845    7.8625   52.4020 C   0  0  0  0  0  0  0  0  0  0  0  0
   20.0991    8.6241   51.1415 C   0  0  0  0  0  0  0  0  0  0  0  0
   21.0938    9.5012   50.8440 O   0  0  0  0  0  0  0  0  0  0  0  0
   21.7663    6.5353   53.7608 C   0  0  0  0  0  0  0  0  0  0  0  0
   23.0389    6.6265   54.1714 N   0  0  0  0  0  0  0  0  0  0  0  0
   23.6021    7.7686   53.7134 C   0  0  0  0  0  0  0  0  0  0  0  0
   24.9782    8.1227   54.0435 C   0  0  0  0  0  0  0  0  0  0  0  0
   26.0516    8.0739   53.2029 C   0  0  0  0  0  0  0  0  0  0  0  0
   27.3138    8.4923   53.6528 C   0  0  0  0  0  0  0  0  0  0  0  0
   27.5225    8.9582   54.9299 C   0  0  0  0  0  0  0  0  0  0  0  0
   28.7464    9.3551   55.3390 F   0  0  0  0  0  0  0  0  0  0  0  0
   26.4606    9.0121   55.7822 C   0  0  0  0  0  0  0  0  0  0  0  0
   26.6149    9.5040   57.1739 C   0  0  0  0  0  0  0  0  0  0  0  0
   25.2495    8.6072   55.3386 C   0  0  0  0  0  0  0  0  0  0  0  0
   20.9250    5.4162   54.0978 C   0  0  0  0  0  0  0  0  0  0  0  0
   20.7481    5.0459   55.4104 C   0  0  0  0  0  0  0  0  0  0  0  0
   19.9168    3.9648   55.7411 C   0  0  0  0  0  0  0  0  0  0  0  0
   19.2988    3.3005   54.7482 N   0  0  0  0  0  0  0  0  0  0  0  0
   19.4437    3.6302   53.4404 C   0  0  0  0  0  0  0  0  0  0  0  0
   18.7462    2.8750   52.3734 C   0  0  0  0  0  0  0  0  0  0  0  0
   20.2729    4.7072   53.1253 C   0  0  0  0  0  0  0  0  0  0  0  0
  1  2  1  0  0  0
  2  3  1  0  0  0
  3  4  1  0  0  0
  4  5  1  0  0  0
  5  6  1  0  0  0
  6  7  1  0  0  0
  7  8  1  0  0  0
  5  9  2  0  0  0
  9 10  1  0  0  0
 10 11  2  0  0  0
 11 12  1  0  0  0
 12 13  2  0  0  0
 13 14  1  0  0  0
 14 15  2  0  0  0
 15 16  1  0  0  0
 15 17  1  0  0  0
 17 18  1  0  0  0
 17 19  2  0  0  0
  9 20  1  0  0  0
 20 21  2  0  0  0
 21 22  1  0  0  0
 22 23  2  0  0  0
 23 24  1  0  0  0
 24 25  1  0  0  0
 24 26  2  0  0  0
  8  2  1  0  0  0
 19 12  1  0  0  0
 26 20  1  0  0  0
 11  4  1  0  0  0
M  END
> <minimizedAffinity>
30.48988

> <CNNscore>
0.5030483007

> <CNNaffinity>
6.4653472900

> <CNN_VS>
3.2523820400

> <CNNaffinity_variance>
0.8616102934

$$$$
[H]c1nc(C([H])([H])[H])c([H])c(-c2nc(-c3c([H])c([H])c(F)c(C([H])([H])[H])c3[H])n3c2C([H])([H])C([H])([H])O[C@]([H])(C([H])([H])[H])C3([H])[H])c1[H]


 26 29  0  0  0  0  0  0  0  0999 V2000
   20.5022    5.3566   53.8302 C   0  0  0  0  0  0  0  0  0  0  0  0
   21.8427    6.0348   53.7689 C   0  0  0  0  0  0  0  0  0  0  0  0
   21.7083    7.5255   53.4370 C   0  0  0  0  0  0  0  0  0  0  0  0
   22.8853    8.2150   53.8496 N   0  0  0  0  0  0  0  0  0  0  0  0
   24.0445    7.5787   54.1968 C   0  0  0  0  0  0  0  0  0  0  0  0
   24.4663    6.1846   54.2302 C   0  0  0  0  0  0  0  0  0  0  0  0
   23.8623    5.2417   53.2700 C   0  0  0  0  0  0  0  0  0  0  0  0
   22.6444    5.5399   52.7456 O   0  0  0  0  0  0  0  0  0  0  0  0
   24.9087    8.5936   54.5634 C   0  0  0  0  0  0  0  0  0  0  0  0
   24.2485    9.7514   54.4216 N   0  0  0  0  0  0  0  0  0  0  0  0
   22.9902    9.5262   53.9775 C   0  0  0  0  0  0  0  0  0  0  0  0
   22.0512   10.6224   53.7665 C   0  0  0  0  0  0  0  0  0  0  0  0
   21.1587   11.1113   54.6752 C   0  0  0  0  0  0  0  0  0  0  0  0
   20.3472   12.2069   54.3409 C   0  0  0  0  0  0  0  0  0  0  0  0
   20.4113   12.8225   53.1126 C   0  0  0  0  0  0  0  0  0  0  0  0
   19.6199   13.8750   52.8150 F   0  0  0  0  0  0  0  0  0  0  0  0
   21.2969   12.3452   52.1935 C   0  0  0  0  0  0  0  0  0  0  0  0
   21.4180   12.9617   50.8490 C   0  0  0  0  0  0  0  0  0  0  0  0
   22.0739   11.2900   52.5258 C   0  0  0  0  0  0  0  0  0  0  0  0
   26.2739    8.5343   55.0179 C   0  0  0  0  0  0  0  0  0  0  0  0
   27.2644    8.0561   54.1924 C   0  0  0  0  0  0  0  0  0  0  0  0
   28.5974    8.0115   54.6287 C   0  0  0  0  0  0  0  0  0  0  0  0
   28.8837    8.4457   55.8692 N   0  0  0  0  0  0  0  0  0  0  0  0
   27.9397    8.9251   56.7173 C   0  0  0  0  0  0  0  0  0  0  0  0
   28.2930    9.3952   58.0773 C   0  0  0  0  0  0  0  0  0  0  0  0
   26.6184    8.9641   56.2709 C   0  0  0  0  0  0  0  0  0  0  0  0
  1  2  1  0  0  0
  2  3  1  0  0  0
  3  4  1  0  0  0
  4  5  1  0  0  0
  5  6  1  0  0  0
  6  7  1  0  0  0
  7  8  1  0  0  0
  5  9  2  0  0  0
  9 10  1  0  0  0
 10 11  2  0  0  0
 11 12  1  0  0  0
 12 13  2  0  0  0
 13 14  1  0  0  0
 14 15  2  0  0  0
 15 16  1  0  0  0
 15 17  1  0  0  0
 17 18  1  0  0  0
 17 19  2  0  0  0
  9 20  1  0  0  0
 20 21  2  0  0  0
 21 22  1  0  0  0
 22 23  2  0  0  0
 23 24  1  0  0  0
 24 25  1  0  0  0
 24 26  2  0  0  0
  8  2  1  0  0  0
 19 12  1  0  0  0
 26 20  1  0  0  0
 11  4  1  0  0  0
M  END
> <minimizedAffinity>
27.17242

> <CNNscore>
0.4988412559

> <CNNaffinity>
5.7877984047

> <CNN_VS>
2.8871927261

> <CNNaffinity_variance>
0.1752309799

$$$$
[H]c1nc(C([H])([H])[H])c([H])c(-c2nc(-c3c([H])c([H])c(F)c(C([H])([H])[H])c3[H])n3c2C([H])([H])C([H])([H])O[C@]([H])(C([H])([H])[H])C3([H])[H])c1[H]


 26 29  0  0  0  0  0  0  0  0999 V2000
   20.3865   11.3132   53.6024 C   0  0  0  0  0  0  0  0  0  0  0  0
   21.5721   10.6339   54.2298 C   0  0  0  0  0  0  0  0  0  0  0  0
   21.3946    9.1117   54.2736 C   0  0  0  0  0  0  0  0  0  0  0  0
   22.6676    8.4858   54.4101 N   0  0  0  0  0  0  0  0  0  0  0  0
   23.8042    9.1644   54.7522 C   0  0  0  0  0  0  0  0  0  0  0  0
   24.0945   10.5502   55.0952 C   0  0  0  0  0  0  0  0  0  0  0  0
   23.0393   11.3526   55.7423 C   0  0  0  0  0  0  0  0  0  0  0  0
   21.7429   10.9847   55.5649 O   0  0  0  0  0  0  0  0  0  0  0  0
   24.8039    8.2097   54.7368 C   0  0  0  0  0  0  0  0  0  0  0  0
   24.2374    7.0429   54.3989 N   0  0  0  0  0  0  0  0  0  0  0  0
   22.9094    7.2045   54.1947 C   0  0  0  0  0  0  0  0  0  0  0  0
   22.0618    6.0892   53.7878 C   0  0  0  0  0  0  0  0  0  0  0  0
   22.4776    4.8297   53.4685 C   0  0  0  0  0  0  0  0  0  0  0  0
   21.5351    3.8431   53.1382 C   0  0  0  0  0  0  0  0  0  0  0  0
   20.1828    4.0939   53.1202 C   0  0  0  0  0  0  0  0  0  0  0  0
   19.2960    3.1279   52.7991 F   0  0  0  0  0  0  0  0  0  0  0  0
   19.7516    5.3475   53.4356 C   0  0  0  0  0  0  0  0  0  0  0  0
   18.3068    5.6870   53.4358 C   0  0  0  0  0  0  0  0  0  0  0  0
   20.6675    6.2898   53.7526 C   0  0  0  0  0  0  0  0  0  0  0  0
   26.2111    8.3314   55.0181 C   0  0  0  0  0  0  0  0  0  0  0  0
   27.1453    7.9001   54.1057 C   0  0  0  0  0  0  0  0  0  0  0  0
   28.5168    8.0317   54.3722 C   0  0  0  0  0  0  0  0  0  0  0  0
   28.8960    8.5875   55.5369 N   0  0  0  0  0  0  0  0  0  0  0  0
   28.0102    9.0268   56.4656 C   0  0  0  0  0  0  0  0  0  0  0  0
   28.4655    9.6346   57.7379 C   0  0  0  0  0  0  0  0  0  0  0  0
   26.6497    8.8902   56.1881 C   0  0  0  0  0  0  0  0  0  0  0  0
  1  2  1  0  0  0
  2  3  1  0  0  0
  3  4  1  0  0  0
  4  5  1  0  0  0
  5  6  1  0  0  0
  6  7  1  0  0  0
  7  8  1  0  0  0
  5  9  2  0  0  0
  9 10  1  0  0  0
 10 11  2  0  0  0
 11 12  1  0  0  0
 12 13  2  0  0  0
 13 14  1  0  0  0
 14 15  2  0  0  0
 15 16  1  0  0  0
 15 17  1  0  0  0
 17 18  1  0  0  0
 17 19  2  0  0  0
  9 20  1  0  0  0
 20 21  2  0  0  0
 21 22  1  0  0  0
 22 23  2  0  0  0
 23 24  1  0  0  0
 24 25  1  0  0  0
 24 26  2  0  0  0
  8  2  1  0  0  0
 19 12  1  0  0  0
 26 20  1  0  0  0
 11  4  1  0  0  0
M  END
> <minimizedAffinity>
33.49634

> <CNNscore>
0.4800188541

> <CNNaffinity>
5.9820532799

> <CNN_VS>
2.8714983463

> <CNNaffinity_variance>
0.4074184000

$$$$
[H]c1nc(C([H])([H])[H])c([H])c(-c2nc(-c3c([H])c([H])c(F)c(C([H])([H])[H])c3[H])n3c2C([H])([H])C([H])([H])O[C@]([H])(C([H])([H])[H])C3([H])[H])c1[H]


 26 29  0  0  0  0  0  0  0  0999 V2000
   20.0617   10.2108   51.1967 C   0  0  0  0  0  0  0  0  0  0  0  0
   21.1206    9.8422   52.1985 C   0  0  0  0  0  0  0  0  0  0  0  0
   20.9347    8.4119   52.7183 C   0  0  0  0  0  0  0  0  0  0  0  0
   22.1639    7.9370   53.2607 N   0  0  0  0  0  0  0  0  0  0  0  0
   23.2266    8.7518   53.5365 C   0  0  0  0  0  0  0  0  0  0  0  0
   23.4570   10.1872   53.4397 C   0  0  0  0  0  0  0  0  0  0  0  0
   22.3084   11.0984   53.6014 C   0  0  0  0  0  0  0  0  0  0  0  0
   21.0608   10.6218   53.3489 O   0  0  0  0  0  0  0  0  0  0  0  0
   24.2120    7.9018   54.0032 C   0  0  0  0  0  0  0  0  0  0  0  0
   23.7090    6.6596   53.9868 N   0  0  0  0  0  0  0  0  0  0  0  0
   22.4361    6.6716   53.5276 C   0  0  0  0  0  0  0  0  0  0  0  0
   21.6682    5.4396   53.3842 C   0  0  0  0  0  0  0  0  0  0  0  0
   22.1628    4.2088   53.0651 C   0  0  0  0  0  0  0  0  0  0  0  0
   21.3025    3.1009   53.0086 C   0  0  0  0  0  0  0  0  0  0  0  0
   19.9549    3.2019   53.2645 C   0  0  0  0  0  0  0  0  0  0  0  0
   19.1480    2.1212   53.2036 F   0  0  0  0  0  0  0  0  0  0  0  0
   19.4452    4.4247   53.5835 C   0  0  0  0  0  0  0  0  0  0  0  0
   18.0005    4.6051   53.8712 C   0  0  0  0  0  0  0  0  0  0  0  0
   20.2825    5.4848   53.6357 C   0  0  0  0  0  0  0  0  0  0  0  0
   25.5503    8.1867   54.4523 C   0  0  0  0  0  0  0  0  0  0  0  0
   26.6253    7.9765   53.6207 C   0  0  0  0  0  0  0  0  0  0  0  0
   27.9286    8.2677   54.0519 C   0  0  0  0  0  0  0  0  0  0  0  0
   28.1023    8.7553   55.2933 N   0  0  0  0  0  0  0  0  0  0  0  0
   27.0721    8.9784   56.1472 C   0  0  0  0  0  0  0  0  0  0  0  0
   27.3022    9.5173   57.5081 C   0  0  0  0  0  0  0  0  0  0  0  0
   25.7814    8.6849   55.7060 C   0  0  0  0  0  0  0  0  0  0  0  0
  1  2  1  0  0  0
  2  3  1  0  0  0
  3  4  1  0  0  0
  4  5  1  0  0  0
  5  6  1  0  0  0
  6  7  1  0  0  0
  7  8  1  0  0  0
  5  9  2  0  0  0
  9 10  1  0  0  0
 10 11  2  0  0  0
 11 12  1  0  0  0
 12 13  2  0  0  0
 13 14  1  0  0  0
 14 15  2  0  0  0
 15 16  1  0  0  0
 15 17  1  0  0  0
 17 18  1  0  0  0
 17 19  2  0  0  0
  9 20  1  0  0  0
 20 21  2  0  0  0
 21 22  1  0  0  0
 22 23  2  0  0  0
 23 24  1  0  0  0
 24 25  1  0  0  0
 24 26  2  0  0  0
  8  2  1  0  0  0
 19 12  1  0  0  0
 26 20  1  0  0  0
 11  4  1  0  0  0
M  END
> <minimizedAffinity>
33.34972

> <CNNscore>
0.4693754017

> <CNNaffinity>
6.0964598656

> <CNN_VS>
2.8615283966

> <CNNaffinity_variance>
0.6062633395

$$$$
[H]c1nc(C([H])([H])[H])c([H])c(-c2nc(-c3c([H])c([H])c(F)c(C([H])([H])[H])c3[H])n3c2C([H])([H])C([H])([H])O[C@]([H])(C([H])([H])[H])C3([H])[H])c1[H]


 26 29  0  0  0  0  0  0  0  0999 V2000
   19.9997    5.3350   54.2369 C   0  0  0  0  0  0  0  0  0  0  0  0
   21.3991    5.8499   54.0437 C   0  0  0  0  0  0  0  0  0  0  0  0
   21.4399    7.0206   53.0546 C   0  0  0  0  0  0  0  0  0  0  0  0
   22.6343    7.7723   53.2529 N   0  0  0  0  0  0  0  0  0  0  0  0
   23.6897    7.3213   53.9959 C   0  0  0  0  0  0  0  0  0  0  0  0
   23.9707    6.0855   54.7144 C   0  0  0  0  0  0  0  0  0  0  0  0
   23.3707    4.8312   54.2218 C   0  0  0  0  0  0  0  0  0  0  0  0
   22.2410    4.9032   53.4694 O   0  0  0  0  0  0  0  0  0  0  0  0
   24.6096    8.3529   53.9657 C   0  0  0  0  0  0  0  0  0  0  0  0
   24.0798    9.3395   53.2293 N   0  0  0  0  0  0  0  0  0  0  0  0
   22.8524    8.9874   52.7812 C   0  0  0  0  0  0  0  0  0  0  0  0
   22.0467    9.8991   51.9765 C   0  0  0  0  0  0  0  0  0  0  0  0
   21.0218    9.5556   51.1442 C   0  0  0  0  0  0  0  0  0  0  0  0
   20.3045   10.5541   50.4665 C   0  0  0  0  0  0  0  0  0  0  0  0
   20.5948   11.8914   50.6053 C   0  0  0  0  0  0  0  0  0  0  0  0
   19.8901   12.8331   49.9425 F   0  0  0  0  0  0  0  0  0  0  0  0
   21.6166   12.2508   51.4321 C   0  0  0  0  0  0  0  0  0  0  0  0
   21.9834   13.6754   51.6280 C   0  0  0  0  0  0  0  0  0  0  0  0
   22.3004   11.2813   52.0803 C   0  0  0  0  0  0  0  0  0  0  0  0
   25.9146    8.4536   54.5663 C   0  0  0  0  0  0  0  0  0  0  0  0
   27.0353    8.0656   53.8700 C   0  0  0  0  0  0  0  0  0  0  0  0
   28.3090    8.1771   54.4486 C   0  0  0  0  0  0  0  0  0  0  0  0
   28.4087    8.6703   55.6960 N   0  0  0  0  0  0  0  0  0  0  0  0
   27.3313    9.0651   56.4196 C   0  0  0  0  0  0  0  0  0  0  0  0
   27.4802    9.6043   57.7916 C   0  0  0  0  0  0  0  0  0  0  0  0
   26.0709    8.9492   55.8325 C   0  0  0  0  0  0  0  0  0  0  0  0
  1  2  1  0  0  0
  2  3  1  0  0  0
  3  4  1  0  0  0
  4  5  1  0  0  0
  5  6  1  0  0  0
  6  7  1  0  0  0
  7  8  1  0  0  0
  5  9  2  0  0  0
  9 10  1  0  0  0
 10 11  2  0  0  0
 11 12  1  0  0  0
 12 13  2  0  0  0
 13 14  1  0  0  0
 14 15  2  0  0  0
 15 16  1  0  0  0
 15 17  1  0  0  0
 17 18  1  0  0  0
 17 19  2  0  0  0
  9 20  1  0  0  0
 20 21  2  0  0  0
 21 22  1  0  0  0
 22 23  2  0  0  0
 23 24  1  0  0  0
 24 25  1  0  0  0
 24 26  2  0  0  0
  8  2  1  0  0  0
 19 12  1  0  0  0
 26 20  1  0  0  0
 11  4  1  0  0  0
M  END
> <minimizedAffinity>
30.22841

> <CNNscore>
0.4521678388

> <CNNaffinity>
5.9190812111

> <CNN_VS>
2.6764180660

> <CNNaffinity_variance>
0.4655934274

$$$$
[H]c1nc(C([H])([H])[H])c([H])c(-c2nc(-c3c([H])c([H])c(F)c(C([H])([H])[H])c3[H])n3c2C([H])([H])C([H])([H])O[C@]([H])(C([H])([H])[H])C3([H])[H])c1[H]


 26 29  0  0  0  0  0  0  0  0999 V2000
   19.9971   10.0000   50.4662 C   0  0  0  0  0  0  0  0  0  0  0  0
   20.8956    9.7457   51.6447 C   0  0  0  0  0  0  0  0  0  0  0  0
   20.6048    8.3885   52.2958 C   0  0  0  0  0  0  0  0  0  0  0  0
   21.7340    7.9730   53.0593 N   0  0  0  0  0  0  0  0  0  0  0  0
   22.7663    8.8076   53.3868 C   0  0  0  0  0  0  0  0  0  0  0  0
   23.0417   10.2197   53.1573 C   0  0  0  0  0  0  0  0  0  0  0  0
   21.9035   11.1514   53.0464 C   0  0  0  0  0  0  0  0  0  0  0  0
   20.6929   10.6567   52.6761 O   0  0  0  0  0  0  0  0  0  0  0  0
   23.6559    8.0124   54.0849 C   0  0  0  0  0  0  0  0  0  0  0  0
   23.1312    6.7804   54.1420 N   0  0  0  0  0  0  0  0  0  0  0  0
   21.9361    6.7464   53.5079 C   0  0  0  0  0  0  0  0  0  0  0  0
   21.1673    5.5113   53.4012 C   0  0  0  0  0  0  0  0  0  0  0  0
   21.6519    4.2815   53.0635 C   0  0  0  0  0  0  0  0  0  0  0  0
   20.7941    3.1704   53.0472 C   0  0  0  0  0  0  0  0  0  0  0  0
   19.4587    3.2671   53.3618 C   0  0  0  0  0  0  0  0  0  0  0  0
   18.6539    2.1834   53.3388 F   0  0  0  0  0  0  0  0  0  0  0  0
   18.9590    4.4889   53.7000 C   0  0  0  0  0  0  0  0  0  0  0  0
   17.5276    4.6648   54.0505 C   0  0  0  0  0  0  0  0  0  0  0  0
   19.7937    5.5521   53.7130 C   0  0  0  0  0  0  0  0  0  0  0  0
   24.9241    8.3395   54.6838 C   0  0  0  0  0  0  0  0  0  0  0  0
   24.9782    9.0510   55.8594 C   0  0  0  0  0  0  0  0  0  0  0  0
   26.2129    9.3577   56.4518 C   0  0  0  0  0  0  0  0  0  0  0  0
   27.3390    8.9414   55.8455 N   0  0  0  0  0  0  0  0  0  0  0  0
   27.3335    8.2375   54.6859 C   0  0  0  0  0  0  0  0  0  0  0  0
   28.5951    7.7952   54.0469 C   0  0  0  0  0  0  0  0  0  0  0  0
   26.0993    7.9392   54.1076 C   0  0  0  0  0  0  0  0  0  0  0  0
  1  2  1  0  0  0
  2  3  1  0  0  0
  3  4  1  0  0  0
  4  5  1  0  0  0
  5  6  1  0  0  0
  6  7  1  0  0  0
  7  8  1  0  0  0
  5  9  2  0  0  0
  9 10  1  0  0  0
 10 11  2  0  0  0
 11 12  1  0  0  0
 12 13  2  0  0  0
 13 14  1  0  0  0
 14 15  2  0  0  0
 15 16  1  0  0  0
 15 17  1  0  0  0
 17 18  1  0  0  0
 17 19  2  0  0  0
  9 20  1  0  0  0
 20 21  2  0  0  0
 21 22  1  0  0  0
 22 23  2  0  0  0
 23 24  1  0  0  0
 24 25  1  0  0  0
 24 26  2  0  0  0
  8  2  1  0  0  0
 19 12  1  0  0  0
 26 20  1  0  0  0
 11  4  1  0  0  0
M  END
> <minimizedAffinity>
33.95392

> <CNNscore>
0.4437884986

> <CNNaffinity>
6.1799612045

> <CNN_VS>
2.7425956726

> <CNNaffinity_variance>
0.9257897139

$$$$
[H]c1nc(C([H])([H])[H])c([H])c(-c2nc(-c3c([H])c([H])c(F)c(C([H])([H])[H])c3[H])n3c2C([H])([H])C([H])([H])O[C@]([H])(C([H])([H])[H])C3([H])[H])c1[H]


 26 29  0  0  0  0  0  0  0  0999 V2000
   26.0911    7.0422   54.2195 C   0  0  0  0  0  0  0  0  0  0  0  0
   24.6405    6.6642   54.3366 C   0  0  0  0  0  0  0  0  0  0  0  0
   23.7194    7.8311   53.9616 C   0  0  0  0  0  0  0  0  0  0  0  0
   22.4296    7.3309   53.6196 N   0  0  0  0  0  0  0  0  0  0  0  0
   22.0252    6.0529   53.8886 C   0  0  0  0  0  0  0  0  0  0  0  0
   22.6394    4.9134   54.5571 C   0  0  0  0  0  0  0  0  0  0  0  0
   23.6179    5.1690   55.6309 C   0  0  0  0  0  0  0  0  0  0  0  0
   24.2724    6.3601   55.6431 O   0  0  0  0  0  0  0  0  0  0  0  0
   20.7472    5.9696   53.3678 C   0  0  0  0  0  0  0  0  0  0  0  0
   20.4559    7.1625   52.8308 N   0  0  0  0  0  0  0  0  0  0  0  0
   21.4953    8.0155   52.9833 C   0  0  0  0  0  0  0  0  0  0  0  0
   21.4449    9.3761   52.4596 C   0  0  0  0  0  0  0  0  0  0  0  0
   21.2593    9.7369   51.1571 C   0  0  0  0  0  0  0  0  0  0  0  0
   21.1872   11.0951   50.8095 C   0  0  0  0  0  0  0  0  0  0  0  0
   21.2987   12.1002   51.7417 C   0  0  0  0  0  0  0  0  0  0  0  0
   21.2260   13.3995   51.3823 F   0  0  0  0  0  0  0  0  0  0  0  0
   21.4857   11.7562   53.0469 C   0  0  0  0  0  0  0  0  0  0  0  0
   21.6142   12.7896   54.1044 C   0  0  0  0  0  0  0  0  0  0  0  0
   21.5531   10.4455   53.3708 C   0  0  0  0  0  0  0  0  0  0  0  0
   19.8181    4.8694   53.3541 C   0  0  0  0  0  0  0  0  0  0  0  0
   20.1625    3.6719   52.7720 C   0  0  0  0  0  0  0  0  0  0  0  0
   19.2636    2.5943   52.7710 C   0  0  0  0  0  0  0  0  0  0  0  0
   18.0609    2.7585   53.3504 N   0  0  0  0  0  0  0  0  0  0  0  0
   17.6786    3.9209   53.9361 C   0  0  0  0  0  0  0  0  0  0  0  0
   16.3448    4.0646   54.5651 C   0  0  0  0  0  0  0  0  0  0  0  0
   18.5819    4.9843   53.9303 C   0  0  0  0  0  0  0  0  0  0  0  0
  1  2  1  0  0  0
  2  3  1  0  0  0
  3  4  1  0  0  0
  4  5  1  0  0  0
  5  6  1  0  0  0
  6  7  1  0  0  0
  7  8  1  0  0  0
  5  9  2  0  0  0
  9 10  1  0  0  0
 10 11  2  0  0  0
 11 12  1  0  0  0
 12 13  2  0  0  0
 13 14  1  0  0  0
 14 15  2  0  0  0
 15 16  1  0  0  0
 15 17  1  0  0  0
 17 18  1  0  0  0
 17 19  2  0  0  0
  9 20  1  0  0  0
 20 21  2  0  0  0
 21 22  1  0  0  0
 22 23  2  0  0  0
 23 24  1  0  0  0
 24 25  1  0  0  0
 24 26  2  0  0  0
  8  2  1  0  0  0
 19 12  1  0  0  0
 26 20  1  0  0  0
 11  4  1  0  0  0
M  END
> <minimizedAffinity>
31.45621

> <CNNscore>
0.4425427616

> <CNNaffinity>
6.2315130234

> <CNN_VS>
2.7577109337

> <CNNaffinity_variance>
0.9264451265

$$$$
[H]c1nc(C([H])([H])[H])c([H])c(-c2nc(-c3c([H])c([H])c(OC(F)(F)F)c(Cl)c3[H])n3c2C([H])([H])C([H])([H])O[C@]([H])(C([H])([H])[H])C3([H])[H])c1[H]


 30 33  0  0  0  0  0  0  0  0999 V2000
   20.7427    4.8672   54.4404 C   0  0  0  0  0  0  0  0  0  0  0  0
   21.3962    6.2090   54.4765 C   0  0  0  0  0  0  0  0  0  0  0  0
   22.0885    6.5665   53.1478 C   0  0  0  0  0  0  0  0  0  0  0  0
   23.1390    7.5077   53.4029 N   0  0  0  0  0  0  0  0  0  0  0  0
   24.2788    7.1199   54.0914 C   0  0  0  0  0  0  0  0  0  0  0  0
   24.5484    5.7736   54.6632 C   0  0  0  0  0  0  0  0  0  0  0  0
   23.2570    5.1496   55.2026 C   0  0  0  0  0  0  0  0  0  0  0  0
   22.3791    6.1810   55.4823 O   0  0  0  0  0  0  0  0  0  0  0  0
   25.1060    8.2133   54.1328 C   0  0  0  0  0  0  0  0  0  0  0  0
   24.4643    9.1798   53.4964 N   0  0  0  0  0  0  0  0  0  0  0  0
   23.2454    8.7821   53.0341 C   0  0  0  0  0  0  0  0  0  0  0  0
   22.3354    9.6218   52.2787 C   0  0  0  0  0  0  0  0  0  0  0  0
   21.4736    9.2360   51.3063 C   0  0  0  0  0  0  0  0  0  0  0  0
   20.7202   10.1677   50.6259 C   0  0  0  0  0  0  0  0  0  0  0  0
   20.7946   11.5092   50.8875 C   0  0  0  0  0  0  0  0  0  0  0  0
   21.6661   11.9293   51.8776 C   0  0  0  0  0  0  0  0  0  0  0  0
   21.8166   13.6381   52.2614 Cl  0  0  0  0  0  0  0  0  0  0  0  0
   22.4156   10.9939   52.5523 C   0  0  0  0  0  0  0  0  0  0  0  0
   20.0192   12.4435   50.1833 O   0  0  0  0  0  0  0  0  0  0  0  0
   20.2765   13.8265   50.2030 C   0  0  0  0  0  0  0  0  0  0  0  0
   19.9931   14.4372   49.0011 F   0  0  0  0  0  0  0  0  0  0  0  0
   19.6465   14.4311   51.2604 F   0  0  0  0  0  0  0  0  0  0  0  0
   21.6504   13.9977   50.4127 F   0  0  0  0  0  0  0  0  0  0  0  0
   26.4517    8.3120   54.7321 C   0  0  0  0  0  0  0  0  0  0  0  0
   27.5978    7.8877   54.1094 C   0  0  0  0  0  0  0  0  0  0  0  0
   28.8357    8.0230   54.7025 C   0  0  0  0  0  0  0  0  0  0  0  0
   28.9265    8.5816   55.9180 N   0  0  0  0  0  0  0  0  0  0  0  0
   27.8302    9.0096   56.5629 C   0  0  0  0  0  0  0  0  0  0  0  0
   27.9626    9.6337   57.9296 C   0  0  0  0  0  0  0  0  0  0  0  0
   26.5863    8.8870   55.9946 C   0  0  0  0  0  0  0  0  0  0  0  0
  1  2  1  0  0  0
  2  3  1  0  0  0
  3  4  1  0  0  0
  4  5  1  0  0  0
  5  6  1  0  0  0
  6  7  1  0  0  0
  7  8  1  0  0  0
  5  9  2  0  0  0
  9 10  1  0  0  0
 10 11  2  0  0  0
 11 12  1  0  0  0
 12 13  2  0  0  0
 13 14  1  0  0  0
 14 15  2  0  0  0
 15 19  1  0  0  0
 19 20  1  0  0  0
 20 21  1  0  0  0
 20 22  1  0  0  0
 20 23  1  0  0  0
 15 16  1  0  0  0
 16 17  1  0  0  0
 16 18  2  0  0  0
  9 24  1  0  0  0
 24 25  2  0  0  0
 25 26  1  0  0  0
 26 27  2  0  0  0
 27 28  1  0  0  0
 28 29  1  0  0  0
 28 30  2  0  0  0
  8  2  1  0  0  0
 18 12  1  0  0  0
 30 24  1  0  0  0
 11  4  1  0  0  0
M  END
> <minimizedAffinity>
34.91958

> <CNNscore>
0.4722214639

> <CNNaffinity>
6.0569434166

> <CNN_VS>
2.8602187634

> <CNNaffinity_variance>
0.4102736413

$$$$
[H]c1nc(C([H])([H])[H])c([H])c(-c2nc(-c3c([H])c([H])c(OC(F)(F)F)c(Cl)c3[H])n3c2C([H])([H])C([H])([H])O[C@]([H])(C([H])([H])[H])C3([H])[H])c1[H]


 30 33  0  0  0  0  0  0  0  0999 V2000
   20.2167   11.5696   55.2361 C   0  0  0  0  0  0  0  0  0  0  0  0
   20.8118   10.4401   54.4622 C   0  0  0  0  0  0  0  0  0  0  0  0
   20.9187    9.1460   55.2907 C   0  0  0  0  0  0  0  0  0  0  0  0
   21.9708    8.3316   54.7575 N   0  0  0  0  0  0  0  0  0  0  0  0
   23.2953    8.7242   54.8806 C   0  0  0  0  0  0  0  0  0  0  0  0
   23.7882    9.9803   55.5062 C   0  0  0  0  0  0  0  0  0  0  0  0
   22.8233   11.1368   55.2237 C   0  0  0  0  0  0  0  0  0  0  0  0
   22.1119   10.8184   54.0813 O   0  0  0  0  0  0  0  0  0  0  0  0
   24.0557    7.7280   54.3231 C   0  0  0  0  0  0  0  0  0  0  0  0
   23.2009    6.8101   53.9013 N   0  0  0  0  0  0  0  0  0  0  0  0
   21.9045    7.1493   54.1498 C   0  0  0  0  0  0  0  0  0  0  0  0
   20.7581    6.3235   53.8215 C   0  0  0  0  0  0  0  0  0  0  0  0
   19.4606    6.7078   53.7463 C   0  0  0  0  0  0  0  0  0  0  0  0
   18.4691    5.7855   53.4912 C   0  0  0  0  0  0  0  0  0  0  0  0
   18.7305    4.4554   53.3011 C   0  0  0  0  0  0  0  0  0  0  0  0
   20.0483    4.0373   53.3711 C   0  0  0  0  0  0  0  0  0  0  0  0
   20.4552    2.3425   53.1429 Cl  0  0  0  0  0  0  0  0  0  0  0  0
   21.0330    4.9631   53.6267 C   0  0  0  0  0  0  0  0  0  0  0  0
   17.7067    3.5307   53.0427 O   0  0  0  0  0  0  0  0  0  0  0  0
   16.4895    3.5146   53.7480 C   0  0  0  0  0  0  0  0  0  0  0  0
   16.6636    3.6118   55.1111 F   0  0  0  0  0  0  0  0  0  0  0  0
   15.6238    4.4600   53.2606 F   0  0  0  0  0  0  0  0  0  0  0  0
   15.8853    2.2722   53.5199 F   0  0  0  0  0  0  0  0  0  0  0  0
   25.5271    7.6552   54.2253 C   0  0  0  0  0  0  0  0  0  0  0  0
   26.1949    6.8068   53.3795 C   0  0  0  0  0  0  0  0  0  0  0  0
   27.5724    6.7927   53.3083 C   0  0  0  0  0  0  0  0  0  0  0  0
   28.2807    7.6264   54.0834 N   0  0  0  0  0  0  0  0  0  0  0  0
   27.6673    8.4723   54.9255 C   0  0  0  0  0  0  0  0  0  0  0  0
   28.4900    9.3986   55.7859 C   0  0  0  0  0  0  0  0  0  0  0  0
   26.2977    8.5065   55.0153 C   0  0  0  0  0  0  0  0  0  0  0  0
  1  2  1  0  0  0
  2  3  1  0  0  0
  3  4  1  0  0  0
  4  5  1  0  0  0
  5  6  1  0  0  0
  6  7  1  0  0  0
  7  8  1  0  0  0
  5  9  2  0  0  0
  9 10  1  0  0  0
 10 11  2  0  0  0
 11 12  1  0  0  0
 12 13  2  0  0  0
 13 14  1  0  0  0
 14 15  2  0  0  0
 15 19  1  0  0  0
 19 20  1  0  0  0
 20 21  1  0  0  0
 20 22  1  0  0  0
 20 23  1  0  0  0
 15 16  1  0  0  0
 16 17  1  0  0  0
 16 18  2  0  0  0
  9 24  1  0  0  0
 24 25  2  0  0  0
 25 26  1  0  0  0
 26 27  2  0  0  0
 27 28  1  0  0  0
 28 29  1  0  0  0
 28 30  2  0  0  0
  8  2  1  0  0  0
 18 12  1  0  0  0
 30 24  1  0  0  0
 11  4  1  0  0  0
M  END
> <minimizedAffinity>
33.73325

> <CNNscore>
0.4447970688

> <CNNaffinity>
6.3363976479

> <CNN_VS>
2.8184111118

> <CNNaffinity_variance>
0.6672560573

$$$$
[H]c1nc(C([H])([H])[H])c([H])c(-c2nc(-c3c([H])c([H])c(OC(F)(F)F)c(Cl)c3[H])n3c2C([H])([H])C([H])([H])O[C@]([H])(C([H])([H])[H])C3([H])[H])c1[H]


 30 33  0  0  0  0  0  0  0  0999 V2000
   21.4798   11.4516   51.4181 C   0  0  0  0  0  0  0  0  0  0  0  0
   21.6265   10.4496   52.5150 C   0  0  0  0  0  0  0  0  0  0  0  0
   22.7688    9.4496   52.2547 C   0  0  0  0  0  0  0  0  0  0  0  0
   22.5011    8.2342   52.9657 N   0  0  0  0  0  0  0  0  0  0  0  0
   21.4574    7.4074   52.5775 C   0  0  0  0  0  0  0  0  0  0  0  0
   20.5004    7.6578   51.4668 C   0  0  0  0  0  0  0  0  0  0  0  0
   20.1791    9.1523   51.3601 C   0  0  0  0  0  0  0  0  0  0  0  0
   20.4252    9.7224   52.5959 O   0  0  0  0  0  0  0  0  0  0  0  0
   21.4876    6.3169   53.4089 C   0  0  0  0  0  0  0  0  0  0  0  0
   22.5033    6.5155   54.2335 N   0  0  0  0  0  0  0  0  0  0  0  0
   23.1510    7.6900   53.9919 C   0  0  0  0  0  0  0  0  0  0  0  0
   24.3149    8.1555   54.7216 C   0  0  0  0  0  0  0  0  0  0  0  0
   24.3373    8.9780   55.7987 C   0  0  0  0  0  0  0  0  0  0  0  0
   25.5344    9.3907   56.3420 C   0  0  0  0  0  0  0  0  0  0  0  0
   26.7460    9.0014   55.8379 C   0  0  0  0  0  0  0  0  0  0  0  0
   26.7507    8.1597   54.7389 C   0  0  0  0  0  0  0  0  0  0  0  0
   28.2709    7.6254   54.0364 Cl  0  0  0  0  0  0  0  0  0  0  0  0
   25.5520    7.7522   54.2012 C   0  0  0  0  0  0  0  0  0  0  0  0
   27.9554    9.4327   56.4049 O   0  0  0  0  0  0  0  0  0  0  0  0
   28.2002    9.4260   57.7903 C   0  0  0  0  0  0  0  0  0  0  0  0
   29.1191    8.4697   58.1631 F   0  0  0  0  0  0  0  0  0  0  0  0
   28.5343   10.6781   58.2390 F   0  0  0  0  0  0  0  0  0  0  0  0
   27.0019    9.0851   58.4295 F   0  0  0  0  0  0  0  0  0  0  0  0
   20.6001    5.1371   53.3920 C   0  0  0  0  0  0  0  0  0  0  0  0
   20.9962    3.8896   52.9819 C   0  0  0  0  0  0  0  0  0  0  0  0
   20.1347    2.8126   53.0065 C   0  0  0  0  0  0  0  0  0  0  0  0
   18.8777    2.9843   53.4404 N   0  0  0  0  0  0  0  0  0  0  0  0
   18.4488    4.1881   53.8500 C   0  0  0  0  0  0  0  0  0  0  0  0
   17.0291    4.3515   54.3326 C   0  0  0  0  0  0  0  0  0  0  0  0
   19.2862    5.2760   53.8358 C   0  0  0  0  0  0  0  0  0  0  0  0
  1  2  1  0  0  0
  2  3  1  0  0  0
  3  4  1  0  0  0
  4  5  1  0  0  0
  5  6  1  0  0  0
  6  7  1  0  0  0
  7  8  1  0  0  0
  5  9  2  0  0  0
  9 10  1  0  0  0
 10 11  2  0  0  0
 11 12  1  0  0  0
 12 13  2  0  0  0
 13 14  1  0  0  0
 14 15  2  0  0  0
 15 19  1  0  0  0
 19 20  1  0  0  0
 20 21  1  0  0  0
 20 22  1  0  0  0
 20 23  1  0  0  0
 15 16  1  0  0  0
 16 17  1  0  0  0
 16 18  2  0  0  0
  9 24  1  0  0  0
 24 25  2  0  0  0
 25 26  1  0  0  0
 26 27  2  0  0  0
 27 28  1  0  0  0
 28 29  1  0  0  0
 28 30  2  0  0  0
  8  2  1  0  0  0
 18 12  1  0  0  0
 30 24  1  0  0  0
 11  4  1  0  0  0
M  END
> <minimizedAffinity>
21.88081

> <CNNscore>
0.4331998229

> <CNNaffinity>
6.4860930443

> <CNN_VS>
2.8097743988

> <CNNaffinity_variance>
0.5714767575

$$$$
[H]c1nc(C([H])([H])[H])c([H])c(-c2nc(-c3c([H])c([H])c(OC(F)(F)F)c(Cl)c3[H])n3c2C([H])([H])C([H])([H])O[C@]([H])(C([H])([H])[H])C3([H])[H])c1[H]


 30 33  0  0  0  0  0  0  0  0999 V2000
   21.6243   11.2479   50.9035 C   0  0  0  0  0  0  0  0  0  0  0  0
   21.5884   10.3569   52.1008 C   0  0  0  0  0  0  0  0  0  0  0  0
   22.6992    9.2900   52.0787 C   0  0  0  0  0  0  0  0  0  0  0  0
   22.2864    8.1647   52.8646 N   0  0  0  0  0  0  0  0  0  0  0  0
   21.2535    7.3461   52.4328 C   0  0  0  0  0  0  0  0  0  0  0  0
   20.4480    7.5215   51.1948 C   0  0  0  0  0  0  0  0  0  0  0  0
   20.2204    9.0094   50.9072 C   0  0  0  0  0  0  0  0  0  0  0  0
   20.3494    9.6911   52.1036 O   0  0  0  0  0  0  0  0  0  0  0  0
   21.1285    6.3450   53.3620 C   0  0  0  0  0  0  0  0  0  0  0  0
   22.0494    6.5845   54.2816 N   0  0  0  0  0  0  0  0  0  0  0  0
   22.7818    7.7012   54.0097 C   0  0  0  0  0  0  0  0  0  0  0  0
   23.8749    8.1905   54.8281 C   0  0  0  0  0  0  0  0  0  0  0  0
   23.7885    8.9133   55.9714 C   0  0  0  0  0  0  0  0  0  0  0  0
   24.9261    9.3693   56.6012 C   0  0  0  0  0  0  0  0  0  0  0  0
   26.1839    9.1230   56.1207 C   0  0  0  0  0  0  0  0  0  0  0  0
   26.2996    8.3852   54.9552 C   0  0  0  0  0  0  0  0  0  0  0  0
   27.8842    8.0369   54.2787 Cl  0  0  0  0  0  0  0  0  0  0  0  0
   25.1599    7.9337   54.3313 C   0  0  0  0  0  0  0  0  0  0  0  0
   27.3312    9.5963   56.7763 O   0  0  0  0  0  0  0  0  0  0  0  0
   27.8073   10.9129   56.6379 C   0  0  0  0  0  0  0  0  0  0  0  0
   28.5961   11.3069   57.6963 F   0  0  0  0  0  0  0  0  0  0  0  0
   28.4269   11.0893   55.4272 F   0  0  0  0  0  0  0  0  0  0  0  0
   26.6971   11.7662   56.6404 F   0  0  0  0  0  0  0  0  0  0  0  0
   20.1884    5.2066   53.3498 C   0  0  0  0  0  0  0  0  0  0  0  0
   20.4896    3.9732   52.8310 C   0  0  0  0  0  0  0  0  0  0  0  0
   19.5837    2.9336   52.8641 C   0  0  0  0  0  0  0  0  0  0  0  0
   18.3771    3.1285   53.4154 N   0  0  0  0  0  0  0  0  0  0  0  0
   18.0411    4.3198   53.9339 C   0  0  0  0  0  0  0  0  0  0  0  0
   16.6763    4.5101   54.5472 C   0  0  0  0  0  0  0  0  0  0  0  0
   18.9245    5.3707   53.9139 C   0  0  0  0  0  0  0  0  0  0  0  0
  1  2  1  0  0  0
  2  3  1  0  0  0
  3  4  1  0  0  0
  4  5  1  0  0  0
  5  6  1  0  0  0
  6  7  1  0  0  0
  7  8  1  0  0  0
  5  9  2  0  0  0
  9 10  1  0  0  0
 10 11  2  0  0  0
 11 12  1  0  0  0
 12 13  2  0  0  0
 13 14  1  0  0  0
 14 15  2  0  0  0
 15 19  1  0  0  0
 19 20  1  0  0  0
 20 21  1  0  0  0
 20 22  1  0  0  0
 20 23  1  0  0  0
 15 16  1  0  0  0
 16 17  1  0  0  0
 16 18  2  0  0  0
  9 24  1  0  0  0
 24 25  2  0  0  0
 25 26  1  0  0  0
 26 27  2  0  0  0
 27 28  1  0  0  0
 28 29  1  0  0  0
 28 30  2  0  0  0
  8  2  1  0  0  0
 18 12  1  0  0  0
 30 24  1  0  0  0
 11  4  1  0  0  0
M  END
> <minimizedAffinity>
31.24217

> <CNNscore>
0.4255078435

> <CNNaffinity>
6.4758176804

> <CNN_VS>
2.7555112839

> <CNNaffinity_variance>
0.6579355001

$$$$
[H]c1nc(C([H])([H])[H])c([H])c(-c2nc(-c3c([H])c([H])c(OC(F)(F)F)c(Cl)c3[H])n3c2C([H])([H])C([H])([H])O[C@]([H])(C([H])([H])[H])C3([H])[H])c1[H]


 30 33  0  0  0  0  0  0  0  0999 V2000
   20.2927   11.7982   54.3678 C   0  0  0  0  0  0  0  0  0  0  0  0
   21.1026   10.6268   53.9200 C   0  0  0  0  0  0  0  0  0  0  0  0
   21.1888    9.5224   54.9902 C   0  0  0  0  0  0  0  0  0  0  0  0
   22.3812    8.7553   54.7798 N   0  0  0  0  0  0  0  0  0  0  0  0
   23.6284    9.3162   55.0111 C   0  0  0  0  0  0  0  0  0  0  0  0
   23.9005   10.7126   55.4449 C   0  0  0  0  0  0  0  0  0  0  0  0
   22.8951   11.6790   54.8096 C   0  0  0  0  0  0  0  0  0  0  0  0
   22.4084   11.0812   53.6614 O   0  0  0  0  0  0  0  0  0  0  0  0
   24.5540    8.3330   54.7709 C   0  0  0  0  0  0  0  0  0  0  0  0
   23.8633    7.2608   54.4181 N   0  0  0  0  0  0  0  0  0  0  0  0
   22.5189    7.4843   54.4096 C   0  0  0  0  0  0  0  0  0  0  0  0
   21.5184    6.4845   54.0884 C   0  0  0  0  0  0  0  0  0  0  0  0
   21.7205    5.1683   53.8357 C   0  0  0  0  0  0  0  0  0  0  0  0
   20.6700    4.3539   53.4723 C   0  0  0  0  0  0  0  0  0  0  0  0
   19.3874    4.8158   53.3493 C   0  0  0  0  0  0  0  0  0  0  0  0
   19.1539    6.1563   53.6037 C   0  0  0  0  0  0  0  0  0  0  0  0
   17.5318    6.8180   53.4589 Cl  0  0  0  0  0  0  0  0  0  0  0  0
   20.2072    6.9637   53.9654 C   0  0  0  0  0  0  0  0  0  0  0  0
   18.3302    3.9707   52.9776 O   0  0  0  0  0  0  0  0  0  0  0  0
   17.2877    3.6135   53.8522 C   0  0  0  0  0  0  0  0  0  0  0  0
   16.5265    2.5698   53.3738 F   0  0  0  0  0  0  0  0  0  0  0  0
   17.7626    3.3801   55.1174 F   0  0  0  0  0  0  0  0  0  0  0  0
   16.4247    4.7117   53.9517 F   0  0  0  0  0  0  0  0  0  0  0  0
   26.0225    8.4172   54.8988 C   0  0  0  0  0  0  0  0  0  0  0  0
   26.8982    8.0126   53.9237 C   0  0  0  0  0  0  0  0  0  0  0  0
   28.2631    8.1333   54.0820 C   0  0  0  0  0  0  0  0  0  0  0  0
   28.7511    8.6576   55.2154 N   0  0  0  0  0  0  0  0  0  0  0  0
   27.9298    9.0654   56.1952 C   0  0  0  0  0  0  0  0  0  0  0  0
   28.5072    9.6510   57.4596 C   0  0  0  0  0  0  0  0  0  0  0  0
   26.5675    8.9567   56.0626 C   0  0  0  0  0  0  0  0  0  0  0  0
  1  2  1  0  0  0
  2  3  1  0  0  0
  3  4  1  0  0  0
  4  5  1  0  0  0
  5  6  1  0  0  0
  6  7  1  0  0  0
  7  8  1  0  0  0
  5  9  2  0  0  0
  9 10  1  0  0  0
 10 11  2  0  0  0
 11 12  1  0  0  0
 12 13  2  0  0  0
 13 14  1  0  0  0
 14 15  2  0  0  0
 15 19  1  0  0  0
 19 20  1  0  0  0
 20 21  1  0  0  0
 20 22  1  0  0  0
 20 23  1  0  0  0
 15 16  1  0  0  0
 16 17  1  0  0  0
 16 18  2  0  0  0
  9 24  1  0  0  0
 24 25  2  0  0  0
 25 26  1  0  0  0
 26 27  2  0  0  0
 27 28  1  0  0  0
 28 29  1  0  0  0
 28 30  2  0  0  0
  8  2  1  0  0  0
 18 12  1  0  0  0
 30 24  1  0  0  0
 11  4  1  0  0  0
M  END
> <minimizedAffinity>
31.11991

> <CNNscore>
0.4039773047

> <CNNaffinity>
6.0933303833

> <CNN_VS>
2.4615671635

> <CNNaffinity_variance>
0.3549990356

$$$$
[H]c1nc(C([H])([H])[H])c([H])c(-c2nc(-c3c([H])c([H])c(OC(F)(F)F)c(Cl)c3[H])n3c2C([H])([H])C([H])([H])O[C@]([H])(C([H])([H])[H])C3([H])[H])c1[H]


 30 33  0  0  0  0  0  0  0  0999 V2000
   19.2425    9.6195   50.4281 C   0  0  0  0  0  0  0  0  0  0  0  0
   20.1485    8.5842   51.0080 C   0  0  0  0  0  0  0  0  0  0  0  0
   19.7774    8.2172   52.4572 C   0  0  0  0  0  0  0  0  0  0  0  0
   20.9419    7.7211   53.1297 N   0  0  0  0  0  0  0  0  0  0  0  0
   21.9951    8.5712   53.4323 C   0  0  0  0  0  0  0  0  0  0  0  0
   22.0866   10.0168   53.0942 C   0  0  0  0  0  0  0  0  0  0  0  0
   21.4392   10.2931   51.7330 C   0  0  0  0  0  0  0  0  0  0  0  0
   21.4528    9.1107   51.0156 O   0  0  0  0  0  0  0  0  0  0  0  0
   22.9251    7.8227   54.1077 C   0  0  0  0  0  0  0  0  0  0  0  0
   22.4227    6.6010   54.1851 N   0  0  0  0  0  0  0  0  0  0  0  0
   21.2008    6.4994   53.5900 C   0  0  0  0  0  0  0  0  0  0  0  0
   20.4035    5.2885   53.5444 C   0  0  0  0  0  0  0  0  0  0  0  0
   20.7689    4.0796   53.0524 C   0  0  0  0  0  0  0  0  0  0  0  0
   19.8694    3.0366   53.0135 C   0  0  0  0  0  0  0  0  0  0  0  0
   18.5815    3.1566   53.4614 C   0  0  0  0  0  0  0  0  0  0  0  0
   18.1836    4.3808   53.9704 C   0  0  0  0  0  0  0  0  0  0  0  0
   16.5422    4.6071   54.5574 Cl  0  0  0  0  0  0  0  0  0  0  0  0
   19.0865    5.4179   54.0057 C   0  0  0  0  0  0  0  0  0  0  0  0
   17.6793    2.0824   53.4131 O   0  0  0  0  0  0  0  0  0  0  0  0
   16.4317    2.1551   52.7669 C   0  0  0  0  0  0  0  0  0  0  0  0
   15.6718    3.2208   53.1964 F   0  0  0  0  0  0  0  0  0  0  0  0
   16.5795    2.1313   51.4037 F   0  0  0  0  0  0  0  0  0  0  0  0
   15.7128    1.0022   53.1054 F   0  0  0  0  0  0  0  0  0  0  0  0
   24.2160    8.2684   54.6687 C   0  0  0  0  0  0  0  0  0  0  0  0
   24.3313    9.0741   55.7728 C   0  0  0  0  0  0  0  0  0  0  0  0
   25.5623    9.4446   56.2725 C   0  0  0  0  0  0  0  0  0  0  0  0
   26.6770    9.0098   55.6673 N   0  0  0  0  0  0  0  0  0  0  0  0
   26.6096    8.2206   54.5841 C   0  0  0  0  0  0  0  0  0  0  0  0
   27.8803    7.7470   53.9237 C   0  0  0  0  0  0  0  0  0  0  0  0
   25.3969    7.8370   54.0670 C   0  0  0  0  0  0  0  0  0  0  0  0
  1  2  1  0  0  0
  2  3  1  0  0  0
  3  4  1  0  0  0
  4  5  1  0  0  0
  5  6  1  0  0  0
  6  7  1  0  0  0
  7  8  1  0  0  0
  5  9  2  0  0  0
  9 10  1  0  0  0
 10 11  2  0  0  0
 11 12  1  0  0  0
 12 13  2  0  0  0
 13 14  1  0  0  0
 14 15  2  0  0  0
 15 19  1  0  0  0
 19 20  1  0  0  0
 20 21  1  0  0  0
 20 22  1  0  0  0
 20 23  1  0  0  0
 15 16  1  0  0  0
 16 17  1  0  0  0
 16 18  2  0  0  0
  9 24  1  0  0  0
 24 25  2  0  0  0
 25 26  1  0  0  0
 26 27  2  0  0  0
 27 28  1  0  0  0
 28 29  1  0  0  0
 28 30  2  0  0  0
  8  2  1  0  0  0
 18 12  1  0  0  0
 30 24  1  0  0  0
 11  4  1  0  0  0
M  END
> <minimizedAffinity>
33.87428

> <CNNscore>
0.3791809082

> <CNNaffinity>
6.1569170952

> <CNN_VS>
2.3345854282

> <CNNaffinity_variance>
0.3644642234

$$$$
[H]c1nc(C([H])([H])[H])c([H])c(-c2nc(-c3c([H])c([H])c(OC(F)(F)F)c(Cl)c3[H])n3c2C([H])([H])C([H])([H])O[C@]([H])(C([H])([H])[H])C3([H])[H])c1[H]


 30 33  0  0  0  0  0  0  0  0999 V2000
   20.0539    8.0727   51.1216 C   0  0  0  0  0  0  0  0  0  0  0  0
   21.0650    8.1938   52.2134 C   0  0  0  0  0  0  0  0  0  0  0  0
   22.2364    7.2073   52.0478 C   0  0  0  0  0  0  0  0  0  0  0  0
   22.8180    6.9479   53.3318 N   0  0  0  0  0  0  0  0  0  0  0  0
   22.1192    6.2257   54.2876 C   0  0  0  0  0  0  0  0  0  0  0  0
   20.7417    5.6821   54.1493 C   0  0  0  0  0  0  0  0  0  0  0  0
   19.8656    6.6379   53.3325 C   0  0  0  0  0  0  0  0  0  0  0  0
   20.4214    7.9007   53.4292 O   0  0  0  0  0  0  0  0  0  0  0  0
   22.9470    6.1052   55.3746 C   0  0  0  0  0  0  0  0  0  0  0  0
   24.0667    6.7318   55.0509 N   0  0  0  0  0  0  0  0  0  0  0  0
   24.0230    7.2671   53.7983 C   0  0  0  0  0  0  0  0  0  0  0  0
   25.1149    7.9858   53.1697 C   0  0  0  0  0  0  0  0  0  0  0  0
   25.1605    8.4738   51.9061 C   0  0  0  0  0  0  0  0  0  0  0  0
   26.3037    9.0755   51.4268 C   0  0  0  0  0  0  0  0  0  0  0  0
   27.4362    9.2145   52.1829 C   0  0  0  0  0  0  0  0  0  0  0  0
   27.4150    8.7259   53.4779 C   0  0  0  0  0  0  0  0  0  0  0  0
   28.8365    8.8653   54.5027 Cl  0  0  0  0  0  0  0  0  0  0  0  0
   26.2708    8.1259   53.9497 C   0  0  0  0  0  0  0  0  0  0  0  0
   28.5917    9.8301   51.6769 O   0  0  0  0  0  0  0  0  0  0  0  0
   28.7147   10.2534   50.3408 C   0  0  0  0  0  0  0  0  0  0  0  0
   29.3787   11.4546   50.2228 F   0  0  0  0  0  0  0  0  0  0  0  0
   29.2657    9.2700   49.5598 F   0  0  0  0  0  0  0  0  0  0  0  0
   27.4230   10.4719   49.8462 F   0  0  0  0  0  0  0  0  0  0  0  0
   22.6808    5.4029   56.6457 C   0  0  0  0  0  0  0  0  0  0  0  0
   21.6676    5.7400   57.5065 C   0  0  0  0  0  0  0  0  0  0  0  0
   21.4453    5.0374   58.6725 C   0  0  0  0  0  0  0  0  0  0  0  0
   22.2367    3.9988   58.9770 N   0  0  0  0  0  0  0  0  0  0  0  0
   23.2400    3.6356   58.1631 C   0  0  0  0  0  0  0  0  0  0  0  0
   24.1146    2.4633   58.5316 C   0  0  0  0  0  0  0  0  0  0  0  0
   23.4823    4.3180   56.9966 C   0  0  0  0  0  0  0  0  0  0  0  0
  1  2  1  0  0  0
  2  3  1  0  0  0
  3  4  1  0  0  0
  4  5  1  0  0  0
  5  6  1  0  0  0
  6  7  1  0  0  0
  7  8  1  0  0  0
  5  9  2  0  0  0
  9 10  1  0  0  0
 10 11  2  0  0  0
 11 12  1  0  0  0
 12 13  2  0  0  0
 13 14  1  0  0  0
 14 15  2  0  0  0
 15 19  1  0  0  0
 19 20  1  0  0  0
 20 21  1  0  0  0
 20 22  1  0  0  0
 20 23  1  0  0  0
 15 16  1  0  0  0
 16 17  1  0  0  0
 16 18  2  0  0  0
  9 24  1  0  0  0
 24 25  2  0  0  0
 25 26  1  0  0  0
 26 27  2  0  0  0
 27 28  1  0  0  0
 28 29  1  0  0  0
 28 30  2  0  0  0
  8  2  1  0  0  0
 18 12  1  0  0  0
 30 24  1  0  0  0
 11  4  1  0  0  0
M  END
> <minimizedAffinity>
46.76671

> <CNNscore>
0.3747711480

> <CNNaffinity>
5.8884844780

> <CNN_VS>
2.2068340778

> <CNNaffinity_variance>
0.8074775934

$$$$
[H]c1nc(C([H])([H])[H])c([H])c(-c2nc(-c3c([H])c([H])c(OC(F)(F)F)c(Cl)c3[H])n3c2C([H])([H])C([H])([H])O[C@]([H])(C([H])([H])[H])C3([H])[H])c1[H]


 30 33  0  0  0  0  0  0  0  0999 V2000
   21.6397    5.1331   53.7015 C   0  0  0  0  0  0  0  0  0  0  0  0
   22.4446    6.3665   53.4570 C   0  0  0  0  0  0  0  0  0  0  0  0
   22.3489    7.3757   54.6167 C   0  0  0  0  0  0  0  0  0  0  0  0
   22.6116    8.6931   54.1169 N   0  0  0  0  0  0  0  0  0  0  0  0
   21.7075    9.3177   53.2708 C   0  0  0  0  0  0  0  0  0  0  0  0
   20.4358    8.7409   52.7586 C   0  0  0  0  0  0  0  0  0  0  0  0
   20.5929    7.2391   52.4970 C   0  0  0  0  0  0  0  0  0  0  0  0
   21.9386    6.9873   52.3007 O   0  0  0  0  0  0  0  0  0  0  0  0
   22.2100   10.5667   53.0088 C   0  0  0  0  0  0  0  0  0  0  0  0
   23.3498   10.6481   53.6761 N   0  0  0  0  0  0  0  0  0  0  0  0
   23.6320    9.5094   54.3697 C   0  0  0  0  0  0  0  0  0  0  0  0
   24.7999    9.3229   55.2096 C   0  0  0  0  0  0  0  0  0  0  0  0
   24.9640    9.7250   56.4935 C   0  0  0  0  0  0  0  0  0  0  0  0
   26.1663    9.5369   57.1397 C   0  0  0  0  0  0  0  0  0  0  0  0
   27.2426    8.9439   56.5368 C   0  0  0  0  0  0  0  0  0  0  0  0
   27.1004    8.5224   55.2259 C   0  0  0  0  0  0  0  0  0  0  0  0
   28.4439    7.7586   54.3883 Cl  0  0  0  0  0  0  0  0  0  0  0  0
   25.8977    8.7140   54.5866 C   0  0  0  0  0  0  0  0  0  0  0  0
   28.4598    8.7613   57.2115 O   0  0  0  0  0  0  0  0  0  0  0  0
   28.5883    8.8709   58.6082 C   0  0  0  0  0  0  0  0  0  0  0  0
   29.3778    7.8798   59.1488 F   0  0  0  0  0  0  0  0  0  0  0  0
   29.0025   10.1274   58.9690 F   0  0  0  0  0  0  0  0  0  0  0  0
   27.3144    8.7011   59.1643 F   0  0  0  0  0  0  0  0  0  0  0  0
   21.6107   11.6314   52.1799 C   0  0  0  0  0  0  0  0  0  0  0  0
   21.6426   12.9629   52.5073 C   0  0  0  0  0  0  0  0  0  0  0  0
   21.0875   13.9230   51.6870 C   0  0  0  0  0  0  0  0  0  0  0  0
   20.5004   13.5506   50.5406 N   0  0  0  0  0  0  0  0  0  0  0  0
   20.4464   12.2584   50.1824 C   0  0  0  0  0  0  0  0  0  0  0  0
   19.7790   11.8689   48.8871 C   0  0  0  0  0  0  0  0  0  0  0  0
   20.9915   11.2834   50.9807 C   0  0  0  0  0  0  0  0  0  0  0  0
  1  2  1  0  0  0
  2  3  1  0  0  0
  3  4  1  0  0  0
  4  5  1  0  0  0
  5  6  1  0  0  0
  6  7  1  0  0  0
  7  8  1  0  0  0
  5  9  2  0  0  0
  9 10  1  0  0  0
 10 11  2  0  0  0
 11 12  1  0  0  0
 12 13  2  0  0  0
 13 14  1  0  0  0
 14 15  2  0  0  0
 15 19  1  0  0  0
 19 20  1  0  0  0
 20 21  1  0  0  0
 20 22  1  0  0  0
 20 23  1  0  0  0
 15 16  1  0  0  0
 16 17  1  0  0  0
 16 18  2  0  0  0
  9 24  1  0  0  0
 24 25  2  0  0  0
 25 26  1  0  0  0
 26 27  2  0  0  0
 27 28  1  0  0  0
 28 29  1  0  0  0
 28 30  2  0  0  0
  8  2  1  0  0  0
 18 12  1  0  0  0
 30 24  1  0  0  0
 11  4  1  0  0  0
M  END
> <minimizedAffinity>
35.38823

> <CNNscore>
0.3626714349

> <CNNaffinity>
5.7129220963

> <CNN_VS>
2.0719137192

> <CNNaffinity_variance>
0.1215864867

$$$$
[H]c1nc(C([H])([H])[H])c([H])c(-c2nc(-c3c([H])c([H])c(OC(F)(F)F)c(Cl)c3[H])n3c2C([H])([H])C([H])([H])O[C@]([H])(C([H])([H])[H])C3([H])[H])c1[H]


 30 33  0  0  0  0  0  0  0  0999 V2000
   20.4856    5.4898   53.3650 C   0  0  0  0  0  0  0  0  0  0  0  0
   21.1902    6.5846   54.0955 C   0  0  0  0  0  0  0  0  0  0  0  0
   21.6764    7.7053   53.1573 C   0  0  0  0  0  0  0  0  0  0  0  0
   22.7913    8.3737   53.7610 N   0  0  0  0  0  0  0  0  0  0  0  0
   24.0094    7.7253   53.8994 C   0  0  0  0  0  0  0  0  0  0  0  0
   24.3118    6.3233   53.5053 C   0  0  0  0  0  0  0  0  0  0  0  0
   23.0983    5.4210   53.7533 C   0  0  0  0  0  0  0  0  0  0  0  0
   22.3185    6.0257   54.7224 O   0  0  0  0  0  0  0  0  0  0  0  0
   24.8762    8.6288   54.4594 C   0  0  0  0  0  0  0  0  0  0  0  0
   24.1811    9.7415   54.6322 N   0  0  0  0  0  0  0  0  0  0  0  0
   22.8892    9.6210   54.2151 C   0  0  0  0  0  0  0  0  0  0  0  0
   21.9054   10.6860   54.2590 C   0  0  0  0  0  0  0  0  0  0  0  0
   20.9768   10.9106   55.2204 C   0  0  0  0  0  0  0  0  0  0  0  0
   20.0581   11.9285   55.0848 C   0  0  0  0  0  0  0  0  0  0  0  0
   20.0305   12.7565   53.9953 C   0  0  0  0  0  0  0  0  0  0  0  0
   20.9698   12.5493   52.9997 C   0  0  0  0  0  0  0  0  0  0  0  0
   20.9881   13.5717   51.5699 Cl  0  0  0  0  0  0  0  0  0  0  0  0
   21.8835   11.5310   53.1412 C   0  0  0  0  0  0  0  0  0  0  0  0
   19.0864   13.7881   53.8747 O   0  0  0  0  0  0  0  0  0  0  0  0
   17.8234   13.7502   54.4934 C   0  0  0  0  0  0  0  0  0  0  0  0
   16.8559   14.4095   53.7675 F   0  0  0  0  0  0  0  0  0  0  0  0
   17.4628   12.4635   54.8016 F   0  0  0  0  0  0  0  0  0  0  0  0
   17.9291   14.4323   55.7117 F   0  0  0  0  0  0  0  0  0  0  0  0
   26.3029    8.4361   54.7868 C   0  0  0  0  0  0  0  0  0  0  0  0
   27.2034    7.8297   53.9485 C   0  0  0  0  0  0  0  0  0  0  0  0
   28.5326    7.6939   54.2910 C   0  0  0  0  0  0  0  0  0  0  0  0
   28.9600    8.1639   55.4718 N   0  0  0  0  0  0  0  0  0  0  0  0
   28.1124    8.7632   56.3222 C   0  0  0  0  0  0  0  0  0  0  0  0
   28.6214    9.2819   57.6439 C   0  0  0  0  0  0  0  0  0  0  0  0
   26.7847    8.9114   56.0052 C   0  0  0  0  0  0  0  0  0  0  0  0
  1  2  1  0  0  0
  2  3  1  0  0  0
  3  4  1  0  0  0
  4  5  1  0  0  0
  5  6  1  0  0  0
  6  7  1  0  0  0
  7  8  1  0  0  0
  5  9  2  0  0  0
  9 10  1  0  0  0
 10 11  2  0  0  0
 11 12  1  0  0  0
 12 13  2  0  0  0
 13 14  1  0  0  0
 14 15  2  0  0  0
 15 19  1  0  0  0
 19 20  1  0  0  0
 20 21  1  0  0  0
 20 22  1  0  0  0
 20 23  1  0  0  0
 15 16  1  0  0  0
 16 17  1  0  0  0
 16 18  2  0  0  0
  9 24  1  0  0  0
 24 25  2  0  0  0
 25 26  1  0  0  0
 26 27  2  0  0  0
 27 28  1  0  0  0
 28 29  1  0  0  0
 28 30  2  0  0  0
  8  2  1  0  0  0
 18 12  1  0  0  0
 30 24  1  0  0  0
 11  4  1  0  0  0
M  END
> <minimizedAffinity>
44.93236

> <CNNscore>
0.3471544385

> <CNNaffinity>
5.7595334053

> <CNN_VS>
1.9994475842

> <CNNaffinity_variance>
0.4667916894

$$$$
[H]c1nc(C([H])([H])[H])c([H])c(-c2nc(-c3c([H])c([H])c(OC([H])(F)F)c(C([H])([H])[H])c3[H])n3c2C([H])([H])C([H])([H])O[C@]([H])(C([H])([H])[H])C3([H])[H])c1[H]


 29 32  0  0  0  0  0  0  0  0999 V2000
   20.3420   10.6386   55.8326 C   0  0  0  0  0  0  0  0  0  0  0  0
   20.6343   10.0215   54.5060 C   0  0  0  0  0  0  0  0  0  0  0  0
   20.8147    8.5231   54.6868 C   0  0  0  0  0  0  0  0  0  0  0  0
   22.1679    8.0762   54.6418 N   0  0  0  0  0  0  0  0  0  0  0  0
   23.2833    8.8342   54.9232 C   0  0  0  0  0  0  0  0  0  0  0  0
   23.2958   10.2371   55.3613 C   0  0  0  0  0  0  0  0  0  0  0  0
   22.6612   11.1714   54.3825 C   0  0  0  0  0  0  0  0  0  0  0  0
   21.6120   10.5881   53.7541 O   0  0  0  0  0  0  0  0  0  0  0  0
   24.4044    8.0766   54.7298 C   0  0  0  0  0  0  0  0  0  0  0  0
   23.9571    6.8794   54.3363 N   0  0  0  0  0  0  0  0  0  0  0  0
   22.5825    6.8637   54.2798 C   0  0  0  0  0  0  0  0  0  0  0  0
   21.8405    5.6902   53.8534 C   0  0  0  0  0  0  0  0  0  0  0  0
   22.5902    4.6134   53.3407 C   0  0  0  0  0  0  0  0  0  0  0  0
   22.0135    3.4234   52.9487 C   0  0  0  0  0  0  0  0  0  0  0  0
   20.6511    3.2556   53.0528 C   0  0  0  0  0  0  0  0  0  0  0  0
   19.8793    4.2960   53.5553 C   0  0  0  0  0  0  0  0  0  0  0  0
   18.4127    4.1393   53.6793 C   0  0  0  0  0  0  0  0  0  0  0  0
   20.4924    5.4940   53.9464 C   0  0  0  0  0  0  0  0  0  0  0  0
   19.9646    2.1259   52.6976 O   0  0  0  0  0  0  0  0  0  0  0  0
   20.4335    0.8384   52.9243 C   0  0  0  0  0  0  0  0  0  0  0  0
   20.5464    0.5734   54.3041 F   0  0  0  0  0  0  0  0  0  0  0  0
   21.7012    0.6437   52.3833 F   0  0  0  0  0  0  0  0  0  0  0  0
   25.8156    8.4664   54.8942 C   0  0  0  0  0  0  0  0  0  0  0  0
   26.7089    8.3116   53.8455 C   0  0  0  0  0  0  0  0  0  0  0  0
   28.0203    8.6199   53.9645 C   0  0  0  0  0  0  0  0  0  0  0  0
   28.4832    9.0939   55.1380 N   0  0  0  0  0  0  0  0  0  0  0  0
   27.6602    9.2633   56.1876 C   0  0  0  0  0  0  0  0  0  0  0  0
   28.2223    9.7952   57.4721 C   0  0  0  0  0  0  0  0  0  0  0  0
   26.3292    8.9535   56.0769 C   0  0  0  0  0  0  0  0  0  0  0  0
  1  2  1  0  0  0
  2  3  1  0  0  0
  3  4  1  0  0  0
  4  5  1  0  0  0
  5  6  1  0  0  0
  6  7  1  0  0  0
  7  8  1  0  0  0
  5  9  2  0  0  0
  9 10  1  0  0  0
 10 11  2  0  0  0
 11 12  1  0  0  0
 12 13  2  0  0  0
 13 14  1  0  0  0
 14 15  2  0  0  0
 15 19  1  0  0  0
 19 20  1  0  0  0
 20 21  1  0  0  0
 20 22  1  0  0  0
 15 16  1  0  0  0
 16 17  1  0  0  0
 16 18  2  0  0  0
  9 23  1  0  0  0
 23 24  2  0  0  0
 24 25  1  0  0  0
 25 26  2  0  0  0
 26 27  1  0  0  0
 27 28  1  0  0  0
 27 29  2  0  0  0
  8  2  1  0  0  0
 18 12  1  0  0  0
 29 23  1  0  0  0
 11  4  1  0  0  0
M  END
> <minimizedAffinity>
32.23493

> <CNNscore>
0.6185176969

> <CNNaffinity>
6.3131632805

> <CNN_VS>
3.9048032761

> <CNNaffinity_variance>
0.1798631251

$$$$
[H]c1nc(C([H])([H])[H])c([H])c(-c2nc(-c3c([H])c([H])c(OC([H])(F)F)c(C([H])([H])[H])c3[H])n3c2C([H])([H])C([H])([H])O[C@]([H])(C([H])([H])[H])C3([H])[H])c1[H]


 29 32  0  0  0  0  0  0  0  0999 V2000
   20.5989   10.2633   55.2419 C   0  0  0  0  0  0  0  0  0  0  0  0
   21.6038   10.0098   54.1687 C   0  0  0  0  0  0  0  0  0  0  0  0
   22.2650    8.6641   54.4182 C   0  0  0  0  0  0  0  0  0  0  0  0
   23.5840    8.7387   54.9545 N   0  0  0  0  0  0  0  0  0  0  0  0
   24.1085    9.7871   55.6779 C   0  0  0  0  0  0  0  0  0  0  0  0
   23.4018   11.0144   56.0712 C   0  0  0  0  0  0  0  0  0  0  0  0
   22.8950   11.8069   54.9099 C   0  0  0  0  0  0  0  0  0  0  0  0
   22.4943   10.9982   53.8993 O   0  0  0  0  0  0  0  0  0  0  0  0
   25.4131    9.5169   55.9833 C   0  0  0  0  0  0  0  0  0  0  0  0
   25.6600    8.3181   55.4446 N   0  0  0  0  0  0  0  0  0  0  0  0
   24.5427    7.8259   54.8102 C   0  0  0  0  0  0  0  0  0  0  0  0
   24.5478    6.5499   54.1164 C   0  0  0  0  0  0  0  0  0  0  0  0
   25.7521    6.1677   53.4934 C   0  0  0  0  0  0  0  0  0  0  0  0
   25.9056    4.9597   52.8458 C   0  0  0  0  0  0  0  0  0  0  0  0
   24.8539    4.0730   52.7921 C   0  0  0  0  0  0  0  0  0  0  0  0
   23.6507    4.4155   53.3966 C   0  0  0  0  0  0  0  0  0  0  0  0
   22.5058    3.4782   53.3546 C   0  0  0  0  0  0  0  0  0  0  0  0
   23.5234    5.6497   54.0481 C   0  0  0  0  0  0  0  0  0  0  0  0
   24.8832    2.8485   52.1810 O   0  0  0  0  0  0  0  0  0  0  0  0
   25.2864    1.6816   52.8171 C   0  0  0  0  0  0  0  0  0  0  0  0
   26.6442    1.4046   52.5594 F   0  0  0  0  0  0  0  0  0  0  0  0
   24.5699    0.5733   52.3740 F   0  0  0  0  0  0  0  0  0  0  0  0
   26.3731   10.3495   56.7286 C   0  0  0  0  0  0  0  0  0  0  0  0
   26.3831   11.7252   56.5580 C   0  0  0  0  0  0  0  0  0  0  0  0
   27.2718   12.5235   57.1920 C   0  0  0  0  0  0  0  0  0  0  0  0
   28.1818   11.9722   58.0190 N   0  0  0  0  0  0  0  0  0  0  0  0
   28.2165   10.6433   58.2206 C   0  0  0  0  0  0  0  0  0  0  0  0
   29.2470   10.0773   59.1515 C   0  0  0  0  0  0  0  0  0  0  0  0
   27.3200    9.8256   57.5824 C   0  0  0  0  0  0  0  0  0  0  0  0
  1  2  1  0  0  0
  2  3  1  0  0  0
  3  4  1  0  0  0
  4  5  1  0  0  0
  5  6  1  0  0  0
  6  7  1  0  0  0
  7  8  1  0  0  0
  5  9  2  0  0  0
  9 10  1  0  0  0
 10 11  2  0  0  0
 11 12  1  0  0  0
 12 13  2  0  0  0
 13 14  1  0  0  0
 14 15  2  0  0  0
 15 19  1  0  0  0
 19 20  1  0  0  0
 20 21  1  0  0  0
 20 22  1  0  0  0
 15 16  1  0  0  0
 16 17  1  0  0  0
 16 18  2  0  0  0
  9 23  1  0  0  0
 23 24  2  0  0  0
 24 25  1  0  0  0
 25 26  2  0  0  0
 26 27  1  0  0  0
 27 28  1  0  0  0
 27 29  2  0  0  0
  8  2  1  0  0  0
 18 12  1  0  0  0
 29 23  1  0  0  0
 11  4  1  0  0  0
M  END
> <minimizedAffinity>
61.66829

> <CNNscore>
0.5542902350

> <CNNaffinity>
5.5244569778

> <CNN_VS>
3.0621526241

> <CNNaffinity_variance>
0.7641342282

$$$$
[H]c1nc(C([H])([H])[H])c([H])c(-c2nc(-c3c([H])c([H])c(OC([H])(F)F)c(C([H])([H])[H])c3[H])n3c2C([H])([H])C([H])([H])O[C@]([H])(C([H])([H])[H])C3([H])[H])c1[H]


 29 32  0  0  0  0  0  0  0  0999 V2000
   20.5062   10.9439   56.2618 C   0  0  0  0  0  0  0  0  0  0  0  0
   20.4252   10.3591   54.8915 C   0  0  0  0  0  0  0  0  0  0  0  0
   20.4492    8.8431   54.9989 C   0  0  0  0  0  0  0  0  0  0  0  0
   21.6933    8.2408   54.6489 N   0  0  0  0  0  0  0  0  0  0  0  0
   22.9299    8.8463   54.6933 C   0  0  0  0  0  0  0  0  0  0  0  0
   23.2138   10.2158   55.1454 C   0  0  0  0  0  0  0  0  0  0  0  0
   22.5067   11.2638   54.3484 C   0  0  0  0  0  0  0  0  0  0  0  0
   21.2816   10.8398   53.9545 O   0  0  0  0  0  0  0  0  0  0  0  0
   23.8778    7.9705   54.2435 C   0  0  0  0  0  0  0  0  0  0  0  0
   23.2084    6.8548   53.9345 N   0  0  0  0  0  0  0  0  0  0  0  0
   21.8633    7.0057   54.1810 C   0  0  0  0  0  0  0  0  0  0  0  0
   20.9044    5.9503   53.9050 C   0  0  0  0  0  0  0  0  0  0  0  0
   19.5425    6.3104   53.9043 C   0  0  0  0  0  0  0  0  0  0  0  0
   18.5353    5.4161   53.6075 C   0  0  0  0  0  0  0  0  0  0  0  0
   18.8471    4.1121   53.2954 C   0  0  0  0  0  0  0  0  0  0  0  0
   20.1804    3.7209   53.2850 C   0  0  0  0  0  0  0  0  0  0  0  0
   20.5416    2.3250   52.9504 C   0  0  0  0  0  0  0  0  0  0  0  0
   21.1831    4.6511   53.5902 C   0  0  0  0  0  0  0  0  0  0  0  0
   17.9401    3.1353   52.9846 O   0  0  0  0  0  0  0  0  0  0  0  0
   16.5776    3.2452   53.2308 C   0  0  0  0  0  0  0  0  0  0  0  0
   16.3309    3.6373   54.5620 F   0  0  0  0  0  0  0  0  0  0  0  0
   15.9170    2.0331   53.0509 F   0  0  0  0  0  0  0  0  0  0  0  0
   25.3290    8.1812   54.1015 C   0  0  0  0  0  0  0  0  0  0  0  0
   25.9287    8.0892   52.8551 C   0  0  0  0  0  0  0  0  0  0  0  0
   27.2621    8.2370   52.6843 C   0  0  0  0  0  0  0  0  0  0  0  0
   28.0419    8.4818   53.7558 N   0  0  0  0  0  0  0  0  0  0  0  0
   27.5120    8.5806   54.9876 C   0  0  0  0  0  0  0  0  0  0  0  0
   28.4207    8.8557   56.1484 C   0  0  0  0  0  0  0  0  0  0  0  0
   26.1615    8.4323   55.1710 C   0  0  0  0  0  0  0  0  0  0  0  0
  1  2  1  0  0  0
  2  3  1  0  0  0
  3  4  1  0  0  0
  4  5  1  0  0  0
  5  6  1  0  0  0
  6  7  1  0  0  0
  7  8  1  0  0  0
  5  9  2  0  0  0
  9 10  1  0  0  0
 10 11  2  0  0  0
 11 12  1  0  0  0
 12 13  2  0  0  0
 13 14  1  0  0  0
 14 15  2  0  0  0
 15 19  1  0  0  0
 19 20  1  0  0  0
 20 21  1  0  0  0
 20 22  1  0  0  0
 15 16  1  0  0  0
 16 17  1  0  0  0
 16 18  2  0  0  0
  9 23  1  0  0  0
 23 24  2  0  0  0
 24 25  1  0  0  0
 25 26  2  0  0  0
 26 27  1  0  0  0
 27 28  1  0  0  0
 27 29  2  0  0  0
  8  2  1  0  0  0
 18 12  1  0  0  0
 29 23  1  0  0  0
 11  4  1  0  0  0
M  END
> <minimizedAffinity>
30.42724

> <CNNscore>
0.5137092471

> <CNNaffinity>
6.2768340111

> <CNN_VS>
3.2244677544

> <CNNaffinity_variance>
0.5100829601

$$$$
[H]c1nc(C([H])([H])[H])c([H])c(-c2nc(-c3c([H])c([H])c(OC([H])(F)F)c(C([H])([H])[H])c3[H])n3c2C([H])([H])C([H])([H])O[C@]([H])(C([H])([H])[H])C3([H])[H])c1[H]


 29 32  0  0  0  0  0  0  0  0999 V2000
   21.5928    4.7726   53.7514 C   0  0  0  0  0  0  0  0  0  0  0  0
   21.3053    6.1382   54.2793 C   0  0  0  0  0  0  0  0  0  0  0  0
   21.5896    7.1593   53.1899 C   0  0  0  0  0  0  0  0  0  0  0  0
   22.8049    7.8860   53.3570 N   0  0  0  0  0  0  0  0  0  0  0  0
   23.9104    7.4680   54.0648 C   0  0  0  0  0  0  0  0  0  0  0  0
   24.0686    6.1785   54.7523 C   0  0  0  0  0  0  0  0  0  0  0  0
   23.0483    5.9442   55.8188 C   0  0  0  0  0  0  0  0  0  0  0  0
   21.8485    6.4731   55.4772 O   0  0  0  0  0  0  0  0  0  0  0  0
   24.8616    8.4491   54.0372 C   0  0  0  0  0  0  0  0  0  0  0  0
   24.3240    9.4410   53.3193 N   0  0  0  0  0  0  0  0  0  0  0  0
   23.0593    9.1076   52.8921 C   0  0  0  0  0  0  0  0  0  0  0  0
   22.2408   10.0215   52.1147 C   0  0  0  0  0  0  0  0  0  0  0  0
   21.2739    9.4472   51.2664 C   0  0  0  0  0  0  0  0  0  0  0  0
   20.3994   10.2029   50.5137 C   0  0  0  0  0  0  0  0  0  0  0  0
   20.4529   11.5771   50.5765 C   0  0  0  0  0  0  0  0  0  0  0  0
   21.3932   12.1790   51.4036 C   0  0  0  0  0  0  0  0  0  0  0  0
   21.4691   13.6547   51.4902 C   0  0  0  0  0  0  0  0  0  0  0  0
   22.2689   11.3861   52.1575 C   0  0  0  0  0  0  0  0  0  0  0  0
   19.6420   12.4321   49.8800 O   0  0  0  0  0  0  0  0  0  0  0  0
   20.0131   13.0454   48.6904 C   0  0  0  0  0  0  0  0  0  0  0  0
   19.9870   14.4494   48.8119 F   0  0  0  0  0  0  0  0  0  0  0  0
   19.1468   12.7265   47.6484 F   0  0  0  0  0  0  0  0  0  0  0  0
   26.1946    8.4535   54.6644 C   0  0  0  0  0  0  0  0  0  0  0  0
   27.2786    7.8969   54.0034 C   0  0  0  0  0  0  0  0  0  0  0  0
   28.5111    7.8446   54.5575 C   0  0  0  0  0  0  0  0  0  0  0  0
   28.7015    8.3477   55.7931 N   0  0  0  0  0  0  0  0  0  0  0  0
   27.6847    8.8989   56.4787 C   0  0  0  0  0  0  0  0  0  0  0  0
   27.9468    9.4467   57.8499 C   0  0  0  0  0  0  0  0  0  0  0  0
   26.4315    8.9566   55.9257 C   0  0  0  0  0  0  0  0  0  0  0  0
  1  2  1  0  0  0
  2  3  1  0  0  0
  3  4  1  0  0  0
  4  5  1  0  0  0
  5  6  1  0  0  0
  6  7  1  0  0  0
  7  8  1  0  0  0
  5  9  2  0  0  0
  9 10  1  0  0  0
 10 11  2  0  0  0
 11 12  1  0  0  0
 12 13  2  0  0  0
 13 14  1  0  0  0
 14 15  2  0  0  0
 15 19  1  0  0  0
 19 20  1  0  0  0
 20 21  1  0  0  0
 20 22  1  0  0  0
 15 16  1  0  0  0
 16 17  1  0  0  0
 16 18  2  0  0  0
  9 23  1  0  0  0
 23 24  2  0  0  0
 24 25  1  0  0  0
 25 26  2  0  0  0
 26 27  1  0  0  0
 27 28  1  0  0  0
 27 29  2  0  0  0
  8  2  1  0  0  0
 18 12  1  0  0  0
 29 23  1  0  0  0
 11  4  1  0  0  0
M  END
> <minimizedAffinity>
37.09379

> <CNNscore>
0.5126163363

> <CNNaffinity>
6.0268969536

> <CNN_VS>
3.0894858837

> <CNNaffinity_variance>
0.3967984021

$$$$
[H]c1nc(C([H])([H])[H])c([H])c(-c2nc(-c3c([H])c([H])c(OC([H])(F)F)c(C([H])([H])[H])c3[H])n3c2C([H])([H])C([H])([H])O[C@]([H])(C([H])([H])[H])C3([H])[H])c1[H]


 29 32  0  0  0  0  0  0  0  0999 V2000
   21.1185   10.6454   51.3933 C   0  0  0  0  0  0  0  0  0  0  0  0
   21.5238   10.4041   52.8088 C   0  0  0  0  0  0  0  0  0  0  0  0
   22.8508    9.6631   52.8236 C   0  0  0  0  0  0  0  0  0  0  0  0
   22.7542    8.2742   53.1310 N   0  0  0  0  0  0  0  0  0  0  0  0
   21.6454    7.4772   52.9487 C   0  0  0  0  0  0  0  0  0  0  0  0
   20.3605    7.8915   52.3675 C   0  0  0  0  0  0  0  0  0  0  0  0
   19.6924    8.9927   53.1253 C   0  0  0  0  0  0  0  0  0  0  0  0
   20.6000    9.8576   53.6395 O   0  0  0  0  0  0  0  0  0  0  0  0
   21.9174    6.2157   53.3988 C   0  0  0  0  0  0  0  0  0  0  0  0
   23.1771    6.2646   53.8448 N   0  0  0  0  0  0  0  0  0  0  0  0
   23.7057    7.5247   53.6843 C   0  0  0  0  0  0  0  0  0  0  0  0
   25.0527    7.8575   54.1134 C   0  0  0  0  0  0  0  0  0  0  0  0
   26.0748    7.7441   53.1507 C   0  0  0  0  0  0  0  0  0  0  0  0
   27.3870    8.0778   53.4138 C   0  0  0  0  0  0  0  0  0  0  0  0
   27.7383    8.5436   54.6607 C   0  0  0  0  0  0  0  0  0  0  0  0
   26.7563    8.6698   55.6355 C   0  0  0  0  0  0  0  0  0  0  0  0
   27.1084    9.1705   56.9832 C   0  0  0  0  0  0  0  0  0  0  0  0
   25.4309    8.3237   55.3399 C   0  0  0  0  0  0  0  0  0  0  0  0
   29.0022    8.9055   55.0418 O   0  0  0  0  0  0  0  0  0  0  0  0
   29.5666   10.1420   54.7564 C   0  0  0  0  0  0  0  0  0  0  0  0
   29.1277   11.1243   55.6671 F   0  0  0  0  0  0  0  0  0  0  0  0
   29.2111   10.5962   53.4894 F   0  0  0  0  0  0  0  0  0  0  0  0
   21.0333    5.0373   53.4184 C   0  0  0  0  0  0  0  0  0  0  0  0
   21.5008    3.8070   52.9832 C   0  0  0  0  0  0  0  0  0  0  0  0
   20.7130    2.7083   52.9476 C   0  0  0  0  0  0  0  0  0  0  0  0
   19.4293    2.8031   53.3464 N   0  0  0  0  0  0  0  0  0  0  0  0
   18.9245    3.9723   53.7776 C   0  0  0  0  0  0  0  0  0  0  0  0
   17.4903    4.0272   54.2125 C   0  0  0  0  0  0  0  0  0  0  0  0
   19.7150    5.0918   53.8173 C   0  0  0  0  0  0  0  0  0  0  0  0
  1  2  1  0  0  0
  2  3  1  0  0  0
  3  4  1  0  0  0
  4  5  1  0  0  0
  5  6  1  0  0  0
  6  7  1  0  0  0
  7  8  1  0  0  0
  5  9  2  0  0  0
  9 10  1  0  0  0
 10 11  2  0  0  0
 11 12  1  0  0  0
 12 13  2  0  0  0
 13 14  1  0  0  0
 14 15  2  0  0  0
 15 19  1  0  0  0
 19 20  1  0  0  0
 20 21  1  0  0  0
 20 22  1  0  0  0
 15 16  1  0  0  0
 16 17  1  0  0  0
 16 18  2  0  0  0
  9 23  1  0  0  0
 23 24  2  0  0  0
 24 25  1  0  0  0
 25 26  2  0  0  0
 26 27  1  0  0  0
 27 28  1  0  0  0
 27 29  2  0  0  0
  8  2  1  0  0  0
 18 12  1  0  0  0
 29 23  1  0  0  0
 11  4  1  0  0  0
M  END
> <minimizedAffinity>
30.17677

> <CNNscore>
0.4803542793

> <CNNaffinity>
6.3424863815

> <CNN_VS>
3.0466403961

> <CNNaffinity_variance>
0.7478047013

$$$$
[H]c1nc(C([H])([H])[H])c([H])c(-c2nc(-c3c([H])c([H])c(OC([H])(F)F)c(C([H])([H])[H])c3[H])n3c2C([H])([H])C([H])([H])O[C@]([H])(C([H])([H])[H])C3([H])[H])c1[H]


 29 32  0  0  0  0  0  0  0  0999 V2000
   21.9121    4.9737   53.2922 C   0  0  0  0  0  0  0  0  0  0  0  0
   21.5894    6.1477   54.1546 C   0  0  0  0  0  0  0  0  0  0  0  0
   21.7960    7.4221   53.3523 C   0  0  0  0  0  0  0  0  0  0  0  0
   22.9868    8.1392   53.6694 N   0  0  0  0  0  0  0  0  0  0  0  0
   24.1314    7.6086   54.2228 C   0  0  0  0  0  0  0  0  0  0  0  0
   24.3635    6.1965   54.5582 C   0  0  0  0  0  0  0  0  0  0  0  0
   23.3903    5.6542   55.5542 C   0  0  0  0  0  0  0  0  0  0  0  0
   22.1597    6.1955   55.3853 O   0  0  0  0  0  0  0  0  0  0  0  0
   25.0418    8.6084   54.4220 C   0  0  0  0  0  0  0  0  0  0  0  0
   24.4414    9.7228   53.9907 N   0  0  0  0  0  0  0  0  0  0  0  0
   23.1770    9.4490   53.5227 C   0  0  0  0  0  0  0  0  0  0  0  0
   22.2971   10.4898   53.0207 C   0  0  0  0  0  0  0  0  0  0  0  0
   21.9216   11.4997   53.9283 C   0  0  0  0  0  0  0  0  0  0  0  0
   21.1327   12.5715   53.5662 C   0  0  0  0  0  0  0  0  0  0  0  0
   20.6808   12.6825   52.2707 C   0  0  0  0  0  0  0  0  0  0  0  0
   21.0321   11.7055   51.3472 C   0  0  0  0  0  0  0  0  0  0  0  0
   20.5607   11.8035   49.9475 C   0  0  0  0  0  0  0  0  0  0  0  0
   21.8355   10.6276   51.7431 C   0  0  0  0  0  0  0  0  0  0  0  0
   19.8945   13.6955   51.7920 O   0  0  0  0  0  0  0  0  0  0  0  0
   20.3933   14.8023   51.1173 C   0  0  0  0  0  0  0  0  0  0  0  0
   19.9725   14.8107   49.7721 F   0  0  0  0  0  0  0  0  0  0  0  0
   21.7851   14.8126   51.0922 F   0  0  0  0  0  0  0  0  0  0  0  0
   26.3944    8.5171   54.9989 C   0  0  0  0  0  0  0  0  0  0  0  0
   27.4354    7.9830   54.2554 C   0  0  0  0  0  0  0  0  0  0  0  0
   28.6831    7.8446   54.7584 C   0  0  0  0  0  0  0  0  0  0  0  0
   28.9322    8.2359   56.0236 N   0  0  0  0  0  0  0  0  0  0  0  0
   27.9588    8.7603   56.7888 C   0  0  0  0  0  0  0  0  0  0  0  0
   28.2856    9.1825   58.1901 C   0  0  0  0  0  0  0  0  0  0  0  0
   26.6907    8.9047   56.2881 C   0  0  0  0  0  0  0  0  0  0  0  0
  1  2  1  0  0  0
  2  3  1  0  0  0
  3  4  1  0  0  0
  4  5  1  0  0  0
  5  6  1  0  0  0
  6  7  1  0  0  0
  7  8  1  0  0  0
  5  9  2  0  0  0
  9 10  1  0  0  0
 10 11  2  0  0  0
 11 12  1  0  0  0
 12 13  2  0  0  0
 13 14  1  0  0  0
 14 15  2  0  0  0
 15 19  1  0  0  0
 19 20  1  0  0  0
 20 21  1  0  0  0
 20 22  1  0  0  0
 15 16  1  0  0  0
 16 17  1  0  0  0
 16 18  2  0  0  0
  9 23  1  0  0  0
 23 24  2  0  0  0
 24 25  1  0  0  0
 25 26  2  0  0  0
 26 27  1  0  0  0
 27 28  1  0  0  0
 27 29  2  0  0  0
  8  2  1  0  0  0
 18 12  1  0  0  0
 29 23  1  0  0  0
 11  4  1  0  0  0
M  END
> <minimizedAffinity>
33.04843

> <CNNscore>
0.4717151225

> <CNNaffinity>
5.7162904739

> <CNN_VS>
2.6964607239

> <CNNaffinity_variance>
0.1759616435

$$$$
[H]c1nc(C([H])([H])[H])c([H])c(-c2nc(-c3c([H])c([H])c(OC([H])(F)F)c(C([H])([H])[H])c3[H])n3c2C([H])([H])C([H])([H])O[C@]([H])(C([H])([H])[H])C3([H])[H])c1[H]


 29 32  0  0  0  0  0  0  0  0999 V2000
   21.3341   10.3773   50.6872 C   0  0  0  0  0  0  0  0  0  0  0  0
   21.4568   10.3408   52.1737 C   0  0  0  0  0  0  0  0  0  0  0  0
   22.7604    9.6531   52.5454 C   0  0  0  0  0  0  0  0  0  0  0  0
   22.6151    8.3152   53.0162 N   0  0  0  0  0  0  0  0  0  0  0  0
   21.5687    7.4644   52.7351 C   0  0  0  0  0  0  0  0  0  0  0  0
   20.4192    7.7542   51.8662 C   0  0  0  0  0  0  0  0  0  0  0  0
   19.6086    8.9238   52.3226 C   0  0  0  0  0  0  0  0  0  0  0  0
   20.3923    9.8794   52.8781 O   0  0  0  0  0  0  0  0  0  0  0  0
   21.7561    6.2840   53.3982 C   0  0  0  0  0  0  0  0  0  0  0  0
   22.9041    6.4341   54.0673 N   0  0  0  0  0  0  0  0  0  0  0  0
   23.4453    7.6785   53.8400 C   0  0  0  0  0  0  0  0  0  0  0  0
   24.6803    8.1104   54.4705 C   0  0  0  0  0  0  0  0  0  0  0  0
   24.5614    8.9023   55.6295 C   0  0  0  0  0  0  0  0  0  0  0  0
   25.6537    9.3352   56.3518 C   0  0  0  0  0  0  0  0  0  0  0  0
   26.9234    8.9927   55.9446 C   0  0  0  0  0  0  0  0  0  0  0  0
   27.0794    8.2114   54.8063 C   0  0  0  0  0  0  0  0  0  0  0  0
   28.4341    7.8278   54.3494 C   0  0  0  0  0  0  0  0  0  0  0  0
   25.9514    7.7853   54.0921 C   0  0  0  0  0  0  0  0  0  0  0  0
   28.0815    9.3601   56.5750 O   0  0  0  0  0  0  0  0  0  0  0  0
   28.1616    9.6416   57.9327 C   0  0  0  0  0  0  0  0  0  0  0  0
   28.8494   10.8503   58.1622 F   0  0  0  0  0  0  0  0  0  0  0  0
   28.8578    8.6569   58.6279 F   0  0  0  0  0  0  0  0  0  0  0  0
   20.8932    5.0899   53.4089 C   0  0  0  0  0  0  0  0  0  0  0  0
   21.3773    3.8751   52.9489 C   0  0  0  0  0  0  0  0  0  0  0  0
   20.6087    2.7633   52.9047 C   0  0  0  0  0  0  0  0  0  0  0  0
   19.3282    2.8289   53.3194 N   0  0  0  0  0  0  0  0  0  0  0  0
   18.8078    3.9820   53.7748 C   0  0  0  0  0  0  0  0  0  0  0  0
   17.3780    4.0044   54.2266 C   0  0  0  0  0  0  0  0  0  0  0  0
   19.5788    5.1146   53.8234 C   0  0  0  0  0  0  0  0  0  0  0  0
  1  2  1  0  0  0
  2  3  1  0  0  0
  3  4  1  0  0  0
  4  5  1  0  0  0
  5  6  1  0  0  0
  6  7  1  0  0  0
  7  8  1  0  0  0
  5  9  2  0  0  0
  9 10  1  0  0  0
 10 11  2  0  0  0
 11 12  1  0  0  0
 12 13  2  0  0  0
 13 14  1  0  0  0
 14 15  2  0  0  0
 15 19  1  0  0  0
 19 20  1  0  0  0
 20 21  1  0  0  0
 20 22  1  0  0  0
 15 16  1  0  0  0
 16 17  1  0  0  0
 16 18  2  0  0  0
  9 23  1  0  0  0
 23 24  2  0  0  0
 24 25  1  0  0  0
 25 26  2  0  0  0
 26 27  1  0  0  0
 27 28  1  0  0  0
 27 29  2  0  0  0
  8  2  1  0  0  0
 18 12  1  0  0  0
 29 23  1  0  0  0
 11  4  1  0  0  0
M  END
> <minimizedAffinity>
26.46843

> <CNNscore>
0.4653863609

> <CNNaffinity>
6.3434429169

> <CNN_VS>
2.9521517754

> <CNNaffinity_variance>
0.6333858371

$$$$
[H]c1nc(C([H])([H])[H])c([H])c(-c2nc(-c3c([H])c([H])c(OC([H])(F)F)c(C([H])([H])[H])c3[H])n3c2C([H])([H])C([H])([H])O[C@]([H])(C([H])([H])[H])C3([H])[H])c1[H]


 29 32  0  0  0  0  0  0  0  0999 V2000
   22.1539    4.7737   54.5871 C   0  0  0  0  0  0  0  0  0  0  0  0
   23.3863    5.3175   53.9456 C   0  0  0  0  0  0  0  0  0  0  0  0
   23.9356    6.4439   54.8058 C   0  0  0  0  0  0  0  0  0  0  0  0
   23.6878    7.7542   54.3010 N   0  0  0  0  0  0  0  0  0  0  0  0
   22.6668    8.1172   53.4504 C   0  0  0  0  0  0  0  0  0  0  0  0
   21.6126    7.2360   52.9282 C   0  0  0  0  0  0  0  0  0  0  0  0
   22.1389    6.0876   52.1297 C   0  0  0  0  0  0  0  0  0  0  0  0
   23.3162    5.6394   52.6288 O   0  0  0  0  0  0  0  0  0  0  0  0
   22.7786    9.4465   53.1525 C   0  0  0  0  0  0  0  0  0  0  0  0
   23.8575    9.8678   53.8208 N   0  0  0  0  0  0  0  0  0  0  0  0
   24.4261    8.8376   54.5339 C   0  0  0  0  0  0  0  0  0  0  0  0
   25.6294    9.0192   55.3267 C   0  0  0  0  0  0  0  0  0  0  0  0
   25.4613    9.5024   56.6392 C   0  0  0  0  0  0  0  0  0  0  0  0
   26.5157    9.6709   57.5122 C   0  0  0  0  0  0  0  0  0  0  0  0
   27.7949    9.3612   57.1089 C   0  0  0  0  0  0  0  0  0  0  0  0
   27.9990    8.8808   55.8211 C   0  0  0  0  0  0  0  0  0  0  0  0
   29.3647    8.5384   55.3645 C   0  0  0  0  0  0  0  0  0  0  0  0
   26.9088    8.7190   54.9556 C   0  0  0  0  0  0  0  0  0  0  0  0
   28.9186    9.4854   57.8805 O   0  0  0  0  0  0  0  0  0  0  0  0
   29.2037   10.6071   58.6482 C   0  0  0  0  0  0  0  0  0  0  0  0
   28.9894   10.3542   60.0182 F   0  0  0  0  0  0  0  0  0  0  0  0
   28.3879   11.6853   58.3169 F   0  0  0  0  0  0  0  0  0  0  0  0
   21.9234   10.2662   52.2766 C   0  0  0  0  0  0  0  0  0  0  0  0
   21.0009    9.6610   51.4373 C   0  0  0  0  0  0  0  0  0  0  0  0
   20.2232   10.3718   50.5894 C   0  0  0  0  0  0  0  0  0  0  0  0
   20.3421   11.7136   50.5520 N   0  0  0  0  0  0  0  0  0  0  0  0
   21.2211   12.3515   51.3446 C   0  0  0  0  0  0  0  0  0  0  0  0
   21.3155   13.8462   51.2678 C   0  0  0  0  0  0  0  0  0  0  0  0
   22.0140   11.6399   52.2075 C   0  0  0  0  0  0  0  0  0  0  0  0
  1  2  1  0  0  0
  2  3  1  0  0  0
  3  4  1  0  0  0
  4  5  1  0  0  0
  5  6  1  0  0  0
  6  7  1  0  0  0
  7  8  1  0  0  0
  5  9  2  0  0  0
  9 10  1  0  0  0
 10 11  2  0  0  0
 11 12  1  0  0  0
 12 13  2  0  0  0
 13 14  1  0  0  0
 14 15  2  0  0  0
 15 19  1  0  0  0
 19 20  1  0  0  0
 20 21  1  0  0  0
 20 22  1  0  0  0
 15 16  1  0  0  0
 16 17  1  0  0  0
 16 18  2  0  0  0
  9 23  1  0  0  0
 23 24  2  0  0  0
 24 25  1  0  0  0
 25 26  2  0  0  0
 26 27  1  0  0  0
 27 28  1  0  0  0
 27 29  2  0  0  0
  8  2  1  0  0  0
 18 12  1  0  0  0
 29 23  1  0  0  0
 11  4  1  0  0  0
M  END
> <minimizedAffinity>
32.20710

> <CNNscore>
0.4527956247

> <CNNaffinity>
5.9830694199

> <CNN_VS>
2.7091076374

> <CNNaffinity_variance>
0.5548981428

$$$$
[H]c1nc(C([H])([H])[H])c([H])c(-c2nc(-c3c([H])c([H])c(OC([H])(F)F)c(C([H])([H])[H])c3[H])n3c2C([H])([H])C([H])([H])O[C@]([H])(C([H])([H])[H])C3([H])[H])c1[H]


 29 32  0  0  0  0  0  0  0  0999 V2000
   28.4906    8.8233   51.9244 C   0  0  0  0  0  0  0  0  0  0  0  0
   27.7151    7.8356   52.7300 C   0  0  0  0  0  0  0  0  0  0  0  0
   26.4118    8.4771   53.1776 C   0  0  0  0  0  0  0  0  0  0  0  0
   26.3833    8.8757   54.5462 N   0  0  0  0  0  0  0  0  0  0  0  0
   27.4773    9.1757   55.3278 C   0  0  0  0  0  0  0  0  0  0  0  0
   28.8821    9.1813   54.8953 C   0  0  0  0  0  0  0  0  0  0  0  0
   29.3543    7.8561   54.3909 C   0  0  0  0  0  0  0  0  0  0  0  0
   28.3673    7.1986   53.7355 O   0  0  0  0  0  0  0  0  0  0  0  0
   27.0592    9.4725   56.5948 C   0  0  0  0  0  0  0  0  0  0  0  0
   25.7281    9.3489   56.5646 N   0  0  0  0  0  0  0  0  0  0  0  0
   25.2976    8.9843   55.3097 C   0  0  0  0  0  0  0  0  0  0  0  0
   23.8949    8.7554   55.0106 C   0  0  0  0  0  0  0  0  0  0  0  0
   23.5484    7.4837   54.5133 C   0  0  0  0  0  0  0  0  0  0  0  0
   22.2466    7.1205   54.2378 C   0  0  0  0  0  0  0  0  0  0  0  0
   21.2255    8.0193   54.4490 C   0  0  0  0  0  0  0  0  0  0  0  0
   21.5295    9.2831   54.9400 C   0  0  0  0  0  0  0  0  0  0  0  0
   20.4491   10.2665   55.1778 C   0  0  0  0  0  0  0  0  0  0  0  0
   22.8612    9.6246   55.2116 C   0  0  0  0  0  0  0  0  0  0  0  0
   19.8989    7.7776   54.2143 O   0  0  0  0  0  0  0  0  0  0  0  0
   19.4263    7.1078   53.0931 C   0  0  0  0  0  0  0  0  0  0  0  0
   19.7716    5.7418   53.1332 F   0  0  0  0  0  0  0  0  0  0  0  0
   19.9705    7.6147   51.9164 F   0  0  0  0  0  0  0  0  0  0  0  0
   27.8721    9.8379   57.7679 C   0  0  0  0  0  0  0  0  0  0  0  0
   28.5002    8.8539   58.5154 C   0  0  0  0  0  0  0  0  0  0  0  0
   29.2237    9.1407   59.6214 C   0  0  0  0  0  0  0  0  0  0  0  0
   29.3434   10.4231   60.0179 N   0  0  0  0  0  0  0  0  0  0  0  0
   28.7546   11.4168   59.3296 C   0  0  0  0  0  0  0  0  0  0  0  0
   28.9182   12.8280   59.8096 C   0  0  0  0  0  0  0  0  0  0  0  0
   28.0190   11.1362   58.2072 C   0  0  0  0  0  0  0  0  0  0  0  0
  1  2  1  0  0  0
  2  3  1  0  0  0
  3  4  1  0  0  0
  4  5  1  0  0  0
  5  6  1  0  0  0
  6  7  1  0  0  0
  7  8  1  0  0  0
  5  9  2  0  0  0
  9 10  1  0  0  0
 10 11  2  0  0  0
 11 12  1  0  0  0
 12 13  2  0  0  0
 13 14  1  0  0  0
 14 15  2  0  0  0
 15 19  1  0  0  0
 19 20  1  0  0  0
 20 21  1  0  0  0
 20 22  1  0  0  0
 15 16  1  0  0  0
 16 17  1  0  0  0
 16 18  2  0  0  0
  9 23  1  0  0  0
 23 24  2  0  0  0
 24 25  1  0  0  0
 25 26  2  0  0  0
 26 27  1  0  0  0
 27 28  1  0  0  0
 27 29  2  0  0  0
  8  2  1  0  0  0
 18 12  1  0  0  0
 29 23  1  0  0  0
 11  4  1  0  0  0
M  END
> <minimizedAffinity>
18.77608

> <CNNscore>
0.4270957410

> <CNNaffinity>
5.9433541298

> <CNN_VS>
2.5383813381

> <CNNaffinity_variance>
0.2354431450

$$$$
[H]c1nc(C([H])([H])[H])c([H])c(-c2nc(-c3c([H])c([H])c(F)c(OC([H])(F)F)c3[H])n3c2C([H])([H])C([H])([H])O[C@]([H])(C([H])([H])[H])C3([H])[H])c1[H]


 29 32  0  0  0  0  0  0  0  0999 V2000
   21.2355   11.4349   55.1082 C   0  0  0  0  0  0  0  0  0  0  0  0
   21.7101   10.0219   55.0943 C   0  0  0  0  0  0  0  0  0  0  0  0
   22.2955    9.6679   53.7415 C   0  0  0  0  0  0  0  0  0  0  0  0
   22.4160    8.2246   53.6871 N   0  0  0  0  0  0  0  0  0  0  0  0
   21.3399    7.3506   53.5816 C   0  0  0  0  0  0  0  0  0  0  0  0
   19.9205    7.7998   53.5499 C   0  0  0  0  0  0  0  0  0  0  0  0
   19.7199    8.9632   54.5124 C   0  0  0  0  0  0  0  0  0  0  0  0
   20.7221    9.0904   55.4485 O   0  0  0  0  0  0  0  0  0  0  0  0
   21.7774    6.0769   53.5013 C   0  0  0  0  0  0  0  0  0  0  0  0
   23.1164    6.1500   53.5560 N   0  0  0  0  0  0  0  0  0  0  0  0
   23.5160    7.4676   53.6731 C   0  0  0  0  0  0  0  0  0  0  0  0
   24.9138    7.8258   53.7163 C   0  0  0  0  0  0  0  0  0  0  0  0
   25.5165    7.9361   54.9763 C   0  0  0  0  0  0  0  0  0  0  0  0
   26.8187    8.3246   55.1259 C   0  0  0  0  0  0  0  0  0  0  0  0
   27.5603    8.6162   54.0076 C   0  0  0  0  0  0  0  0  0  0  0  0
   28.8535    8.9967   54.2288 F   0  0  0  0  0  0  0  0  0  0  0  0
   27.0349    8.5301   52.7548 C   0  0  0  0  0  0  0  0  0  0  0  0
   25.6711    8.1219   52.6370 C   0  0  0  0  0  0  0  0  0  0  0  0
   27.6912    8.7961   51.6311 O   0  0  0  0  0  0  0  0  0  0  0  0
   27.7794    9.7770   50.6962 C   0  0  0  0  0  0  0  0  0  0  0  0
   28.7777   10.7236   50.9853 F   0  0  0  0  0  0  0  0  0  0  0  0
   28.1018    9.2442   49.4282 F   0  0  0  0  0  0  0  0  0  0  0  0
   20.9720    4.8598   53.3536 C   0  0  0  0  0  0  0  0  0  0  0  0
   21.4384    3.6803   52.8657 C   0  0  0  0  0  0  0  0  0  0  0  0
   20.5753    2.5988   52.8015 C   0  0  0  0  0  0  0  0  0  0  0  0
   19.2908    2.6775   53.2051 N   0  0  0  0  0  0  0  0  0  0  0  0
   18.7949    3.8313   53.6932 C   0  0  0  0  0  0  0  0  0  0  0  0
   17.4029    3.9878   54.1512 C   0  0  0  0  0  0  0  0  0  0  0  0
   19.6353    4.9079   53.7631 C   0  0  0  0  0  0  0  0  0  0  0  0
  1  2  1  0  0  0
  2  3  1  0  0  0
  3  4  1  0  0  0
  4  5  1  0  0  0
  5  6  1  0  0  0
  6  7  1  0  0  0
  7  8  1  0  0  0
  5  9  2  0  0  0
  9 10  1  0  0  0
 10 11  2  0  0  0
 11 12  1  0  0  0
 12 13  2  0  0  0
 13 14  1  0  0  0
 14 15  2  0  0  0
 15 16  1  0  0  0
 15 17  1  0  0  0
 17 19  1  0  0  0
 19 20  1  0  0  0
 20 21  1  0  0  0
 20 22  1  0  0  0
 17 18  2  0  0  0
  9 23  1  0  0  0
 23 24  2  0  0  0
 24 25  1  0  0  0
 25 26  2  0  0  0
 26 27  1  0  0  0
 27 28  1  0  0  0
 27 29  2  0  0  0
  8  2  1  0  0  0
 18 12  1  0  0  0
 29 23  1  0  0  0
 11  4  1  0  0  0
M  END
> <minimizedAffinity>
28.50749

> <CNNscore>
0.5826681852

> <CNNaffinity>
6.5449457169

> <CNN_VS>
3.8135316372

> <CNNaffinity_variance>
0.8010542989

$$$$
[H]c1nc(C([H])([H])[H])c([H])c(-c2nc(-c3c([H])c([H])c(F)c(OC([H])(F)F)c3[H])n3c2C([H])([H])C([H])([H])O[C@]([H])(C([H])([H])[H])C3([H])[H])c1[H]


 29 32  0  0  0  0  0  0  0  0999 V2000
   20.3784    5.1526   54.3334 C   0  0  0  0  0  0  0  0  0  0  0  0
   21.2606    6.3488   54.4460 C   0  0  0  0  0  0  0  0  0  0  0  0
   21.9210    6.6531   53.1159 C   0  0  0  0  0  0  0  0  0  0  0  0
   22.9993    7.5870   53.3725 N   0  0  0  0  0  0  0  0  0  0  0  0
   24.1851    7.2581   54.0198 C   0  0  0  0  0  0  0  0  0  0  0  0
   24.4718    5.9019   54.5639 C   0  0  0  0  0  0  0  0  0  0  0  0
   23.2107    5.3092   55.1788 C   0  0  0  0  0  0  0  0  0  0  0  0
   22.2335    6.2407   55.4515 O   0  0  0  0  0  0  0  0  0  0  0  0
   25.0084    8.3261   54.0597 C   0  0  0  0  0  0  0  0  0  0  0  0
   24.3458    9.3172   53.4432 N   0  0  0  0  0  0  0  0  0  0  0  0
   23.1085    8.8705   53.0205 C   0  0  0  0  0  0  0  0  0  0  0  0
   22.2076    9.7342   52.2948 C   0  0  0  0  0  0  0  0  0  0  0  0
   21.1995    9.1276   51.5340 C   0  0  0  0  0  0  0  0  0  0  0  0
   20.3324    9.8552   50.7672 C   0  0  0  0  0  0  0  0  0  0  0  0
   20.4520   11.2228   50.7408 C   0  0  0  0  0  0  0  0  0  0  0  0
   19.5534   11.8877   49.9555 F   0  0  0  0  0  0  0  0  0  0  0  0
   21.4099   11.8741   51.4557 C   0  0  0  0  0  0  0  0  0  0  0  0
   22.2986   11.0815   52.2447 C   0  0  0  0  0  0  0  0  0  0  0  0
   21.5841   13.1907   51.4779 O   0  0  0  0  0  0  0  0  0  0  0  0
   20.8477   14.3293   51.4057 C   0  0  0  0  0  0  0  0  0  0  0  0
   20.1197   14.4380   50.2081 F   0  0  0  0  0  0  0  0  0  0  0  0
   19.8959   14.3868   52.4480 F   0  0  0  0  0  0  0  0  0  0  0  0
   26.3594    8.3961   54.6269 C   0  0  0  0  0  0  0  0  0  0  0  0
   27.4891    8.0058   53.9801 C   0  0  0  0  0  0  0  0  0  0  0  0
   28.7074    8.1480   54.6236 C   0  0  0  0  0  0  0  0  0  0  0  0
   28.8094    8.6588   55.8677 N   0  0  0  0  0  0  0  0  0  0  0  0
   27.7101    9.0551   56.5385 C   0  0  0  0  0  0  0  0  0  0  0  0
   27.7486    9.6207   57.8988 C   0  0  0  0  0  0  0  0  0  0  0  0
   26.4999    8.9211   55.9158 C   0  0  0  0  0  0  0  0  0  0  0  0
  1  2  1  0  0  0
  2  3  1  0  0  0
  3  4  1  0  0  0
  4  5  1  0  0  0
  5  6  1  0  0  0
  6  7  1  0  0  0
  7  8  1  0  0  0
  5  9  2  0  0  0
  9 10  1  0  0  0
 10 11  2  0  0  0
 11 12  1  0  0  0
 12 13  2  0  0  0
 13 14  1  0  0  0
 14 15  2  0  0  0
 15 16  1  0  0  0
 15 17  1  0  0  0
 17 19  1  0  0  0
 19 20  1  0  0  0
 20 21  1  0  0  0
 20 22  1  0  0  0
 17 18  2  0  0  0
  9 23  1  0  0  0
 23 24  2  0  0  0
 24 25  1  0  0  0
 25 26  2  0  0  0
 26 27  1  0  0  0
 27 28  1  0  0  0
 27 29  2  0  0  0
  8  2  1  0  0  0
 18 12  1  0  0  0
 29 23  1  0  0  0
 11  4  1  0  0  0
M  END
> <minimizedAffinity>
26.24108

> <CNNscore>
0.5528928041

> <CNNaffinity>
5.9931449890

> <CNN_VS>
3.3135666847

> <CNNaffinity_variance>
0.2457964718

$$$$
[H]c1nc(C([H])([H])[H])c([H])c(-c2nc(-c3c([H])c([H])c(F)c(OC([H])(F)F)c3[H])n3c2C([H])([H])C([H])([H])O[C@]([H])(C([H])([H])[H])C3([H])[H])c1[H]


 29 32  0  0  0  0  0  0  0  0999 V2000
   19.6731   10.6297   55.2146 C   0  0  0  0  0  0  0  0  0  0  0  0
   20.7785    9.8400   54.6011 C   0  0  0  0  0  0  0  0  0  0  0  0
   21.1278    8.6464   55.4679 C   0  0  0  0  0  0  0  0  0  0  0  0
   22.4020    8.1340   55.0048 N   0  0  0  0  0  0  0  0  0  0  0  0
   23.6210    8.7759   55.1922 C   0  0  0  0  0  0  0  0  0  0  0  0
   23.7553   10.0975   55.8652 C   0  0  0  0  0  0  0  0  0  0  0  0
   22.5982   11.0049   55.4685 C   0  0  0  0  0  0  0  0  0  0  0  0
   21.9317   10.5941   54.3353 O   0  0  0  0  0  0  0  0  0  0  0  0
   24.6262    8.0258   54.6953 C   0  0  0  0  0  0  0  0  0  0  0  0
   24.0441    6.9227   54.1999 N   0  0  0  0  0  0  0  0  0  0  0  0
   22.6760    6.9837   54.3843 C   0  0  0  0  0  0  0  0  0  0  0  0
   21.8150    5.9012   53.9709 C   0  0  0  0  0  0  0  0  0  0  0  0
   22.4177    4.7813   53.3831 C   0  0  0  0  0  0  0  0  0  0  0  0
   21.6852    3.7295   52.9074 C   0  0  0  0  0  0  0  0  0  0  0  0
   20.3164    3.7704   53.0079 C   0  0  0  0  0  0  0  0  0  0  0  0
   19.6468    2.6871   52.5140 F   0  0  0  0  0  0  0  0  0  0  0  0
   19.6686    4.8291   53.5669 C   0  0  0  0  0  0  0  0  0  0  0  0
   20.4662    5.9102   54.0523 C   0  0  0  0  0  0  0  0  0  0  0  0
   18.3511    4.9367   53.6972 O   0  0  0  0  0  0  0  0  0  0  0  0
   17.2827    4.1701   54.0359 C   0  0  0  0  0  0  0  0  0  0  0  0
   17.4154    3.5704   55.3004 F   0  0  0  0  0  0  0  0  0  0  0  0
   16.1003    4.9411   54.0915 F   0  0  0  0  0  0  0  0  0  0  0  0
   26.0621    8.3256   54.7132 C   0  0  0  0  0  0  0  0  0  0  0  0
   26.8966    8.1680   53.6523 C   0  0  0  0  0  0  0  0  0  0  0  0
   28.2304    8.5123   53.7977 C   0  0  0  0  0  0  0  0  0  0  0  0
   28.7272    8.9967   54.9542 N   0  0  0  0  0  0  0  0  0  0  0  0
   27.9286    9.1651   56.0263 C   0  0  0  0  0  0  0  0  0  0  0  0
   28.4043    9.6884   57.3192 C   0  0  0  0  0  0  0  0  0  0  0  0
   26.6089    8.8298   55.8978 C   0  0  0  0  0  0  0  0  0  0  0  0
  1  2  1  0  0  0
  2  3  1  0  0  0
  3  4  1  0  0  0
  4  5  1  0  0  0
  5  6  1  0  0  0
  6  7  1  0  0  0
  7  8  1  0  0  0
  5  9  2  0  0  0
  9 10  1  0  0  0
 10 11  2  0  0  0
 11 12  1  0  0  0
 12 13  2  0  0  0
 13 14  1  0  0  0
 14 15  2  0  0  0
 15 16  1  0  0  0
 15 17  1  0  0  0
 17 19  1  0  0  0
 19 20  1  0  0  0
 20 21  1  0  0  0
 20 22  1  0  0  0
 17 18  2  0  0  0
  9 23  1  0  0  0
 23 24  2  0  0  0
 24 25  1  0  0  0
 25 26  2  0  0  0
 26 27  1  0  0  0
 27 28  1  0  0  0
 27 29  2  0  0  0
  8  2  1  0  0  0
 18 12  1  0  0  0
 29 23  1  0  0  0
 11  4  1  0  0  0
M  END
> <minimizedAffinity>
28.60540

> <CNNscore>
0.5170959234

> <CNNaffinity>
6.3993887901

> <CNN_VS>
3.3090977669

> <CNNaffinity_variance>
0.4149160981

$$$$
[H]c1nc(C([H])([H])[H])c([H])c(-c2nc(-c3c([H])c([H])c(F)c(OC([H])(F)F)c3[H])n3c2C([H])([H])C([H])([H])O[C@]([H])(C([H])([H])[H])C3([H])[H])c1[H]


 29 32  0  0  0  0  0  0  0  0999 V2000
   21.6289   11.7522   52.0391 C   0  0  0  0  0  0  0  0  0  0  0  0
   21.8219   10.5115   52.8423 C   0  0  0  0  0  0  0  0  0  0  0  0
   22.8345    9.5981   52.1802 C   0  0  0  0  0  0  0  0  0  0  0  0
   22.7204    8.2977   52.8100 N   0  0  0  0  0  0  0  0  0  0  0  0
   21.6474    7.4314   52.6330 C   0  0  0  0  0  0  0  0  0  0  0  0
   20.4602    7.7589   51.7959 C   0  0  0  0  0  0  0  0  0  0  0  0
   20.0883    9.2257   51.9694 C   0  0  0  0  0  0  0  0  0  0  0  0
   20.6329    9.8091   53.0919 O   0  0  0  0  0  0  0  0  0  0  0  0
   21.8575    6.2821   53.3077 C   0  0  0  0  0  0  0  0  0  0  0  0
   23.0516    6.4252   53.9035 N   0  0  0  0  0  0  0  0  0  0  0  0
   23.5867    7.6635   53.6040 C   0  0  0  0  0  0  0  0  0  0  0  0
   24.8866    8.0565   54.0938 C   0  0  0  0  0  0  0  0  0  0  0  0
   25.9849    7.8635   53.2455 C   0  0  0  0  0  0  0  0  0  0  0  0
   27.2630    8.1505   53.6370 C   0  0  0  0  0  0  0  0  0  0  0  0
   27.4786    8.6432   54.9004 C   0  0  0  0  0  0  0  0  0  0  0  0
   28.7784    8.9092   55.2259 F   0  0  0  0  0  0  0  0  0  0  0  0
   26.4559    8.8528   55.7739 C   0  0  0  0  0  0  0  0  0  0  0  0
   25.1342    8.5408   55.3307 C   0  0  0  0  0  0  0  0  0  0  0  0
   26.5898    9.3254   57.0080 O   0  0  0  0  0  0  0  0  0  0  0  0
   27.5725    9.6319   57.8935 C   0  0  0  0  0  0  0  0  0  0  0  0
   28.5067    8.5945   58.0586 F   0  0  0  0  0  0  0  0  0  0  0  0
   28.3106   10.7577   57.4653 F   0  0  0  0  0  0  0  0  0  0  0  0
   20.9869    5.1028   53.3628 C   0  0  0  0  0  0  0  0  0  0  0  0
   21.3896    3.8330   53.0938 C   0  0  0  0  0  0  0  0  0  0  0  0
   20.4686    2.8047   53.2067 C   0  0  0  0  0  0  0  0  0  0  0  0
   19.1887    3.0210   53.5730 N   0  0  0  0  0  0  0  0  0  0  0  0
   18.7551    4.2672   53.8463 C   0  0  0  0  0  0  0  0  0  0  0  0
   17.3720    4.5752   54.2511 C   0  0  0  0  0  0  0  0  0  0  0  0
   19.6533    5.2929   53.7396 C   0  0  0  0  0  0  0  0  0  0  0  0
  1  2  1  0  0  0
  2  3  1  0  0  0
  3  4  1  0  0  0
  4  5  1  0  0  0
  5  6  1  0  0  0
  6  7  1  0  0  0
  7  8  1  0  0  0
  5  9  2  0  0  0
  9 10  1  0  0  0
 10 11  2  0  0  0
 11 12  1  0  0  0
 12 13  2  0  0  0
 13 14  1  0  0  0
 14 15  2  0  0  0
 15 16  1  0  0  0
 15 17  1  0  0  0
 17 19  1  0  0  0
 19 20  1  0  0  0
 20 21  1  0  0  0
 20 22  1  0  0  0
 17 18  2  0  0  0
  9 23  1  0  0  0
 23 24  2  0  0  0
 24 25  1  0  0  0
 25 26  2  0  0  0
 26 27  1  0  0  0
 27 28  1  0  0  0
 27 29  2  0  0  0
  8  2  1  0  0  0
 18 12  1  0  0  0
 29 23  1  0  0  0
 11  4  1  0  0  0
M  END
> <minimizedAffinity>
21.95335

> <CNNscore>
0.4993623197

> <CNNaffinity>
6.4639406204

> <CNN_VS>
3.2278482914

> <CNNaffinity_variance>
0.5201777220

$$$$
[H]c1nc(C([H])([H])[H])c([H])c(-c2nc(-c3c([H])c([H])c(F)c(OC([H])(F)F)c3[H])n3c2C([H])([H])C([H])([H])O[C@]([H])(C([H])([H])[H])C3([H])[H])c1[H]


 29 32  0  0  0  0  0  0  0  0999 V2000
   20.4363    5.6046   53.2912 C   0  0  0  0  0  0  0  0  0  0  0  0
   21.3269    6.5738   53.9908 C   0  0  0  0  0  0  0  0  0  0  0  0
   21.8406    7.6220   53.0236 C   0  0  0  0  0  0  0  0  0  0  0  0
   22.9413    8.3062   53.6724 N   0  0  0  0  0  0  0  0  0  0  0  0
   24.1895    7.7398   53.9053 C   0  0  0  0  0  0  0  0  0  0  0  0
   24.5317    6.3361   53.5448 C   0  0  0  0  0  0  0  0  0  0  0  0
   23.3434    5.4230   53.8176 C   0  0  0  0  0  0  0  0  0  0  0  0
   22.4024    5.9709   54.6609 O   0  0  0  0  0  0  0  0  0  0  0  0
   25.0135    8.6420   54.4773 C   0  0  0  0  0  0  0  0  0  0  0  0
   24.2895    9.7651   54.6029 N   0  0  0  0  0  0  0  0  0  0  0  0
   23.0133    9.5650   54.1124 C   0  0  0  0  0  0  0  0  0  0  0  0
   22.0405   10.6315   54.0972 C   0  0  0  0  0  0  0  0  0  0  0  0
   21.1529   10.7152   55.1780 C   0  0  0  0  0  0  0  0  0  0  0  0
   20.1598   11.6534   55.2300 C   0  0  0  0  0  0  0  0  0  0  0  0
   20.0270   12.5420   54.1916 C   0  0  0  0  0  0  0  0  0  0  0  0
   19.0155   13.4527   54.3082 F   0  0  0  0  0  0  0  0  0  0  0  0
   20.8554   12.5141   53.1118 C   0  0  0  0  0  0  0  0  0  0  0  0
   21.8807   11.5196   53.0914 C   0  0  0  0  0  0  0  0  0  0  0  0
   20.7859   13.3398   52.0738 O   0  0  0  0  0  0  0  0  0  0  0  0
   21.3189   13.4833   50.8331 C   0  0  0  0  0  0  0  0  0  0  0  0
   22.7039   13.7231   50.8543 F   0  0  0  0  0  0  0  0  0  0  0  0
   21.1369   12.3133   50.0626 F   0  0  0  0  0  0  0  0  0  0  0  0
   26.4179    8.4579   54.8591 C   0  0  0  0  0  0  0  0  0  0  0  0
   27.3573    7.8598   54.0804 C   0  0  0  0  0  0  0  0  0  0  0  0
   28.6563    7.7720   54.5533 C   0  0  0  0  0  0  0  0  0  0  0  0
   29.0186    8.2584   55.7580 N   0  0  0  0  0  0  0  0  0  0  0  0
   28.1130    8.8567   56.5563 C   0  0  0  0  0  0  0  0  0  0  0  0
   28.4394    9.4093   57.8829 C   0  0  0  0  0  0  0  0  0  0  0  0
   26.8263    8.9512   56.1027 C   0  0  0  0  0  0  0  0  0  0  0  0
  1  2  1  0  0  0
  2  3  1  0  0  0
  3  4  1  0  0  0
  4  5  1  0  0  0
  5  6  1  0  0  0
  6  7  1  0  0  0
  7  8  1  0  0  0
  5  9  2  0  0  0
  9 10  1  0  0  0
 10 11  2  0  0  0
 11 12  1  0  0  0
 12 13  2  0  0  0
 13 14  1  0  0  0
 14 15  2  0  0  0
 15 16  1  0  0  0
 15 17  1  0  0  0
 17 19  1  0  0  0
 19 20  1  0  0  0
 20 21  1  0  0  0
 20 22  1  0  0  0
 17 18  2  0  0  0
  9 23  1  0  0  0
 23 24  2  0  0  0
 24 25  1  0  0  0
 25 26  2  0  0  0
 26 27  1  0  0  0
 27 28  1  0  0  0
 27 29  2  0  0  0
  8  2  1  0  0  0
 18 12  1  0  0  0
 29 23  1  0  0  0
 11  4  1  0  0  0
M  END
> <minimizedAffinity>
29.88712

> <CNNscore>
0.4784395993

> <CNNaffinity>
5.9610681534

> <CNN_VS>
2.8520109653

> <CNNaffinity_variance>
0.2756908536

$$$$
[H]c1nc(C([H])([H])[H])c([H])c(-c2nc(-c3c([H])c([H])c(F)c(OC([H])(F)F)c3[H])n3c2C([H])([H])C([H])([H])O[C@]([H])(C([H])([H])[H])C3([H])[H])c1[H]


 29 32  0  0  0  0  0  0  0  0999 V2000
   21.4149   11.3806   51.2837 C   0  0  0  0  0  0  0  0  0  0  0  0
   21.4055   10.2637   52.2708 C   0  0  0  0  0  0  0  0  0  0  0  0
   22.5015    9.2643   51.9578 C   0  0  0  0  0  0  0  0  0  0  0  0
   22.2241    8.0649   52.7227 N   0  0  0  0  0  0  0  0  0  0  0  0
   21.1821    7.1850   52.4523 C   0  0  0  0  0  0  0  0  0  0  0  0
   20.1967    7.3954   51.3559 C   0  0  0  0  0  0  0  0  0  0  0  0
   19.8427    8.8730   51.2491 C   0  0  0  0  0  0  0  0  0  0  0  0
   20.1697    9.6061   52.3683 O   0  0  0  0  0  0  0  0  0  0  0  0
   21.2179    6.1407   53.3057 C   0  0  0  0  0  0  0  0  0  0  0  0
   22.2727    6.3626   54.1054 N   0  0  0  0  0  0  0  0  0  0  0  0
   22.8945    7.5456   53.7543 C   0  0  0  0  0  0  0  0  0  0  0  0
   24.0818    8.0000   54.4384 C   0  0  0  0  0  0  0  0  0  0  0  0
   23.9102    8.8340   55.5510 C   0  0  0  0  0  0  0  0  0  0  0  0
   24.9715    9.3624   56.2319 C   0  0  0  0  0  0  0  0  0  0  0  0
   26.2457    9.0676   55.8136 C   0  0  0  0  0  0  0  0  0  0  0  0
   27.2589    9.6274   56.5389 F   0  0  0  0  0  0  0  0  0  0  0  0
   26.4815    8.2650   54.7397 C   0  0  0  0  0  0  0  0  0  0  0  0
   25.3486    7.7316   54.0522 C   0  0  0  0  0  0  0  0  0  0  0  0
   27.6838    7.9379   54.2797 O   0  0  0  0  0  0  0  0  0  0  0  0
   28.9873    8.2621   54.4793 C   0  0  0  0  0  0  0  0  0  0  0  0
   29.2554    9.6238   54.2558 F   0  0  0  0  0  0  0  0  0  0  0  0
   29.3787    8.0004   55.8112 F   0  0  0  0  0  0  0  0  0  0  0  0
   20.3181    4.9828   53.3439 C   0  0  0  0  0  0  0  0  0  0  0  0
   20.6642    3.7238   52.9670 C   0  0  0  0  0  0  0  0  0  0  0  0
   19.7225    2.7139   53.0760 C   0  0  0  0  0  0  0  0  0  0  0  0
   18.4766    2.9380   53.5416 N   0  0  0  0  0  0  0  0  0  0  0  0
   18.0994    4.1739   53.9234 C   0  0  0  0  0  0  0  0  0  0  0  0
   16.7559    4.4895   54.4402 C   0  0  0  0  0  0  0  0  0  0  0  0
   19.0186    5.1814   53.8219 C   0  0  0  0  0  0  0  0  0  0  0  0
  1  2  1  0  0  0
  2  3  1  0  0  0
  3  4  1  0  0  0
  4  5  1  0  0  0
  5  6  1  0  0  0
  6  7  1  0  0  0
  7  8  1  0  0  0
  5  9  2  0  0  0
  9 10  1  0  0  0
 10 11  2  0  0  0
 11 12  1  0  0  0
 12 13  2  0  0  0
 13 14  1  0  0  0
 14 15  2  0  0  0
 15 16  1  0  0  0
 15 17  1  0  0  0
 17 19  1  0  0  0
 19 20  1  0  0  0
 20 21  1  0  0  0
 20 22  1  0  0  0
 17 18  2  0  0  0
  9 23  1  0  0  0
 23 24  2  0  0  0
 24 25  1  0  0  0
 25 26  2  0  0  0
 26 27  1  0  0  0
 27 28  1  0  0  0
 27 29  2  0  0  0
  8  2  1  0  0  0
 18 12  1  0  0  0
 29 23  1  0  0  0
 11  4  1  0  0  0
M  END
> <minimizedAffinity>
24.63674

> <CNNscore>
0.4762041867

> <CNNaffinity>
6.4878478050

> <CNN_VS>
3.0895402431

> <CNNaffinity_variance>
0.7228720188

$$$$
[H]c1nc(C([H])([H])[H])c([H])c(-c2nc(-c3c([H])c([H])c(F)c(OC([H])(F)F)c3[H])n3c2C([H])([H])C([H])([H])O[C@]([H])(C([H])([H])[H])C3([H])[H])c1[H]


 29 32  0  0  0  0  0  0  0  0999 V2000
   24.3721    6.0211   52.2986 C   0  0  0  0  0  0  0  0  0  0  0  0
   24.3932    6.7481   53.5997 C   0  0  0  0  0  0  0  0  0  0  0  0
   24.6007    8.2334   53.3789 C   0  0  0  0  0  0  0  0  0  0  0  0
   24.9486    8.8163   54.6595 N   0  0  0  0  0  0  0  0  0  0  0  0
   26.1644    8.6227   55.3056 C   0  0  0  0  0  0  0  0  0  0  0  0
   27.2478    7.7538   54.7682 C   0  0  0  0  0  0  0  0  0  0  0  0
   26.6483    6.5093   54.1266 C   0  0  0  0  0  0  0  0  0  0  0  0
   25.3478    6.2593   54.5048 O   0  0  0  0  0  0  0  0  0  0  0  0
   26.2052    9.3363   56.4498 C   0  0  0  0  0  0  0  0  0  0  0  0
   25.0256    9.9724   56.5221 N   0  0  0  0  0  0  0  0  0  0  0  0
   24.2467    9.6550   55.4258 C   0  0  0  0  0  0  0  0  0  0  0  0
   22.9382   10.2367   55.2423 C   0  0  0  0  0  0  0  0  0  0  0  0
   22.0469   10.1819   56.3219 C   0  0  0  0  0  0  0  0  0  0  0  0
   20.7669   10.6535   56.2303 C   0  0  0  0  0  0  0  0  0  0  0  0
   20.3402   11.1980   55.0442 C   0  0  0  0  0  0  0  0  0  0  0  0
   19.0514   11.6505   55.0221 F   0  0  0  0  0  0  0  0  0  0  0  0
   21.1553   11.2805   53.9572 C   0  0  0  0  0  0  0  0  0  0  0  0
   22.4856   10.7769   54.0894 C   0  0  0  0  0  0  0  0  0  0  0  0
   20.8113   11.7931   52.7811 O   0  0  0  0  0  0  0  0  0  0  0  0
   21.3979   12.2735   51.6547 C   0  0  0  0  0  0  0  0  0  0  0  0
   22.7141   12.7190   51.8676 F   0  0  0  0  0  0  0  0  0  0  0  0
   21.4797   11.2756   50.6581 F   0  0  0  0  0  0  0  0  0  0  0  0
   27.3117    9.4313   57.4082 C   0  0  0  0  0  0  0  0  0  0  0  0
   28.0909    8.3867   57.7933 C   0  0  0  0  0  0  0  0  0  0  0  0
   29.1204    8.6195   58.6903 C   0  0  0  0  0  0  0  0  0  0  0  0
   29.3740    9.8449   59.1935 N   0  0  0  0  0  0  0  0  0  0  0  0
   28.6210   10.9029   58.8341 C   0  0  0  0  0  0  0  0  0  0  0  0
   28.8417   12.2676   59.3446 C   0  0  0  0  0  0  0  0  0  0  0  0
   27.6009   10.6887   57.9488 C   0  0  0  0  0  0  0  0  0  0  0  0
  1  2  1  0  0  0
  2  3  1  0  0  0
  3  4  1  0  0  0
  4  5  1  0  0  0
  5  6  1  0  0  0
  6  7  1  0  0  0
  7  8  1  0  0  0
  5  9  2  0  0  0
  9 10  1  0  0  0
 10 11  2  0  0  0
 11 12  1  0  0  0
 12 13  2  0  0  0
 13 14  1  0  0  0
 14 15  2  0  0  0
 15 16  1  0  0  0
 15 17  1  0  0  0
 17 19  1  0  0  0
 19 20  1  0  0  0
 20 21  1  0  0  0
 20 22  1  0  0  0
 17 18  2  0  0  0
  9 23  1  0  0  0
 23 24  2  0  0  0
 24 25  1  0  0  0
 25 26  2  0  0  0
 26 27  1  0  0  0
 27 28  1  0  0  0
 27 29  2  0  0  0
  8  2  1  0  0  0
 18 12  1  0  0  0
 29 23  1  0  0  0
 11  4  1  0  0  0
M  END
> <minimizedAffinity>
37.27823

> <CNNscore>
0.4678217173

> <CNNaffinity>
5.9086627960

> <CNN_VS>
2.7642006874

> <CNNaffinity_variance>
0.4244653285

$$$$
[H]c1nc(C([H])([H])[H])c([H])c(-c2nc(-c3c([H])c([H])c(F)c(OC([H])(F)F)c3[H])n3c2C([H])([H])C([H])([H])O[C@]([H])(C([H])([H])[H])C3([H])[H])c1[H]


 29 32  0  0  0  0  0  0  0  0999 V2000
   28.0446    9.1205   57.5124 C   0  0  0  0  0  0  0  0  0  0  0  0
   27.4203    9.3795   56.1838 C   0  0  0  0  0  0  0  0  0  0  0  0
   27.2571    8.0869   55.4088 C   0  0  0  0  0  0  0  0  0  0  0  0
   26.9742    8.4412   54.0322 N   0  0  0  0  0  0  0  0  0  0  0  0
   27.9048    8.9872   53.1552 C   0  0  0  0  0  0  0  0  0  0  0  0
   29.3055    9.3097   53.5443 C   0  0  0  0  0  0  0  0  0  0  0  0
   29.3371    9.8745   54.9585 C   0  0  0  0  0  0  0  0  0  0  0  0
   28.1138   10.3205   55.4074 O   0  0  0  0  0  0  0  0  0  0  0  0
   27.3546    9.1571   51.9351 C   0  0  0  0  0  0  0  0  0  0  0  0
   26.0896    8.7220   52.0446 N   0  0  0  0  0  0  0  0  0  0  0  0
   25.8481    8.2828   53.3323 C   0  0  0  0  0  0  0  0  0  0  0  0
   24.5686    7.7295   53.7077 C   0  0  0  0  0  0  0  0  0  0  0  0
   24.5369    6.3912   54.1212 C   0  0  0  0  0  0  0  0  0  0  0  0
   23.3682    5.7590   54.4429 C   0  0  0  0  0  0  0  0  0  0  0  0
   22.1880    6.4558   54.3586 C   0  0  0  0  0  0  0  0  0  0  0  0
   21.0588    5.7645   54.6950 F   0  0  0  0  0  0  0  0  0  0  0  0
   22.1492    7.7576   53.9629 C   0  0  0  0  0  0  0  0  0  0  0  0
   23.3895    8.3854   53.6338 C   0  0  0  0  0  0  0  0  0  0  0  0
   21.0473    8.4920   53.8584 O   0  0  0  0  0  0  0  0  0  0  0  0
   20.2095    9.2118   54.6481 C   0  0  0  0  0  0  0  0  0  0  0  0
   20.0117    8.6307   55.9128 F   0  0  0  0  0  0  0  0  0  0  0  0
   20.7229   10.5057   54.8888 F   0  0  0  0  0  0  0  0  0  0  0  0
   28.0000    9.6780   50.7252 C   0  0  0  0  0  0  0  0  0  0  0  0
   28.4159   10.9617   50.5641 C   0  0  0  0  0  0  0  0  0  0  0  0
   29.0341   11.3170   49.3765 C   0  0  0  0  0  0  0  0  0  0  0  0
   29.2357   10.4339   48.3772 N   0  0  0  0  0  0  0  0  0  0  0  0
   28.8354    9.1535   48.5026 C   0  0  0  0  0  0  0  0  0  0  0  0
   29.0232    8.1373   47.4520 C   0  0  0  0  0  0  0  0  0  0  0  0
   28.2238    8.7876   49.6698 C   0  0  0  0  0  0  0  0  0  0  0  0
  1  2  1  0  0  0
  2  3  1  0  0  0
  3  4  1  0  0  0
  4  5  1  0  0  0
  5  6  1  0  0  0
  6  7  1  0  0  0
  7  8  1  0  0  0
  5  9  2  0  0  0
  9 10  1  0  0  0
 10 11  2  0  0  0
 11 12  1  0  0  0
 12 13  2  0  0  0
 13 14  1  0  0  0
 14 15  2  0  0  0
 15 16  1  0  0  0
 15 17  1  0  0  0
 17 19  1  0  0  0
 19 20  1  0  0  0
 20 21  1  0  0  0
 20 22  1  0  0  0
 17 18  2  0  0  0
  9 23  1  0  0  0
 23 24  2  0  0  0
 24 25  1  0  0  0
 25 26  2  0  0  0
 26 27  1  0  0  0
 27 28  1  0  0  0
 27 29  2  0  0  0
  8  2  1  0  0  0
 18 12  1  0  0  0
 29 23  1  0  0  0
 11  4  1  0  0  0
M  END
> <minimizedAffinity>
26.88265

> <CNNscore>
0.4568562210

> <CNNaffinity>
5.8932437897

> <CNN_VS>
2.6923651695

> <CNNaffinity_variance>
0.0535371974

$$$$
[H]c1nc(C([H])([H])[H])c([H])c(-c2nc(-c3c([H])c([H])c(F)c(OC([H])(F)F)c3[H])n3c2C([H])([H])C([H])([H])O[C@]([H])(C([H])([H])[H])C3([H])[H])c1[H]


 29 32  0  0  0  0  0  0  0  0999 V2000
   26.3171    7.9913   54.3777 C   0  0  0  0  0  0  0  0  0  0  0  0
   25.0075    7.8118   53.6889 C   0  0  0  0  0  0  0  0  0  0  0  0
   23.8783    8.3668   54.5345 C   0  0  0  0  0  0  0  0  0  0  0  0
   22.6367    7.8634   53.9816 N   0  0  0  0  0  0  0  0  0  0  0  0
   22.2147    6.5419   54.0750 C   0  0  0  0  0  0  0  0  0  0  0  0
   23.0164    5.4708   54.7287 C   0  0  0  0  0  0  0  0  0  0  0  0
   24.4945    5.6594   54.4131 C   0  0  0  0  0  0  0  0  0  0  0  0
   24.7329    6.4820   53.3345 O   0  0  0  0  0  0  0  0  0  0  0  0
   20.9982    6.3980   53.5096 C   0  0  0  0  0  0  0  0  0  0  0  0
   20.6590    7.6180   53.0648 N   0  0  0  0  0  0  0  0  0  0  0  0
   21.6632    8.5235   53.3492 C   0  0  0  0  0  0  0  0  0  0  0  0
   21.5324    9.9199   53.0066 C   0  0  0  0  0  0  0  0  0  0  0  0
   21.4370   10.8397   54.0591 C   0  0  0  0  0  0  0  0  0  0  0  0
   21.2540   12.1767   53.8395 C   0  0  0  0  0  0  0  0  0  0  0  0
   21.1605   12.6336   52.5480 C   0  0  0  0  0  0  0  0  0  0  0  0
   20.9791   13.9795   52.4005 F   0  0  0  0  0  0  0  0  0  0  0  0
   21.2439   11.7929   51.4808 C   0  0  0  0  0  0  0  0  0  0  0  0
   21.4344   10.4026   51.7484 C   0  0  0  0  0  0  0  0  0  0  0  0
   21.1623   12.1634   50.2079 O   0  0  0  0  0  0  0  0  0  0  0  0
   20.7479   13.2235   49.4674 C   0  0  0  0  0  0  0  0  0  0  0  0
   19.6831   12.9089   48.6051 F   0  0  0  0  0  0  0  0  0  0  0  0
   20.2848   14.2716   50.2936 F   0  0  0  0  0  0  0  0  0  0  0  0
   20.1900    5.1771   53.4199 C   0  0  0  0  0  0  0  0  0  0  0  0
   20.6334    3.9930   52.9219 C   0  0  0  0  0  0  0  0  0  0  0  0
   19.7717    2.9085   52.9170 C   0  0  0  0  0  0  0  0  0  0  0  0
   18.5104    2.9886   53.3880 N   0  0  0  0  0  0  0  0  0  0  0  0
   18.0376    4.1470   53.8881 C   0  0  0  0  0  0  0  0  0  0  0  0
   16.6717    4.3053   54.4182 C   0  0  0  0  0  0  0  0  0  0  0  0
   18.8771    5.2266   53.9000 C   0  0  0  0  0  0  0  0  0  0  0  0
  1  2  1  0  0  0
  2  3  1  0  0  0
  3  4  1  0  0  0
  4  5  1  0  0  0
  5  6  1  0  0  0
  6  7  1  0  0  0
  7  8  1  0  0  0
  5  9  2  0  0  0
  9 10  1  0  0  0
 10 11  2  0  0  0
 11 12  1  0  0  0
 12 13  2  0  0  0
 13 14  1  0  0  0
 14 15  2  0  0  0
 15 16  1  0  0  0
 15 17  1  0  0  0
 17 19  1  0  0  0
 19 20  1  0  0  0
 20 21  1  0  0  0
 20 22  1  0  0  0
 17 18  2  0  0  0
  9 23  1  0  0  0
 23 24  2  0  0  0
 24 25  1  0  0  0
 25 26  2  0  0  0
 26 27  1  0  0  0
 27 28  1  0  0  0
 27 29  2  0  0  0
  8  2  1  0  0  0
 18 12  1  0  0  0
 29 23  1  0  0  0
 11  4  1  0  0  0
M  END
> <minimizedAffinity>
26.96878

> <CNNscore>
0.4548600614

> <CNNaffinity>
6.3462553024

> <CNN_VS>
2.8866581917

> <CNNaffinity_variance>
0.5813401341

$$$$
[H]c1nc(C([H])([H])[H])c([H])c(-c2nc(-c3c([H])c([H])c(Cl)c(Cl)c3[H])n3c2C([H])([H])C([H])([H])O[C@]([H])(C([H])([H])[H])C3([H])[H])c1[H]


 26 29  0  0  0  0  0  0  0  0999 V2000
   21.4925   11.8231   52.2148 C   0  0  0  0  0  0  0  0  0  0  0  0
   21.2142   10.3316   52.2818 C   0  0  0  0  0  0  0  0  0  0  0  0
   22.5655    9.6883   52.6320 C   0  0  0  0  0  0  0  0  0  0  0  0
   22.4275    8.3068   52.9998 N   0  0  0  0  0  0  0  0  0  0  0  0
   21.2685    7.6168   52.7981 C   0  0  0  0  0  0  0  0  0  0  0  0
   20.0055    7.9602   52.1856 C   0  0  0  0  0  0  0  0  0  0  0  0
   20.0279    8.8504   50.9882 C   0  0  0  0  0  0  0  0  0  0  0  0
   20.9241    9.8717   51.0016 O   0  0  0  0  0  0  0  0  0  0  0  0
   21.5129    6.3675   53.3233 C   0  0  0  0  0  0  0  0  0  0  0  0
   22.7412    6.3497   53.7941 N   0  0  0  0  0  0  0  0  0  0  0  0
   23.3303    7.5606   53.5974 C   0  0  0  0  0  0  0  0  0  0  0  0
   24.6828    7.8526   54.0457 C   0  0  0  0  0  0  0  0  0  0  0  0
   25.7220    7.5652   53.1490 C   0  0  0  0  0  0  0  0  0  0  0  0
   27.0088    7.8624   53.5015 C   0  0  0  0  0  0  0  0  0  0  0  0
   27.3108    8.4358   54.7122 C   0  0  0  0  0  0  0  0  0  0  0  0
   28.9708    8.7834   55.0887 Cl  0  0  0  0  0  0  0  0  0  0  0  0
   26.3300    8.7263   55.6000 C   0  0  0  0  0  0  0  0  0  0  0  0
   26.6457    9.4579   57.1622 Cl  0  0  0  0  0  0  0  0  0  0  0  0
   25.0038    8.4235   55.2429 C   0  0  0  0  0  0  0  0  0  0  0  0
   20.6364    5.1907   53.3987 C   0  0  0  0  0  0  0  0  0  0  0  0
   21.1288    3.9585   53.0375 C   0  0  0  0  0  0  0  0  0  0  0  0
   20.3225    2.8134   53.1106 C   0  0  0  0  0  0  0  0  0  0  0  0
   19.0606    2.9657   53.5439 N   0  0  0  0  0  0  0  0  0  0  0  0
   18.5275    4.1391   53.9089 C   0  0  0  0  0  0  0  0  0  0  0  0
   17.1183    4.2721   54.3867 C   0  0  0  0  0  0  0  0  0  0  0  0
   19.3401    5.2753   53.8321 C   0  0  0  0  0  0  0  0  0  0  0  0
  1  2  1  0  0  0
  2  3  1  0  0  0
  3  4  1  0  0  0
  4  5  1  0  0  0
  5  6  1  0  0  0
  6  7  1  0  0  0
  7  8  1  0  0  0
  5  9  2  0  0  0
  9 10  1  0  0  0
 10 11  2  0  0  0
 11 12  1  0  0  0
 12 13  2  0  0  0
 13 14  1  0  0  0
 14 15  2  0  0  0
 15 16  1  0  0  0
 15 17  1  0  0  0
 17 18  1  0  0  0
 17 19  2  0  0  0
  9 20  1  0  0  0
 20 21  2  0  0  0
 21 22  1  0  0  0
 22 23  2  0  0  0
 23 24  1  0  0  0
 24 25  1  0  0  0
 24 26  2  0  0  0
  8  2  1  0  0  0
 19 12  1  0  0  0
 26 20  1  0  0  0
 11  4  1  0  0  0
M  END
> <minimizedAffinity>
23.38515

> <CNNscore>
0.5027157664

> <CNNaffinity>
6.5364732742

> <CNN_VS>
3.2859880924

> <CNNaffinity_variance>
0.6519118547

$$$$
[H]c1nc(C([H])([H])[H])c([H])c(-c2nc(-c3c([H])c([H])c(Cl)c(Cl)c3[H])n3c2C([H])([H])C([H])([H])O[C@]([H])(C([H])([H])[H])C3([H])[H])c1[H]


 26 29  0  0  0  0  0  0  0  0999 V2000
   21.3588   11.8671   51.9517 C   0  0  0  0  0  0  0  0  0  0  0  0
   21.1224   10.3725   52.0813 C   0  0  0  0  0  0  0  0  0  0  0  0
   22.4331    9.8087   52.6531 C   0  0  0  0  0  0  0  0  0  0  0  0
   22.2908    8.4485   53.0915 N   0  0  0  0  0  0  0  0  0  0  0  0
   21.1933    7.6999   52.7825 C   0  0  0  0  0  0  0  0  0  0  0  0
   20.0158    7.9518   51.9837 C   0  0  0  0  0  0  0  0  0  0  0  0
   20.1734    8.7655   50.7428 C   0  0  0  0  0  0  0  0  0  0  0  0
   21.0257    9.8218   50.8077 O   0  0  0  0  0  0  0  0  0  0  0  0
   21.4038    6.4970   53.4192 C   0  0  0  0  0  0  0  0  0  0  0  0
   22.5559    6.5594   54.0513 N   0  0  0  0  0  0  0  0  0  0  0  0
   23.1267    7.7790   53.8544 C   0  0  0  0  0  0  0  0  0  0  0  0
   24.3948    8.1541   54.4600 C   0  0  0  0  0  0  0  0  0  0  0  0
   24.3347    8.9699   55.5991 C   0  0  0  0  0  0  0  0  0  0  0  0
   25.4945    9.3149   56.2348 C   0  0  0  0  0  0  0  0  0  0  0  0
   26.7186    8.8829   55.7866 C   0  0  0  0  0  0  0  0  0  0  0  0
   28.1486    9.3643   56.6478 Cl  0  0  0  0  0  0  0  0  0  0  0  0
   26.8106    8.0935   54.6898 C   0  0  0  0  0  0  0  0  0  0  0  0
   28.3404    7.5073   54.0641 Cl  0  0  0  0  0  0  0  0  0  0  0  0
   25.6207    7.7345   54.0317 C   0  0  0  0  0  0  0  0  0  0  0  0
   20.5639    5.2921   53.4552 C   0  0  0  0  0  0  0  0  0  0  0  0
   21.1027    4.0827   53.0835 C   0  0  0  0  0  0  0  0  0  0  0  0
   20.3320    2.9116   53.1194 C   0  0  0  0  0  0  0  0  0  0  0  0
   19.0570    3.0163   53.5277 N   0  0  0  0  0  0  0  0  0  0  0  0
   18.4791    4.1656   53.9012 C   0  0  0  0  0  0  0  0  0  0  0  0
   17.0567    4.2456   54.3505 C   0  0  0  0  0  0  0  0  0  0  0  0
   19.2566    5.3280   53.8618 C   0  0  0  0  0  0  0  0  0  0  0  0
  1  2  1  0  0  0
  2  3  1  0  0  0
  3  4  1  0  0  0
  4  5  1  0  0  0
  5  6  1  0  0  0
  6  7  1  0  0  0
  7  8  1  0  0  0
  5  9  2  0  0  0
  9 10  1  0  0  0
 10 11  2  0  0  0
 11 12  1  0  0  0
 12 13  2  0  0  0
 13 14  1  0  0  0
 14 15  2  0  0  0
 15 16  1  0  0  0
 15 17  1  0  0  0
 17 18  1  0  0  0
 17 19  2  0  0  0
  9 20  1  0  0  0
 20 21  2  0  0  0
 21 22  1  0  0  0
 22 23  2  0  0  0
 23 24  1  0  0  0
 24 25  1  0  0  0
 24 26  2  0  0  0
  8  2  1  0  0  0
 19 12  1  0  0  0
 26 20  1  0  0  0
 11  4  1  0  0  0
M  END
> <minimizedAffinity>
23.13351

> <CNNscore>
0.4928926528

> <CNNaffinity>
6.5525145531

> <CNN_VS>
3.2296862602

> <CNNaffinity_variance>
0.6879761815

$$$$
[H]c1nc(C([H])([H])[H])c([H])c(-c2nc(-c3c([H])c([H])c(Cl)c(Cl)c3[H])n3c2C([H])([H])C([H])([H])O[C@]([H])(C([H])([H])[H])C3([H])[H])c1[H]


 26 29  0  0  0  0  0  0  0  0999 V2000
   21.4315   12.0093   52.1942 C   0  0  0  0  0  0  0  0  0  0  0  0
   21.1852   10.5131   52.2806 C   0  0  0  0  0  0  0  0  0  0  0  0
   22.4989    9.9222   52.8167 C   0  0  0  0  0  0  0  0  0  0  0  0
   22.3519    8.5500   53.2145 N   0  0  0  0  0  0  0  0  0  0  0  0
   21.2446    7.8195   52.8974 C   0  0  0  0  0  0  0  0  0  0  0  0
   20.0585    8.1049   52.1228 C   0  0  0  0  0  0  0  0  0  0  0  0
   20.2059    8.9557   50.9058 C   0  0  0  0  0  0  0  0  0  0  0  0
   21.0672   10.0032   50.9919 O   0  0  0  0  0  0  0  0  0  0  0  0
   21.4542    6.5959   53.4934 C   0  0  0  0  0  0  0  0  0  0  0  0
   22.6151    6.6301   54.1114 N   0  0  0  0  0  0  0  0  0  0  0  0
   23.1928    7.8509   53.9447 C   0  0  0  0  0  0  0  0  0  0  0  0
   24.4717    8.1977   54.5444 C   0  0  0  0  0  0  0  0  0  0  0  0
   24.4348    9.0093   55.6875 C   0  0  0  0  0  0  0  0  0  0  0  0
   25.6051    9.3279   56.3177 C   0  0  0  0  0  0  0  0  0  0  0  0
   26.8176    8.8734   55.8603 C   0  0  0  0  0  0  0  0  0  0  0  0
   28.2620    9.3218   56.7150 Cl  0  0  0  0  0  0  0  0  0  0  0  0
   26.8871    8.0872   54.7595 C   0  0  0  0  0  0  0  0  0  0  0  0
   28.4010    7.4731   54.1220 Cl  0  0  0  0  0  0  0  0  0  0  0  0
   25.6864    7.7553   54.1069 C   0  0  0  0  0  0  0  0  0  0  0  0
   20.6055    5.3966   53.5034 C   0  0  0  0  0  0  0  0  0  0  0  0
   19.2823    5.5094   53.8607 C   0  0  0  0  0  0  0  0  0  0  0  0
   18.4421    4.3867   53.8677 C   0  0  0  0  0  0  0  0  0  0  0  0
   18.9757    3.2061   53.5145 N   0  0  0  0  0  0  0  0  0  0  0  0
   20.2556    3.0362   53.1576 C   0  0  0  0  0  0  0  0  0  0  0  0
   20.8162    1.7068   52.7701 C   0  0  0  0  0  0  0  0  0  0  0  0
   21.0854    4.1624   53.1540 C   0  0  0  0  0  0  0  0  0  0  0  0
  1  2  1  0  0  0
  2  3  1  0  0  0
  3  4  1  0  0  0
  4  5  1  0  0  0
  5  6  1  0  0  0
  6  7  1  0  0  0
  7  8  1  0  0  0
  5  9  2  0  0  0
  9 10  1  0  0  0
 10 11  2  0  0  0
 11 12  1  0  0  0
 12 13  2  0  0  0
 13 14  1  0  0  0
 14 15  2  0  0  0
 15 16  1  0  0  0
 15 17  1  0  0  0
 17 18  1  0  0  0
 17 19  2  0  0  0
  9 20  1  0  0  0
 20 21  2  0  0  0
 21 22  1  0  0  0
 22 23  2  0  0  0
 23 24  1  0  0  0
 24 25  1  0  0  0
 24 26  2  0  0  0
  8  2  1  0  0  0
 19 12  1  0  0  0
 26 20  1  0  0  0
 11  4  1  0  0  0
M  END
> <minimizedAffinity>
25.69110

> <CNNscore>
0.4776718020

> <CNNaffinity>
6.4402298927

> <CNN_VS>
3.0763161182

> <CNNaffinity_variance>
0.5038251281

$$$$
[H]c1nc(C([H])([H])[H])c([H])c(-c2nc(-c3c([H])c([H])c(Cl)c(Cl)c3[H])n3c2C([H])([H])C([H])([H])O[C@]([H])(C([H])([H])[H])C3([H])[H])c1[H]


 26 29  0  0  0  0  0  0  0  0999 V2000
   20.0235   11.0597   54.7365 C   0  0  0  0  0  0  0  0  0  0  0  0
   21.3844   10.3896   54.8110 C   0  0  0  0  0  0  0  0  0  0  0  0
   21.0933    8.8830   54.7216 C   0  0  0  0  0  0  0  0  0  0  0  0
   22.2867    8.1137   54.5056 N   0  0  0  0  0  0  0  0  0  0  0  0
   23.5310    8.6576   54.6329 C   0  0  0  0  0  0  0  0  0  0  0  0
   24.0047    9.9644   55.0277 C   0  0  0  0  0  0  0  0  0  0  0  0
   23.2603   10.6827   56.1032 C   0  0  0  0  0  0  0  0  0  0  0  0
   21.9059   10.5745   56.0872 O   0  0  0  0  0  0  0  0  0  0  0  0
   24.3917    7.6364   54.2968 C   0  0  0  0  0  0  0  0  0  0  0  0
   23.6762    6.5736   53.9981 N   0  0  0  0  0  0  0  0  0  0  0  0
   22.3511    6.8565   54.1256 C   0  0  0  0  0  0  0  0  0  0  0  0
   21.3129    5.8821   53.8286 C   0  0  0  0  0  0  0  0  0  0  0  0
   19.9931    6.3548   53.7949 C   0  0  0  0  0  0  0  0  0  0  0  0
   18.9829    5.4912   53.4758 C   0  0  0  0  0  0  0  0  0  0  0  0
   19.2269    4.1710   53.1869 C   0  0  0  0  0  0  0  0  0  0  0  0
   17.8902    3.1344   52.7910 Cl  0  0  0  0  0  0  0  0  0  0  0  0
   20.4905    3.6836   53.2102 C   0  0  0  0  0  0  0  0  0  0  0  0
   20.8722    2.0098   52.8521 Cl  0  0  0  0  0  0  0  0  0  0  0  0
   21.5344    4.5674   53.5371 C   0  0  0  0  0  0  0  0  0  0  0  0
   25.8600    7.6218   54.2465 C   0  0  0  0  0  0  0  0  0  0  0  0
   26.5005    6.6450   53.5209 C   0  0  0  0  0  0  0  0  0  0  0  0
   27.9002    6.6107   53.4415 C   0  0  0  0  0  0  0  0  0  0  0  0
   28.5856    7.5617   54.0967 N   0  0  0  0  0  0  0  0  0  0  0  0
   28.0165    8.5365   54.8180 C   0  0  0  0  0  0  0  0  0  0  0  0
   28.8105    9.5793   55.5348 C   0  0  0  0  0  0  0  0  0  0  0  0
   26.6197    8.5617   54.8908 C   0  0  0  0  0  0  0  0  0  0  0  0
  1  2  1  0  0  0
  2  3  1  0  0  0
  3  4  1  0  0  0
  4  5  1  0  0  0
  5  6  1  0  0  0
  6  7  1  0  0  0
  7  8  1  0  0  0
  5  9  2  0  0  0
  9 10  1  0  0  0
 10 11  2  0  0  0
 11 12  1  0  0  0
 12 13  2  0  0  0
 13 14  1  0  0  0
 14 15  2  0  0  0
 15 16  1  0  0  0
 15 17  1  0  0  0
 17 18  1  0  0  0
 17 19  2  0  0  0
  9 20  1  0  0  0
 20 21  2  0  0  0
 21 22  1  0  0  0
 22 23  2  0  0  0
 23 24  1  0  0  0
 24 25  1  0  0  0
 24 26  2  0  0  0
  8  2  1  0  0  0
 19 12  1  0  0  0
 26 20  1  0  0  0
 11  4  1  0  0  0
M  END
> <minimizedAffinity>
38.43748

> <CNNscore>
0.4588104486

> <CNNaffinity>
6.2638154030

> <CNN_VS>
2.8739039898

> <CNNaffinity_variance>
1.0186400414

$$$$
[H]c1nc(C([H])([H])[H])c([H])c(-c2nc(-c3c([H])c([H])c(Cl)c(Cl)c3[H])n3c2C([H])([H])C([H])([H])O[C@]([H])(C([H])([H])[H])C3([H])[H])c1[H]


 26 29  0  0  0  0  0  0  0  0999 V2000
   19.9331   10.4003   50.7359 C   0  0  0  0  0  0  0  0  0  0  0  0
   21.1145   10.1076   51.6442 C   0  0  0  0  0  0  0  0  0  0  0  0
   20.7578    8.7907   52.3520 C   0  0  0  0  0  0  0  0  0  0  0  0
   21.8824    8.2278   53.0457 N   0  0  0  0  0  0  0  0  0  0  0  0
   23.0328    8.9316   53.2495 C   0  0  0  0  0  0  0  0  0  0  0  0
   23.4313   10.2871   52.9459 C   0  0  0  0  0  0  0  0  0  0  0  0
   22.4045   11.3627   53.0710 C   0  0  0  0  0  0  0  0  0  0  0  0
   21.1458   11.0581   52.6593 O   0  0  0  0  0  0  0  0  0  0  0  0
   23.8728    8.0458   53.8867 C   0  0  0  0  0  0  0  0  0  0  0  0
   23.2343    6.9055   54.0374 N   0  0  0  0  0  0  0  0  0  0  0  0
   21.9814    7.0036   53.5153 C   0  0  0  0  0  0  0  0  0  0  0  0
   21.0500    5.8865   53.5058 C   0  0  0  0  0  0  0  0  0  0  0  0
   19.7050    6.1824   53.7699 C   0  0  0  0  0  0  0  0  0  0  0  0
   18.7799    5.1770   53.7286 C   0  0  0  0  0  0  0  0  0  0  0  0
   19.1338    3.8830   53.4349 C   0  0  0  0  0  0  0  0  0  0  0  0
   17.9009    2.6595   53.4021 Cl  0  0  0  0  0  0  0  0  0  0  0  0
   20.4243    3.5646   53.1745 C   0  0  0  0  0  0  0  0  0  0  0  0
   20.9444    1.9339   52.7929 Cl  0  0  0  0  0  0  0  0  0  0  0  0
   21.3808    4.5949   53.2147 C   0  0  0  0  0  0  0  0  0  0  0  0
   25.2516    8.2308   54.3594 C   0  0  0  0  0  0  0  0  0  0  0  0
   26.2987    7.8935   53.5342 C   0  0  0  0  0  0  0  0  0  0  0  0
   27.6263    8.0702   53.9498 C   0  0  0  0  0  0  0  0  0  0  0  0
   27.8339    8.5778   55.1757 N   0  0  0  0  0  0  0  0  0  0  0  0
   26.8547    8.9240   56.0217 C   0  0  0  0  0  0  0  0  0  0  0  0
   27.1221    9.4865   57.3796 C   0  0  0  0  0  0  0  0  0  0  0  0
   25.5339    8.7438   55.5974 C   0  0  0  0  0  0  0  0  0  0  0  0
  1  2  1  0  0  0
  2  3  1  0  0  0
  3  4  1  0  0  0
  4  5  1  0  0  0
  5  6  1  0  0  0
  6  7  1  0  0  0
  7  8  1  0  0  0
  5  9  2  0  0  0
  9 10  1  0  0  0
 10 11  2  0  0  0
 11 12  1  0  0  0
 12 13  2  0  0  0
 13 14  1  0  0  0
 14 15  2  0  0  0
 15 16  1  0  0  0
 15 17  1  0  0  0
 17 18  1  0  0  0
 17 19  2  0  0  0
  9 20  1  0  0  0
 20 21  2  0  0  0
 21 22  1  0  0  0
 22 23  2  0  0  0
 23 24  1  0  0  0
 24 25  1  0  0  0
 24 26  2  0  0  0
  8  2  1  0  0  0
 19 12  1  0  0  0
 26 20  1  0  0  0
 11  4  1  0  0  0
M  END
> <minimizedAffinity>
36.19827

> <CNNscore>
0.4474329054

> <CNNaffinity>
6.3180832863

> <CNN_VS>
2.8269183636

> <CNNaffinity_variance>
1.0682934523

$$$$
[H]c1nc(C([H])([H])[H])c([H])c(-c2nc(-c3c([H])c([H])c(Cl)c(Cl)c3[H])n3c2C([H])([H])C([H])([H])O[C@]([H])(C([H])([H])[H])C3([H])[H])c1[H]


 26 29  0  0  0  0  0  0  0  0999 V2000
   21.5570   11.6257   51.7654 C   0  0  0  0  0  0  0  0  0  0  0  0
   21.2881   10.1672   52.0926 C   0  0  0  0  0  0  0  0  0  0  0  0
   22.6566    9.5864   52.4827 C   0  0  0  0  0  0  0  0  0  0  0  0
   22.5412    8.2859   53.0814 N   0  0  0  0  0  0  0  0  0  0  0  0
   21.3770    7.5761   53.0506 C   0  0  0  0  0  0  0  0  0  0  0  0
   20.0859    7.8173   52.4480 C   0  0  0  0  0  0  0  0  0  0  0  0
   20.0499    8.4955   51.1193 C   0  0  0  0  0  0  0  0  0  0  0  0
   20.9416    9.5016   50.9214 O   0  0  0  0  0  0  0  0  0  0  0  0
   21.6503    6.4308   53.7648 C   0  0  0  0  0  0  0  0  0  0  0  0
   22.8989    6.4873   54.1752 N   0  0  0  0  0  0  0  0  0  0  0  0
   23.4734    7.6464   53.7529 C   0  0  0  0  0  0  0  0  0  0  0  0
   24.8438    8.0041   54.0839 C   0  0  0  0  0  0  0  0  0  0  0  0
   25.7882    7.9129   53.0512 C   0  0  0  0  0  0  0  0  0  0  0  0
   27.0817    8.2808   53.2954 C   0  0  0  0  0  0  0  0  0  0  0  0
   27.4812    8.7380   54.5272 C   0  0  0  0  0  0  0  0  0  0  0  0
   29.1434    9.1860   54.7607 Cl  0  0  0  0  0  0  0  0  0  0  0  0
   26.5934    8.8384   55.5452 C   0  0  0  0  0  0  0  0  0  0  0  0
   27.0362    9.4136   57.1416 Cl  0  0  0  0  0  0  0  0  0  0  0  0
   25.2607    8.4621   55.3000 C   0  0  0  0  0  0  0  0  0  0  0  0
   20.7830    5.2862   54.0752 C   0  0  0  0  0  0  0  0  0  0  0  0
   20.6835    4.8481   55.3750 C   0  0  0  0  0  0  0  0  0  0  0  0
   19.8543    3.7669   55.7069 C   0  0  0  0  0  0  0  0  0  0  0  0
   19.1665    3.1805   54.7137 N   0  0  0  0  0  0  0  0  0  0  0  0
   19.2237    3.5635   53.4314 C   0  0  0  0  0  0  0  0  0  0  0  0
   18.4439    2.8876   52.3512 C   0  0  0  0  0  0  0  0  0  0  0  0
   20.0538    4.6430   53.1109 C   0  0  0  0  0  0  0  0  0  0  0  0
  1  2  1  0  0  0
  2  3  1  0  0  0
  3  4  1  0  0  0
  4  5  1  0  0  0
  5  6  1  0  0  0
  6  7  1  0  0  0
  7  8  1  0  0  0
  5  9  2  0  0  0
  9 10  1  0  0  0
 10 11  2  0  0  0
 11 12  1  0  0  0
 12 13  2  0  0  0
 13 14  1  0  0  0
 14 15  2  0  0  0
 15 16  1  0  0  0
 15 17  1  0  0  0
 17 18  1  0  0  0
 17 19  2  0  0  0
  9 20  1  0  0  0
 20 21  2  0  0  0
 21 22  1  0  0  0
 22 23  2  0  0  0
 23 24  1  0  0  0
 24 25  1  0  0  0
 24 26  2  0  0  0
  8  2  1  0  0  0
 19 12  1  0  0  0
 26 20  1  0  0  0
 11  4  1  0  0  0
M  END
> <minimizedAffinity>
29.94813

> <CNNscore>
0.4431678355

> <CNNaffinity>
6.5336799622

> <CNN_VS>
2.8955168724

> <CNNaffinity_variance>
0.7748575807

$$$$
[H]c1nc(C([H])([H])[H])c([H])c(-c2nc(-c3c([H])c([H])c(Cl)c(Cl)c3[H])n3c2C([H])([H])C([H])([H])O[C@]([H])(C([H])([H])[H])C3([H])[H])c1[H]


 26 29  0  0  0  0  0  0  0  0999 V2000
   21.1595   11.0154   55.6418 C   0  0  0  0  0  0  0  0  0  0  0  0
   21.8657    9.8624   54.9501 C   0  0  0  0  0  0  0  0  0  0  0  0
   23.3475   10.0171   55.3279 C   0  0  0  0  0  0  0  0  0  0  0  0
   24.1182    8.8562   54.9798 N   0  0  0  0  0  0  0  0  0  0  0  0
   23.6200    7.8703   54.1798 C   0  0  0  0  0  0  0  0  0  0  0  0
   22.3727    7.7082   53.4682 C   0  0  0  0  0  0  0  0  0  0  0  0
   21.7526    8.9207   52.8584 C   0  0  0  0  0  0  0  0  0  0  0  0
   21.8266   10.0725   53.5757 O   0  0  0  0  0  0  0  0  0  0  0  0
   24.6207    6.9256   54.1298 C   0  0  0  0  0  0  0  0  0  0  0  0
   25.6296    7.3526   54.8582 N   0  0  0  0  0  0  0  0  0  0  0  0
   25.3303    8.5653   55.3984 C   0  0  0  0  0  0  0  0  0  0  0  0
   26.2438    9.2733   56.2814 C   0  0  0  0  0  0  0  0  0  0  0  0
   27.0919    8.4878   57.0753 C   0  0  0  0  0  0  0  0  0  0  0  0
   28.0018    9.1019   57.8897 C   0  0  0  0  0  0  0  0  0  0  0  0
   28.1073   10.4698   57.9507 C   0  0  0  0  0  0  0  0  0  0  0  0
   29.2880   11.1769   59.0109 Cl  0  0  0  0  0  0  0  0  0  0  0  0
   27.3033   11.2565   57.1961 C   0  0  0  0  0  0  0  0  0  0  0  0
   27.3850   13.0080   57.2259 Cl  0  0  0  0  0  0  0  0  0  0  0  0
   26.3655   10.6305   56.3556 C   0  0  0  0  0  0  0  0  0  0  0  0
   24.6646    5.6381   53.4233 C   0  0  0  0  0  0  0  0  0  0  0  0
   24.4010    4.4794   54.1154 C   0  0  0  0  0  0  0  0  0  0  0  0
   24.4215    3.2357   53.4679 C   0  0  0  0  0  0  0  0  0  0  0  0
   24.7065    3.2202   52.1557 N   0  0  0  0  0  0  0  0  0  0  0  0
   24.9709    4.3152   51.4308 C   0  0  0  0  0  0  0  0  0  0  0  0
   25.2842    4.2612   49.9712 C   0  0  0  0  0  0  0  0  0  0  0  0
   24.9479    5.5509   52.0862 C   0  0  0  0  0  0  0  0  0  0  0  0
  1  2  1  0  0  0
  2  3  1  0  0  0
  3  4  1  0  0  0
  4  5  1  0  0  0
  5  6  1  0  0  0
  6  7  1  0  0  0
  7  8  1  0  0  0
  5  9  2  0  0  0
  9 10  1  0  0  0
 10 11  2  0  0  0
 11 12  1  0  0  0
 12 13  2  0  0  0
 13 14  1  0  0  0
 14 15  2  0  0  0
 15 16  1  0  0  0
 15 17  1  0  0  0
 17 18  1  0  0  0
 17 19  2  0  0  0
  9 20  1  0  0  0
 20 21  2  0  0  0
 21 22  1  0  0  0
 22 23  2  0  0  0
 23 24  1  0  0  0
 24 25  1  0  0  0
 24 26  2  0  0  0
  8  2  1  0  0  0
 19 12  1  0  0  0
 26 20  1  0  0  0
 11  4  1  0  0  0
M  END
> <minimizedAffinity>
51.76752

> <CNNscore>
0.4365234971

> <CNNaffinity>
5.5278310776

> <CNN_VS>
2.4130282402

> <CNNaffinity_variance>
0.5735411644

$$$$
[H]c1nc(C([H])([H])[H])c([H])c(-c2nc(-c3c([H])c([H])c(Cl)c(Cl)c3[H])n3c2C([H])([H])C([H])([H])O[C@]([H])(C([H])([H])[H])C3([H])[H])c1[H]


 26 29  0  0  0  0  0  0  0  0999 V2000
   20.3350   11.4940   53.3105 C   0  0  0  0  0  0  0  0  0  0  0  0
   21.6318   10.9378   53.8724 C   0  0  0  0  0  0  0  0  0  0  0  0
   21.3924    9.4256   54.0083 C   0  0  0  0  0  0  0  0  0  0  0  0
   22.6079    8.7073   54.2713 N   0  0  0  0  0  0  0  0  0  0  0  0
   23.7649    9.3437   54.6127 C   0  0  0  0  0  0  0  0  0  0  0  0
   24.0994   10.7288   54.8528 C   0  0  0  0  0  0  0  0  0  0  0  0
   23.0832   11.5865   55.5299 C   0  0  0  0  0  0  0  0  0  0  0  0
   21.7852   11.3910   55.1785 O   0  0  0  0  0  0  0  0  0  0  0  0
   24.6956    8.3348   54.7242 C   0  0  0  0  0  0  0  0  0  0  0  0
   24.0996    7.1914   54.4629 N   0  0  0  0  0  0  0  0  0  0  0  0
   22.7867    7.4079   54.1776 C   0  0  0  0  0  0  0  0  0  0  0  0
   21.8788    6.3309   53.8152 C   0  0  0  0  0  0  0  0  0  0  0  0
   22.4606    5.1024   53.4708 C   0  0  0  0  0  0  0  0  0  0  0  0
   21.6522    4.0432   53.1661 C   0  0  0  0  0  0  0  0  0  0  0  0
   20.2833    4.1509   53.1886 C   0  0  0  0  0  0  0  0  0  0  0  0
   19.3225    2.7600   52.7882 Cl  0  0  0  0  0  0  0  0  0  0  0  0
   19.6905    5.3234   53.5178 C   0  0  0  0  0  0  0  0  0  0  0  0
   17.9496    5.5297   53.5658 Cl  0  0  0  0  0  0  0  0  0  0  0  0
   20.5169    6.4167   53.8330 C   0  0  0  0  0  0  0  0  0  0  0  0
   26.1225    8.4048   55.0673 C   0  0  0  0  0  0  0  0  0  0  0  0
   27.0569    7.9616   54.1609 C   0  0  0  0  0  0  0  0  0  0  0  0
   28.4271    8.0270   54.4520 C   0  0  0  0  0  0  0  0  0  0  0  0
   28.7886    8.5353   55.6412 N   0  0  0  0  0  0  0  0  0  0  0  0
   27.9243    8.9817   56.5621 C   0  0  0  0  0  0  0  0  0  0  0  0
   28.3620    9.5416   57.8761 C   0  0  0  0  0  0  0  0  0  0  0  0
   26.5597    8.9121   56.2619 C   0  0  0  0  0  0  0  0  0  0  0  0
  1  2  1  0  0  0
  2  3  1  0  0  0
  3  4  1  0  0  0
  4  5  1  0  0  0
  5  6  1  0  0  0
  6  7  1  0  0  0
  7  8  1  0  0  0
  5  9  2  0  0  0
  9 10  1  0  0  0
 10 11  2  0  0  0
 11 12  1  0  0  0
 12 13  2  0  0  0
 13 14  1  0  0  0
 14 15  2  0  0  0
 15 16  1  0  0  0
 15 17  1  0  0  0
 17 18  1  0  0  0
 17 19  2  0  0  0
  9 20  1  0  0  0
 20 21  2  0  0  0
 21 22  1  0  0  0
 22 23  2  0  0  0
 23 24  1  0  0  0
 24 25  1  0  0  0
 24 26  2  0  0  0
  8  2  1  0  0  0
 19 12  1  0  0  0
 26 20  1  0  0  0
 11  4  1  0  0  0
M  END
> <minimizedAffinity>
37.19518

> <CNNscore>
0.4171474874

> <CNNaffinity>
6.0860466957

> <CNN_VS>
2.5387790203

> <CNNaffinity_variance>
0.6010398865

$$$$
[H]c1nc(C([H])([H])[H])c([H])c(-c2nc(-c3c([H])c([H])c(Cl)c(Cl)c3[H])n3c2C([H])([H])C([H])([H])O[C@]([H])(C([H])([H])[H])C3([H])[H])c1[H]


 26 29  0  0  0  0  0  0  0  0999 V2000
   19.8966   10.2056   50.9540 C   0  0  0  0  0  0  0  0  0  0  0  0
   21.1024    9.9485   51.8409 C   0  0  0  0  0  0  0  0  0  0  0  0
   20.8560    8.5627   52.4584 C   0  0  0  0  0  0  0  0  0  0  0  0
   22.0256    8.0468   53.1130 N   0  0  0  0  0  0  0  0  0  0  0  0
   23.1170    8.8254   53.3639 C   0  0  0  0  0  0  0  0  0  0  0  0
   23.4041   10.2257   53.1521 C   0  0  0  0  0  0  0  0  0  0  0  0
   22.2952   11.2046   53.3489 C   0  0  0  0  0  0  0  0  0  0  0  0
   21.0628   10.8283   52.9175 O   0  0  0  0  0  0  0  0  0  0  0  0
   24.0285    7.9691   53.9403 C   0  0  0  0  0  0  0  0  0  0  0  0
   23.4841    6.7737   54.0140 N   0  0  0  0  0  0  0  0  0  0  0  0
   22.2247    6.8058   53.4993 C   0  0  0  0  0  0  0  0  0  0  0  0
   21.3858    5.6206   53.4147 C   0  0  0  0  0  0  0  0  0  0  0  0
   22.0163    4.4249   53.0416 C   0  0  0  0  0  0  0  0  0  0  0  0
   21.2839    3.2720   52.9907 C   0  0  0  0  0  0  0  0  0  0  0  0
   19.9451    3.2540   53.2958 C   0  0  0  0  0  0  0  0  0  0  0  0
   19.0813    1.7493   53.2073 Cl  0  0  0  0  0  0  0  0  0  0  0  0
   19.3069    4.3917   53.6603 C   0  0  0  0  0  0  0  0  0  0  0  0
   17.6006    4.4394   54.0624 Cl  0  0  0  0  0  0  0  0  0  0  0  0
   20.0552    5.5812   53.7152 C   0  0  0  0  0  0  0  0  0  0  0  0
   25.3905    8.2320   54.4247 C   0  0  0  0  0  0  0  0  0  0  0  0
   26.4602    7.9888   53.5954 C   0  0  0  0  0  0  0  0  0  0  0  0
   27.7718    8.2417   54.0222 C   0  0  0  0  0  0  0  0  0  0  0  0
   27.9415    8.7270   55.2628 N   0  0  0  0  0  0  0  0  0  0  0  0
   26.9389    8.9831   56.1134 C   0  0  0  0  0  0  0  0  0  0  0  0
   27.1642    9.5234   57.4879 C   0  0  0  0  0  0  0  0  0  0  0  0
   25.6343    8.7274   55.6779 C   0  0  0  0  0  0  0  0  0  0  0  0
  1  2  1  0  0  0
  2  3  1  0  0  0
  3  4  1  0  0  0
  4  5  1  0  0  0
  5  6  1  0  0  0
  6  7  1  0  0  0
  7  8  1  0  0  0
  5  9  2  0  0  0
  9 10  1  0  0  0
 10 11  2  0  0  0
 11 12  1  0  0  0
 12 13  2  0  0  0
 13 14  1  0  0  0
 14 15  2  0  0  0
 15 16  1  0  0  0
 15 17  1  0  0  0
 17 18  1  0  0  0
 17 19  2  0  0  0
  9 20  1  0  0  0
 20 21  2  0  0  0
 21 22  1  0  0  0
 22 23  2  0  0  0
 23 24  1  0  0  0
 24 25  1  0  0  0
 24 26  2  0  0  0
  8  2  1  0  0  0
 19 12  1  0  0  0
 26 20  1  0  0  0
 11  4  1  0  0  0
M  END
> <minimizedAffinity>
36.98776

> <CNNscore>
0.4168729186

> <CNNaffinity>
6.1934256554

> <CNN_VS>
2.5818715096

> <CNNaffinity_variance>
0.7011111975

$$$$
[H]c1nc(C([H])([H])[H])c([H])c(-c2nc(-c3c([H])c([H])c(Cl)c(C([H])([H])[H])c3[H])n3c2C([H])([H])C([H])([H])O[C@]([H])(C([H])([H])[H])C3([H])[H])c1[H]


 26 29  0  0  0  0  0  0  0  0999 V2000
   21.4099   11.8047   51.8729 C   0  0  0  0  0  0  0  0  0  0  0  0
   21.2478   10.3271   52.1444 C   0  0  0  0  0  0  0  0  0  0  0  0
   22.5076    9.7557   52.8017 C   0  0  0  0  0  0  0  0  0  0  0  0
   22.3443    8.3778   53.1155 N   0  0  0  0  0  0  0  0  0  0  0  0
   21.1665    7.7001   52.9302 C   0  0  0  0  0  0  0  0  0  0  0  0
   19.8568    8.0614   52.4093 C   0  0  0  0  0  0  0  0  0  0  0  0
   19.8683    8.9003   51.1659 C   0  0  0  0  0  0  0  0  0  0  0  0
   21.0602    9.5922   50.9897 O   0  0  0  0  0  0  0  0  0  0  0  0
   21.4327    6.4123   53.3478 C   0  0  0  0  0  0  0  0  0  0  0  0
   22.7098    6.3702   53.7492 N   0  0  0  0  0  0  0  0  0  0  0  0
   23.2870    7.5915   53.6087 C   0  0  0  0  0  0  0  0  0  0  0  0
   24.6864    7.8243   53.9394 C   0  0  0  0  0  0  0  0  0  0  0  0
   25.7591    7.3530   53.2493 C   0  0  0  0  0  0  0  0  0  0  0  0
   27.0596    7.6315   53.7159 C   0  0  0  0  0  0  0  0  0  0  0  0
   27.2891    8.3672   54.8495 C   0  0  0  0  0  0  0  0  0  0  0  0
   28.9081    8.7159   55.4336 Cl  0  0  0  0  0  0  0  0  0  0  0  0
   26.2088    8.8420   55.5432 C   0  0  0  0  0  0  0  0  0  0  0  0
   26.3558    9.6543   56.7913 C   0  0  0  0  0  0  0  0  0  0  0  0
   24.9545    8.5800   55.1040 C   0  0  0  0  0  0  0  0  0  0  0  0
   20.5873    5.2358   53.3935 C   0  0  0  0  0  0  0  0  0  0  0  0
   21.0887    4.0084   53.0334 C   0  0  0  0  0  0  0  0  0  0  0  0
   20.2815    2.8617   53.1029 C   0  0  0  0  0  0  0  0  0  0  0  0
   19.0109    2.9792   53.5265 N   0  0  0  0  0  0  0  0  0  0  0  0
   18.4862    4.1681   53.8877 C   0  0  0  0  0  0  0  0  0  0  0  0
   17.0832    4.2363   54.3454 C   0  0  0  0  0  0  0  0  0  0  0  0
   19.2925    5.3150   53.8185 C   0  0  0  0  0  0  0  0  0  0  0  0
  1  2  1  0  0  0
  2  3  1  0  0  0
  3  4  1  0  0  0
  4  5  1  0  0  0
  5  6  1  0  0  0
  6  7  1  0  0  0
  7  8  1  0  0  0
  5  9  2  0  0  0
  9 10  1  0  0  0
 10 11  2  0  0  0
 11 12  1  0  0  0
 12 13  2  0  0  0
 13 14  1  0  0  0
 14 15  2  0  0  0
 15 16  1  0  0  0
 15 17  1  0  0  0
 17 18  1  0  0  0
 17 19  2  0  0  0
  9 20  1  0  0  0
 20 21  2  0  0  0
 21 22  1  0  0  0
 22 23  2  0  0  0
 23 24  1  0  0  0
 24 25  1  0  0  0
 24 26  2  0  0  0
  8  2  1  0  0  0
 19 12  1  0  0  0
 26 20  1  0  0  0
 11  4  1  0  0  0
M  END
> <minimizedAffinity>
24.42177

> <CNNscore>
0.5302368402

> <CNNaffinity>
6.4735069275

> <CNN_VS>
3.4324917793

> <CNNaffinity_variance>
0.6799931526

$$$$
[H]c1nc(C([H])([H])[H])c([H])c(-c2nc(-c3c([H])c([H])c(Cl)c(C([H])([H])[H])c3[H])n3c2C([H])([H])C([H])([H])O[C@]([H])(C([H])([H])[H])C3([H])[H])c1[H]


 26 29  0  0  0  0  0  0  0  0999 V2000
   21.2806   11.8283   51.5863 C   0  0  0  0  0  0  0  0  0  0  0  0
   21.1415   10.3700   51.9570 C   0  0  0  0  0  0  0  0  0  0  0  0
   22.2321    9.9571   52.9497 C   0  0  0  0  0  0  0  0  0  0  0  0
   22.0757    8.6013   53.3512 N   0  0  0  0  0  0  0  0  0  0  0  0
   21.0200    7.8190   52.9583 C   0  0  0  0  0  0  0  0  0  0  0  0
   19.8596    8.0306   52.1063 C   0  0  0  0  0  0  0  0  0  0  0  0
   20.1278    8.7620   50.8244 C   0  0  0  0  0  0  0  0  0  0  0  0
   21.2850    9.5295   50.8701 O   0  0  0  0  0  0  0  0  0  0  0  0
   21.2487    6.5955   53.5536 C   0  0  0  0  0  0  0  0  0  0  0  0
   22.3886    6.6885   54.2506 N   0  0  0  0  0  0  0  0  0  0  0  0
   22.9120    7.9360   54.1311 C   0  0  0  0  0  0  0  0  0  0  0  0
   24.1719    8.3060   54.7616 C   0  0  0  0  0  0  0  0  0  0  0  0
   24.3115    9.0538   55.8887 C   0  0  0  0  0  0  0  0  0  0  0  0
   25.6037    9.3628   56.3592 C   0  0  0  0  0  0  0  0  0  0  0  0
   26.7379    8.9343   55.7198 C   0  0  0  0  0  0  0  0  0  0  0  0
   28.3492    9.3177   56.3034 Cl  0  0  0  0  0  0  0  0  0  0  0  0
   26.5966    8.1809   54.5858 C   0  0  0  0  0  0  0  0  0  0  0  0
   27.7731    7.6665   53.8174 C   0  0  0  0  0  0  0  0  0  0  0  0
   25.3595    7.8784   54.1244 C   0  0  0  0  0  0  0  0  0  0  0  0
   20.4864    5.3633   53.5130 C   0  0  0  0  0  0  0  0  0  0  0  0
   21.0825    4.1933   53.1086 C   0  0  0  0  0  0  0  0  0  0  0  0
   20.3556    2.9922   53.0945 C   0  0  0  0  0  0  0  0  0  0  0  0
   19.0681    3.0006   53.4818 N   0  0  0  0  0  0  0  0  0  0  0  0
   18.4515    4.1306   53.8846 C   0  0  0  0  0  0  0  0  0  0  0  0
   17.0345    4.0791   54.2992 C   0  0  0  0  0  0  0  0  0  0  0  0
   19.1775    5.3319   53.8990 C   0  0  0  0  0  0  0  0  0  0  0  0
  1  2  1  0  0  0
  2  3  1  0  0  0
  3  4  1  0  0  0
  4  5  1  0  0  0
  5  6  1  0  0  0
  6  7  1  0  0  0
  7  8  1  0  0  0
  5  9  2  0  0  0
  9 10  1  0  0  0
 10 11  2  0  0  0
 11 12  1  0  0  0
 12 13  2  0  0  0
 13 14  1  0  0  0
 14 15  2  0  0  0
 15 16  1  0  0  0
 15 17  1  0  0  0
 17 18  1  0  0  0
 17 19  2  0  0  0
  9 20  1  0  0  0
 20 21  2  0  0  0
 21 22  1  0  0  0
 22 23  2  0  0  0
 23 24  1  0  0  0
 24 25  1  0  0  0
 24 26  2  0  0  0
  8  2  1  0  0  0
 19 12  1  0  0  0
 26 20  1  0  0  0
 11  4  1  0  0  0
M  END
> <minimizedAffinity>
23.77997

> <CNNscore>
0.4877950251

> <CNNaffinity>
6.5397095680

> <CNN_VS>
3.1900377274

> <CNNaffinity_variance>
0.7897731066

$$$$
[H]c1nc(C([H])([H])[H])c([H])c(-c2nc(-c3c([H])c([H])c(Cl)c(C([H])([H])[H])c3[H])n3c2C([H])([H])C([H])([H])O[C@]([H])(C([H])([H])[H])C3([H])[H])c1[H]


 26 29  0  0  0  0  0  0  0  0999 V2000
   19.8209   11.0676   54.9126 C   0  0  0  0  0  0  0  0  0  0  0  0
   21.1967   10.4454   54.9707 C   0  0  0  0  0  0  0  0  0  0  0  0
   21.1578    8.9975   54.4733 C   0  0  0  0  0  0  0  0  0  0  0  0
   22.4580    8.4202   54.4682 N   0  0  0  0  0  0  0  0  0  0  0  0
   23.5930    9.1236   54.7814 C   0  0  0  0  0  0  0  0  0  0  0  0
   23.8589   10.4942   55.1913 C   0  0  0  0  0  0  0  0  0  0  0  0
   22.9198   11.0517   56.2196 C   0  0  0  0  0  0  0  0  0  0  0  0
   21.6998   10.3879   56.2560 O   0  0  0  0  0  0  0  0  0  0  0  0
   24.6181    8.2081   54.6613 C   0  0  0  0  0  0  0  0  0  0  0  0
   24.0781    7.0377   54.2972 N   0  0  0  0  0  0  0  0  0  0  0  0
   22.7312    7.1597   54.1736 C   0  0  0  0  0  0  0  0  0  0  0  0
   21.8849    6.0283   53.8198 C   0  0  0  0  0  0  0  0  0  0  0  0
   22.3161    4.7874   53.4688 C   0  0  0  0  0  0  0  0  0  0  0  0
   21.3737    3.8013   53.1139 C   0  0  0  0  0  0  0  0  0  0  0  0
   20.0248    4.0452   53.1091 C   0  0  0  0  0  0  0  0  0  0  0  0
   18.8480    2.8189   52.6673 Cl  0  0  0  0  0  0  0  0  0  0  0  0
   19.5914    5.2944   53.4633 C   0  0  0  0  0  0  0  0  0  0  0  0
   18.1402    5.6583   53.4891 C   0  0  0  0  0  0  0  0  0  0  0  0
   20.4884    6.2498   53.8058 C   0  0  0  0  0  0  0  0  0  0  0  0
   26.0463    8.3508   54.8636 C   0  0  0  0  0  0  0  0  0  0  0  0
   26.9262    7.9780   53.8765 C   0  0  0  0  0  0  0  0  0  0  0  0
   28.3090    8.1405   54.0573 C   0  0  0  0  0  0  0  0  0  0  0  0
   28.7623    8.6659   55.2089 N   0  0  0  0  0  0  0  0  0  0  0  0
   27.9271    9.0427   56.1988 C   0  0  0  0  0  0  0  0  0  0  0  0
   28.4826    9.6141   57.4426 C   0  0  0  0  0  0  0  0  0  0  0  0
   26.5444    8.8805   56.0189 C   0  0  0  0  0  0  0  0  0  0  0  0
  1  2  1  0  0  0
  2  3  1  0  0  0
  3  4  1  0  0  0
  4  5  1  0  0  0
  5  6  1  0  0  0
  6  7  1  0  0  0
  7  8  1  0  0  0
  5  9  2  0  0  0
  9 10  1  0  0  0
 10 11  2  0  0  0
 11 12  1  0  0  0
 12 13  2  0  0  0
 13 14  1  0  0  0
 14 15  2  0  0  0
 15 16  1  0  0  0
 15 17  1  0  0  0
 17 18  1  0  0  0
 17 19  2  0  0  0
  9 20  1  0  0  0
 20 21  2  0  0  0
 21 22  1  0  0  0
 22 23  2  0  0  0
 23 24  1  0  0  0
 24 25  1  0  0  0
 24 26  2  0  0  0
  8  2  1  0  0  0
 19 12  1  0  0  0
 26 20  1  0  0  0
 11  4  1  0  0  0
M  END
> <minimizedAffinity>
35.25855

> <CNNscore>
0.4868271351

> <CNNaffinity>
6.1527881622

> <CNN_VS>
2.9953441620

> <CNNaffinity_variance>
0.4316755235

$$$$
[H]c1nc(C([H])([H])[H])c([H])c(-c2nc(-c3c([H])c([H])c(Cl)c(C([H])([H])[H])c3[H])n3c2C([H])([H])C([H])([H])O[C@]([H])(C([H])([H])[H])C3([H])[H])c1[H]


 26 29  0  0  0  0  0  0  0  0999 V2000
   21.2305   11.1887   55.3148 C   0  0  0  0  0  0  0  0  0  0  0  0
   22.0124    9.9851   54.8423 C   0  0  0  0  0  0  0  0  0  0  0  0
   23.3759    9.9183   55.5364 C   0  0  0  0  0  0  0  0  0  0  0  0
   24.0971    8.7568   55.1430 N   0  0  0  0  0  0  0  0  0  0  0  0
   23.5742    7.7908   54.3218 C   0  0  0  0  0  0  0  0  0  0  0  0
   22.3032    7.6197   53.6345 C   0  0  0  0  0  0  0  0  0  0  0  0
   21.7662    8.8474   52.9605 C   0  0  0  0  0  0  0  0  0  0  0  0
   22.2817   10.0248   53.4879 O   0  0  0  0  0  0  0  0  0  0  0  0
   24.5829    6.8588   54.1893 C   0  0  0  0  0  0  0  0  0  0  0  0
   25.6299    7.2872   54.9064 N   0  0  0  0  0  0  0  0  0  0  0  0
   25.3367    8.4701   55.5056 C   0  0  0  0  0  0  0  0  0  0  0  0
   26.3105    9.1817   56.3223 C   0  0  0  0  0  0  0  0  0  0  0  0
   27.2482    8.6116   57.1252 C   0  0  0  0  0  0  0  0  0  0  0  0
   28.0999    9.4355   57.8884 C   0  0  0  0  0  0  0  0  0  0  0  0
   28.0208   10.8035   57.8527 C   0  0  0  0  0  0  0  0  0  0  0  0
   29.0804   11.8327   58.8023 Cl  0  0  0  0  0  0  0  0  0  0  0  0
   27.0772   11.3767   57.0435 C   0  0  0  0  0  0  0  0  0  0  0  0
   26.9125   12.8600   56.9359 C   0  0  0  0  0  0  0  0  0  0  0  0
   26.2531   10.5944   56.3061 C   0  0  0  0  0  0  0  0  0  0  0  0
   24.6340    5.6152   53.4465 C   0  0  0  0  0  0  0  0  0  0  0  0
   24.3767    4.4214   54.0761 C   0  0  0  0  0  0  0  0  0  0  0  0
   24.3977    3.2173   53.3544 C   0  0  0  0  0  0  0  0  0  0  0  0
   24.6727    3.2463   52.0386 N   0  0  0  0  0  0  0  0  0  0  0  0
   24.9299    4.3999   51.3888 C   0  0  0  0  0  0  0  0  0  0  0  0
   25.2259    4.3704   49.9417 C   0  0  0  0  0  0  0  0  0  0  0  0
   24.9092    5.6042   52.1095 C   0  0  0  0  0  0  0  0  0  0  0  0
  1  2  1  0  0  0
  2  3  1  0  0  0
  3  4  1  0  0  0
  4  5  1  0  0  0
  5  6  1  0  0  0
  6  7  1  0  0  0
  7  8  1  0  0  0
  5  9  2  0  0  0
  9 10  1  0  0  0
 10 11  2  0  0  0
 11 12  1  0  0  0
 12 13  2  0  0  0
 13 14  1  0  0  0
 14 15  2  0  0  0
 15 16  1  0  0  0
 15 17  1  0  0  0
 17 18  1  0  0  0
 17 19  2  0  0  0
  9 20  1  0  0  0
 20 21  2  0  0  0
 21 22  1  0  0  0
 22 23  2  0  0  0
 23 24  1  0  0  0
 24 25  1  0  0  0
 24 26  2  0  0  0
  8  2  1  0  0  0
 19 12  1  0  0  0
 26 20  1  0  0  0
 11  4  1  0  0  0
M  END
> <minimizedAffinity>
55.34977

> <CNNscore>
0.4867968559

> <CNNaffinity>
5.4773979187

> <CNN_VS>
2.6663801670

> <CNNaffinity_variance>
0.4014165998

$$$$
[H]c1nc(C([H])([H])[H])c([H])c(-c2nc(-c3c([H])c([H])c(Cl)c(C([H])([H])[H])c3[H])n3c2C([H])([H])C([H])([H])O[C@]([H])(C([H])([H])[H])C3([H])[H])c1[H]


 26 29  0  0  0  0  0  0  0  0999 V2000
   21.0251   11.6704   55.0545 C   0  0  0  0  0  0  0  0  0  0  0  0
   21.0423   10.2132   54.6549 C   0  0  0  0  0  0  0  0  0  0  0  0
   22.4729    9.6666   54.6611 C   0  0  0  0  0  0  0  0  0  0  0  0
   22.4952    8.2800   54.3435 N   0  0  0  0  0  0  0  0  0  0  0  0
   21.3595    7.5345   54.1558 C   0  0  0  0  0  0  0  0  0  0  0  0
   19.9346    7.8281   54.1831 C   0  0  0  0  0  0  0  0  0  0  0  0
   19.5258    9.0960   53.4936 C   0  0  0  0  0  0  0  0  0  0  0  0
   20.5671   10.0080   53.3740 O   0  0  0  0  0  0  0  0  0  0  0  0
   21.8163    6.2652   53.8664 C   0  0  0  0  0  0  0  0  0  0  0  0
   23.1551    6.2992   53.8891 N   0  0  0  0  0  0  0  0  0  0  0  0
   23.5883    7.5516   54.1863 C   0  0  0  0  0  0  0  0  0  0  0  0
   25.0056    7.8824   54.2442 C   0  0  0  0  0  0  0  0  0  0  0  0
   25.9300    7.6063   53.2858 C   0  0  0  0  0  0  0  0  0  0  0  0
   27.2780    7.9562   53.5025 C   0  0  0  0  0  0  0  0  0  0  0  0
   27.6994    8.5713   54.6527 C   0  0  0  0  0  0  0  0  0  0  0  0
   29.3781    9.0085   54.9256 Cl  0  0  0  0  0  0  0  0  0  0  0  0
   26.7682    8.8498   55.6166 C   0  0  0  0  0  0  0  0  0  0  0  0
   27.1290    9.5188   56.9055 C   0  0  0  0  0  0  0  0  0  0  0  0
   25.4699    8.5175   55.4191 C   0  0  0  0  0  0  0  0  0  0  0  0
   21.0966    5.0420   53.5717 C   0  0  0  0  0  0  0  0  0  0  0  0
   21.7713    3.9329   53.1216 C   0  0  0  0  0  0  0  0  0  0  0  0
   21.0821    2.7376   52.8617 C   0  0  0  0  0  0  0  0  0  0  0  0
   19.7528    2.6912   53.0587 N   0  0  0  0  0  0  0  0  0  0  0  0
   19.0591    3.7606   53.4996 C   0  0  0  0  0  0  0  0  0  0  0  0
   17.5992    3.6507   53.6977 C   0  0  0  0  0  0  0  0  0  0  0  0
   19.7473    4.9560   53.7597 C   0  0  0  0  0  0  0  0  0  0  0  0
  1  2  1  0  0  0
  2  3  1  0  0  0
  3  4  1  0  0  0
  4  5  1  0  0  0
  5  6  1  0  0  0
  6  7  1  0  0  0
  7  8  1  0  0  0
  5  9  2  0  0  0
  9 10  1  0  0  0
 10 11  2  0  0  0
 11 12  1  0  0  0
 12 13  2  0  0  0
 13 14  1  0  0  0
 14 15  2  0  0  0
 15 16  1  0  0  0
 15 17  1  0  0  0
 17 18  1  0  0  0
 17 19  2  0  0  0
  9 20  1  0  0  0
 20 21  2  0  0  0
 21 22  1  0  0  0
 22 23  2  0  0  0
 23 24  1  0  0  0
 24 25  1  0  0  0
 24 26  2  0  0  0
  8  2  1  0  0  0
 19 12  1  0  0  0
 26 20  1  0  0  0
 11  4  1  0  0  0
M  END
> <minimizedAffinity>
35.02584

> <CNNscore>
0.4738757014

> <CNNaffinity>
6.2525238991

> <CNN_VS>
2.9629192352

> <CNNaffinity_variance>
1.0480114222

$$$$
[H]c1nc(C([H])([H])[H])c([H])c(-c2nc(-c3c([H])c([H])c(Cl)c(C([H])([H])[H])c3[H])n3c2C([H])([H])C([H])([H])O[C@]([H])(C([H])([H])[H])C3([H])[H])c1[H]


 26 29  0  0  0  0  0  0  0  0999 V2000
   21.4292    4.6194   53.5970 C   0  0  0  0  0  0  0  0  0  0  0  0
   21.4580    6.1109   53.3563 C   0  0  0  0  0  0  0  0  0  0  0  0
   22.8742    6.6627   53.5444 C   0  0  0  0  0  0  0  0  0  0  0  0
   22.9249    8.0563   53.2629 N   0  0  0  0  0  0  0  0  0  0  0  0
   21.8501    8.7668   52.7927 C   0  0  0  0  0  0  0  0  0  0  0  0
   20.4705    8.4315   52.4743 C   0  0  0  0  0  0  0  0  0  0  0  0
   19.7779    7.5465   53.4679 C   0  0  0  0  0  0  0  0  0  0  0  0
   20.6620    6.8078   54.2445 O   0  0  0  0  0  0  0  0  0  0  0  0
   22.3142   10.0593   52.6605 C   0  0  0  0  0  0  0  0  0  0  0  0
   23.5975   10.0724   53.0436 N   0  0  0  0  0  0  0  0  0  0  0  0
   23.9881    8.8276   53.4207 C   0  0  0  0  0  0  0  0  0  0  0  0
   25.3311    8.5593   53.9167 C   0  0  0  0  0  0  0  0  0  0  0  0
   26.2750    7.8021   53.2963 C   0  0  0  0  0  0  0  0  0  0  0  0
   27.5222    7.6009   53.9214 C   0  0  0  0  0  0  0  0  0  0  0  0
   27.8256    8.1446   55.1426 C   0  0  0  0  0  0  0  0  0  0  0  0
   29.3785    7.8959   55.9240 Cl  0  0  0  0  0  0  0  0  0  0  0  0
   26.8753    8.9074   55.7660 C   0  0  0  0  0  0  0  0  0  0  0  0
   27.1110    9.5435   57.0998 C   0  0  0  0  0  0  0  0  0  0  0  0
   25.6731    9.1069   55.1746 C   0  0  0  0  0  0  0  0  0  0  0  0
   21.6480   11.2652   52.2098 C   0  0  0  0  0  0  0  0  0  0  0  0
   21.4277   12.3024   53.0836 C   0  0  0  0  0  0  0  0  0  0  0  0
   20.8079   13.4832   52.6445 C   0  0  0  0  0  0  0  0  0  0  0  0
   20.4323   13.5871   51.3577 N   0  0  0  0  0  0  0  0  0  0  0  0
   20.6330   12.5889   50.4730 C   0  0  0  0  0  0  0  0  0  0  0  0
   20.1990   12.7596   49.0712 C   0  0  0  0  0  0  0  0  0  0  0  0
   21.2525   11.4079   50.9112 C   0  0  0  0  0  0  0  0  0  0  0  0
  1  2  1  0  0  0
  2  3  1  0  0  0
  3  4  1  0  0  0
  4  5  1  0  0  0
  5  6  1  0  0  0
  6  7  1  0  0  0
  7  8  1  0  0  0
  5  9  2  0  0  0
  9 10  1  0  0  0
 10 11  2  0  0  0
 11 12  1  0  0  0
 12 13  2  0  0  0
 13 14  1  0  0  0
 14 15  2  0  0  0
 15 16  1  0  0  0
 15 17  1  0  0  0
 17 18  1  0  0  0
 17 19  2  0  0  0
  9 20  1  0  0  0
 20 21  2  0  0  0
 21 22  1  0  0  0
 22 23  2  0  0  0
 23 24  1  0  0  0
 24 25  1  0  0  0
 24 26  2  0  0  0
  8  2  1  0  0  0
 19 12  1  0  0  0
 26 20  1  0  0  0
 11  4  1  0  0  0
M  END
> <minimizedAffinity>
38.55940

> <CNNscore>
0.4689008296

> <CNNaffinity>
5.8218970299

> <CNN_VS>
2.7298922539

> <CNNaffinity_variance>
0.4644840360

$$$$
[H]c1nc(C([H])([H])[H])c([H])c(-c2nc(-c3c([H])c([H])c(Cl)c(C([H])([H])[H])c3[H])n3c2C([H])([H])C([H])([H])O[C@]([H])(C([H])([H])[H])C3([H])[H])c1[H]


 26 29  0  0  0  0  0  0  0  0999 V2000
   19.9567   11.3472   55.1588 C   0  0  0  0  0  0  0  0  0  0  0  0
   21.1861   10.4841   54.9940 C   0  0  0  0  0  0  0  0  0  0  0  0
   20.8073    9.0967   54.4676 C   0  0  0  0  0  0  0  0  0  0  0  0
   21.9626    8.2949   54.2527 N   0  0  0  0  0  0  0  0  0  0  0  0
   23.2417    8.7631   54.4129 C   0  0  0  0  0  0  0  0  0  0  0  0
   23.8144   10.0383   54.8168 C   0  0  0  0  0  0  0  0  0  0  0  0
   23.1509   10.6990   55.9887 C   0  0  0  0  0  0  0  0  0  0  0  0
   21.8459   10.2658   56.1879 O   0  0  0  0  0  0  0  0  0  0  0  0
   24.0501    7.6852   54.1159 C   0  0  0  0  0  0  0  0  0  0  0  0
   23.2549    6.6536   53.8038 N   0  0  0  0  0  0  0  0  0  0  0  0
   21.9509    7.0239   53.8856 C   0  0  0  0  0  0  0  0  0  0  0  0
   20.8665    6.0855   53.6303 C   0  0  0  0  0  0  0  0  0  0  0  0
   19.5409    6.3868   53.5970 C   0  0  0  0  0  0  0  0  0  0  0  0
   18.6024    5.3590   53.3746 C   0  0  0  0  0  0  0  0  0  0  0  0
   18.9763    4.0536   53.1876 C   0  0  0  0  0  0  0  0  0  0  0  0
   17.8095    2.7708   52.9103 Cl  0  0  0  0  0  0  0  0  0  0  0  0
   20.3109    3.7512   53.2204 C   0  0  0  0  0  0  0  0  0  0  0  0
   20.8185    2.3569   53.0271 C   0  0  0  0  0  0  0  0  0  0  0  0
   21.2215    4.7310   53.4338 C   0  0  0  0  0  0  0  0  0  0  0  0
   25.4938    7.5558   54.1072 C   0  0  0  0  0  0  0  0  0  0  0  0
   26.0918    6.5160   53.4372 C   0  0  0  0  0  0  0  0  0  0  0  0
   27.4908    6.4027   53.4027 C   0  0  0  0  0  0  0  0  0  0  0  0
   28.2390    7.3246   54.0336 N   0  0  0  0  0  0  0  0  0  0  0  0
   27.6854    8.3579   54.7006 C   0  0  0  0  0  0  0  0  0  0  0  0
   28.5580    9.3407   55.3754 C   0  0  0  0  0  0  0  0  0  0  0  0
   26.2868    8.4721   54.7357 C   0  0  0  0  0  0  0  0  0  0  0  0
  1  2  1  0  0  0
  2  3  1  0  0  0
  3  4  1  0  0  0
  4  5  1  0  0  0
  5  6  1  0  0  0
  6  7  1  0  0  0
  7  8  1  0  0  0
  5  9  2  0  0  0
  9 10  1  0  0  0
 10 11  2  0  0  0
 11 12  1  0  0  0
 12 13  2  0  0  0
 13 14  1  0  0  0
 14 15  2  0  0  0
 15 16  1  0  0  0
 15 17  1  0  0  0
 17 18  1  0  0  0
 17 19  2  0  0  0
  9 20  1  0  0  0
 20 21  2  0  0  0
 21 22  1  0  0  0
 22 23  2  0  0  0
 23 24  1  0  0  0
 24 25  1  0  0  0
 24 26  2  0  0  0
  8  2  1  0  0  0
 19 12  1  0  0  0
 26 20  1  0  0  0
 11  4  1  0  0  0
M  END
> <minimizedAffinity>
38.44951

> <CNNscore>
0.4606532753

> <CNNaffinity>
6.2053403854

> <CNN_VS>
2.8585102558

> <CNNaffinity_variance>
0.7377759218

$$$$
[H]c1nc(C([H])([H])[H])c([H])c(-c2nc(-c3c([H])c([H])c(Cl)c(C([H])([H])[H])c3[H])n3c2C([H])([H])C([H])([H])O[C@]([H])(C([H])([H])[H])C3([H])[H])c1[H]


 26 29  0  0  0  0  0  0  0  0999 V2000
   20.5068    5.3109   53.3427 C   0  0  0  0  0  0  0  0  0  0  0  0
   21.8048    6.0154   53.6623 C   0  0  0  0  0  0  0  0  0  0  0  0
   21.5803    7.5231   53.8113 C   0  0  0  0  0  0  0  0  0  0  0  0
   22.7848    8.1895   54.1703 N   0  0  0  0  0  0  0  0  0  0  0  0
   23.9573    7.5297   54.4361 C   0  0  0  0  0  0  0  0  0  0  0  0
   24.3602    6.1315   54.4334 C   0  0  0  0  0  0  0  0  0  0  0  0
   23.8693    5.3230   53.2692 C   0  0  0  0  0  0  0  0  0  0  0  0
   22.7470    5.8728   52.6622 O   0  0  0  0  0  0  0  0  0  0  0  0
   24.8626    8.5277   54.7327 C   0  0  0  0  0  0  0  0  0  0  0  0
   24.2227    9.7002   54.6346 N   0  0  0  0  0  0  0  0  0  0  0  0
   22.9259    9.5000   54.2848 C   0  0  0  0  0  0  0  0  0  0  0  0
   22.0051   10.6088   54.0746 C   0  0  0  0  0  0  0  0  0  0  0  0
   21.0648   11.0440   54.9553 C   0  0  0  0  0  0  0  0  0  0  0  0
   20.2170   12.1101   54.5928 C   0  0  0  0  0  0  0  0  0  0  0  0
   20.3037   12.7334   53.3750 C   0  0  0  0  0  0  0  0  0  0  0  0
   19.2490   14.0617   52.9203 Cl  0  0  0  0  0  0  0  0  0  0  0  0
   21.2510   12.2953   52.4893 C   0  0  0  0  0  0  0  0  0  0  0  0
   21.4240   12.9106   51.1363 C   0  0  0  0  0  0  0  0  0  0  0  0
   22.0708   11.2712   52.8271 C   0  0  0  0  0  0  0  0  0  0  0  0
   26.2650    8.4602   55.0931 C   0  0  0  0  0  0  0  0  0  0  0  0
   27.1832    7.9467   54.2094 C   0  0  0  0  0  0  0  0  0  0  0  0
   28.5462    7.9052   54.5434 C   0  0  0  0  0  0  0  0  0  0  0  0
   28.9427    8.3745   55.7394 N   0  0  0  0  0  0  0  0  0  0  0  0
   28.0688    8.8853   56.6308 C   0  0  0  0  0  0  0  0  0  0  0  0
   28.5624    9.3864   57.9299 C   0  0  0  0  0  0  0  0  0  0  0  0
   26.7058    8.9271   56.2977 C   0  0  0  0  0  0  0  0  0  0  0  0
  1  2  1  0  0  0
  2  3  1  0  0  0
  3  4  1  0  0  0
  4  5  1  0  0  0
  5  6  1  0  0  0
  6  7  1  0  0  0
  7  8  1  0  0  0
  5  9  2  0  0  0
  9 10  1  0  0  0
 10 11  2  0  0  0
 11 12  1  0  0  0
 12 13  2  0  0  0
 13 14  1  0  0  0
 14 15  2  0  0  0
 15 16  1  0  0  0
 15 17  1  0  0  0
 17 18  1  0  0  0
 17 19  2  0  0  0
  9 20  1  0  0  0
 20 21  2  0  0  0
 21 22  1  0  0  0
 22 23  2  0  0  0
 23 24  1  0  0  0
 24 25  1  0  0  0
 24 26  2  0  0  0
  8  2  1  0  0  0
 19 12  1  0  0  0
 26 20  1  0  0  0
 11  4  1  0  0  0
M  END
> <minimizedAffinity>
28.69872

> <CNNscore>
0.4590280354

> <CNNaffinity>
5.7439413071

> <CNN_VS>
2.6366300583

> <CNNaffinity_variance>
0.1864256114

$$$$
[H]c1nc(C([H])([H])[H])c([H])c(-c2nc(-c3c([H])c([H])c(Cl)c(C([H])([H])[H])c3[H])n3c2C([H])([H])C([H])([H])O[C@]([H])(C([H])([H])[H])C3([H])[H])c1[H]


 26 29  0  0  0  0  0  0  0  0999 V2000
   21.2337   11.5805   55.2437 C   0  0  0  0  0  0  0  0  0  0  0  0
   21.1444   10.1348   54.8132 C   0  0  0  0  0  0  0  0  0  0  0  0
   22.5371    9.5004   54.7534 C   0  0  0  0  0  0  0  0  0  0  0  0
   22.4604    8.1230   54.4061 N   0  0  0  0  0  0  0  0  0  0  0  0
   21.2740    7.4539   54.2462 C   0  0  0  0  0  0  0  0  0  0  0  0
   19.8723    7.8346   54.3341 C   0  0  0  0  0  0  0  0  0  0  0  0
   19.5190    9.1412   53.6875 C   0  0  0  0  0  0  0  0  0  0  0  0
   20.6105    9.9894   53.5474 O   0  0  0  0  0  0  0  0  0  0  0  0
   21.6392    6.1658   53.9130 C   0  0  0  0  0  0  0  0  0  0  0  0
   22.9773    6.1162   53.8854 N   0  0  0  0  0  0  0  0  0  0  0  0
   23.4991    7.3319   54.1921 C   0  0  0  0  0  0  0  0  0  0  0  0
   24.9356    7.5728   54.2028 C   0  0  0  0  0  0  0  0  0  0  0  0
   25.8359    7.0724   53.3150 C   0  0  0  0  0  0  0  0  0  0  0  0
   27.2051    7.3643   53.4781 C   0  0  0  0  0  0  0  0  0  0  0  0
   27.6708    8.1417   54.5066 C   0  0  0  0  0  0  0  0  0  0  0  0
   29.3761    8.5072   54.7126 Cl  0  0  0  0  0  0  0  0  0  0  0  0
   26.7639    8.6458   55.3993 C   0  0  0  0  0  0  0  0  0  0  0  0
   27.1734    9.5044   56.5545 C   0  0  0  0  0  0  0  0  0  0  0  0
   25.4456    8.3713   55.2524 C   0  0  0  0  0  0  0  0  0  0  0  0
   20.8336    4.9969   53.6204 C   0  0  0  0  0  0  0  0  0  0  0  0
   19.4639    5.0600   53.7084 C   0  0  0  0  0  0  0  0  0  0  0  0
   18.6785    3.9383   53.3987 C   0  0  0  0  0  0  0  0  0  0  0  0
   19.2832    2.8004   53.0147 N   0  0  0  0  0  0  0  0  0  0  0  0
   20.6249    2.7032   52.9175 C   0  0  0  0  0  0  0  0  0  0  0  0
   21.2337    1.4267   52.4901 C   0  0  0  0  0  0  0  0  0  0  0  0
   21.4110    3.8242   53.2269 C   0  0  0  0  0  0  0  0  0  0  0  0
  1  2  1  0  0  0
  2  3  1  0  0  0
  3  4  1  0  0  0
  4  5  1  0  0  0
  5  6  1  0  0  0
  6  7  1  0  0  0
  7  8  1  0  0  0
  5  9  2  0  0  0
  9 10  1  0  0  0
 10 11  2  0  0  0
 11 12  1  0  0  0
 12 13  2  0  0  0
 13 14  1  0  0  0
 14 15  2  0  0  0
 15 16  1  0  0  0
 15 17  1  0  0  0
 17 18  1  0  0  0
 17 19  2  0  0  0
  9 20  1  0  0  0
 20 21  2  0  0  0
 21 22  1  0  0  0
 22 23  2  0  0  0
 23 24  1  0  0  0
 24 25  1  0  0  0
 24 26  2  0  0  0
  8  2  1  0  0  0
 19 12  1  0  0  0
 26 20  1  0  0  0
 11  4  1  0  0  0
M  END
> <minimizedAffinity>
38.01431

> <CNNscore>
0.4562627673

> <CNNaffinity>
6.1727247238

> <CNN_VS>
2.8163845539

> <CNNaffinity_variance>
1.0423946381

$$$$
[H]c1nc(C([H])([H])[H])c([H])c(-c2nc(-c3c([H])c([H])c(OC([H])(F)F)c(Cl)c3[H])n3c2C([H])([H])C([H])([H])O[C@]([H])(C([H])([H])[H])C3([H])[H])c1[H]


 29 32  0  0  0  0  0  0  0  0999 V2000
   21.4356   11.4284   51.9048 C   0  0  0  0  0  0  0  0  0  0  0  0
   21.6936   10.2280   52.7641 C   0  0  0  0  0  0  0  0  0  0  0  0
   22.5747    9.2057   52.0511 C   0  0  0  0  0  0  0  0  0  0  0  0
   22.3635    7.8870   52.6589 N   0  0  0  0  0  0  0  0  0  0  0  0
   21.2176    7.1504   52.5229 C   0  0  0  0  0  0  0  0  0  0  0  0
   20.0330    7.6446   51.7693 C   0  0  0  0  0  0  0  0  0  0  0  0
   19.7676    9.0874   52.1198 C   0  0  0  0  0  0  0  0  0  0  0  0
   20.5098    9.5787   53.1614 O   0  0  0  0  0  0  0  0  0  0  0  0
   21.3838    5.9718   53.1661 C   0  0  0  0  0  0  0  0  0  0  0  0
   22.6021    5.9919   53.6814 N   0  0  0  0  0  0  0  0  0  0  0  0
   23.2184    7.1873   53.3703 C   0  0  0  0  0  0  0  0  0  0  0  0
   24.5966    7.4483   53.8037 C   0  0  0  0  0  0  0  0  0  0  0  0
   25.0665    7.1439   55.0313 C   0  0  0  0  0  0  0  0  0  0  0  0
   26.3770    7.4925   55.3876 C   0  0  0  0  0  0  0  0  0  0  0  0
   27.2156    8.1342   54.5379 C   0  0  0  0  0  0  0  0  0  0  0  0
   26.7287    8.4499   53.2593 C   0  0  0  0  0  0  0  0  0  0  0  0
   27.7661    9.2792   52.1135 Cl  0  0  0  0  0  0  0  0  0  0  0  0
   25.4544    8.1140   52.9075 C   0  0  0  0  0  0  0  0  0  0  0  0
   28.4976    8.5029   54.8154 O   0  0  0  0  0  0  0  0  0  0  0  0
   28.8816    9.6189   55.5255 C   0  0  0  0  0  0  0  0  0  0  0  0
   27.8726    9.9933   56.4309 F   0  0  0  0  0  0  0  0  0  0  0  0
   29.1668   10.7120   54.7186 F   0  0  0  0  0  0  0  0  0  0  0  0
   20.4079    4.8590   53.2669 C   0  0  0  0  0  0  0  0  0  0  0  0
   20.7163    3.5786   52.9074 C   0  0  0  0  0  0  0  0  0  0  0  0
   19.7374    2.5996   53.0531 C   0  0  0  0  0  0  0  0  0  0  0  0
   18.5348    2.9454   53.5373 N   0  0  0  0  0  0  0  0  0  0  0  0
   18.2118    4.1813   53.8925 C   0  0  0  0  0  0  0  0  0  0  0  0
   16.8620    4.5440   54.4307 C   0  0  0  0  0  0  0  0  0  0  0  0
   19.1446    5.1875   53.7684 C   0  0  0  0  0  0  0  0  0  0  0  0
  1  2  1  0  0  0
  2  3  1  0  0  0
  3  4  1  0  0  0
  4  5  1  0  0  0
  5  6  1  0  0  0
  6  7  1  0  0  0
  7  8  1  0  0  0
  5  9  2  0  0  0
  9 10  1  0  0  0
 10 11  2  0  0  0
 11 12  1  0  0  0
 12 13  2  0  0  0
 13 14  1  0  0  0
 14 15  2  0  0  0
 15 19  1  0  0  0
 19 20  1  0  0  0
 20 21  1  0  0  0
 20 22  1  0  0  0
 15 16  1  0  0  0
 16 17  1  0  0  0
 16 18  2  0  0  0
  9 23  1  0  0  0
 23 24  2  0  0  0
 24 25  1  0  0  0
 25 26  2  0  0  0
 26 27  1  0  0  0
 27 28  1  0  0  0
 27 29  2  0  0  0
  8  2  1  0  0  0
 18 12  1  0  0  0
 29 23  1  0  0  0
 11  4  1  0  0  0
M  END
> <minimizedAffinity>
27.99544

> <CNNscore>
0.5086529255

> <CNNaffinity>
6.5262918472

> <CNN_VS>
3.3196175098

> <CNNaffinity_variance>
0.9509066343

$$$$
[H]c1nc(C([H])([H])[H])c([H])c(-c2nc(-c3c([H])c([H])c(OC([H])(F)F)c(Cl)c3[H])n3c2C([H])([H])C([H])([H])O[C@]([H])(C([H])([H])[H])C3([H])[H])c1[H]


 29 32  0  0  0  0  0  0  0  0999 V2000
   20.4402    4.9958   54.2997 C   0  0  0  0  0  0  0  0  0  0  0  0
   21.2014    6.2832   54.3943 C   0  0  0  0  0  0  0  0  0  0  0  0
   21.9201    6.6082   53.0875 C   0  0  0  0  0  0  0  0  0  0  0  0
   23.0324    7.5227   53.3690 N   0  0  0  0  0  0  0  0  0  0  0  0
   24.1760    7.1643   54.0309 C   0  0  0  0  0  0  0  0  0  0  0  0
   24.3874    5.7977   54.5815 C   0  0  0  0  0  0  0  0  0  0  0  0
   23.1334    5.3238   55.2730 C   0  0  0  0  0  0  0  0  0  0  0  0
   22.1590    6.2747   55.4257 O   0  0  0  0  0  0  0  0  0  0  0  0
   25.0048    8.2330   54.0693 C   0  0  0  0  0  0  0  0  0  0  0  0
   24.3793    9.2179   53.4457 N   0  0  0  0  0  0  0  0  0  0  0  0
   23.1451    8.7811   53.0081 C   0  0  0  0  0  0  0  0  0  0  0  0
   22.2610    9.6811   52.2573 C   0  0  0  0  0  0  0  0  0  0  0  0
   21.1879    9.2632   51.5544 C   0  0  0  0  0  0  0  0  0  0  0  0
   20.4375   10.1815   50.8065 C   0  0  0  0  0  0  0  0  0  0  0  0
   20.7439   11.5008   50.7554 C   0  0  0  0  0  0  0  0  0  0  0  0
   21.8592   11.9376   51.4879 C   0  0  0  0  0  0  0  0  0  0  0  0
   22.3065   13.6336   51.4631 Cl  0  0  0  0  0  0  0  0  0  0  0  0
   22.5935   11.0486   52.2166 C   0  0  0  0  0  0  0  0  0  0  0  0
   20.0618   12.4475   50.0519 O   0  0  0  0  0  0  0  0  0  0  0  0
   20.3437   13.7955   50.0279 C   0  0  0  0  0  0  0  0  0  0  0  0
   19.7964   14.4296   51.1577 F   0  0  0  0  0  0  0  0  0  0  0  0
   19.8617   14.4373   48.8952 F   0  0  0  0  0  0  0  0  0  0  0  0
   26.3587    8.2975   54.6724 C   0  0  0  0  0  0  0  0  0  0  0  0
   27.4751    7.8664   54.0155 C   0  0  0  0  0  0  0  0  0  0  0  0
   28.7040    7.9825   54.6590 C   0  0  0  0  0  0  0  0  0  0  0  0
   28.7483    8.5093   55.8923 N   0  0  0  0  0  0  0  0  0  0  0  0
   27.6785    8.9342   56.5502 C   0  0  0  0  0  0  0  0  0  0  0  0
   27.7522    9.5188   57.9271 C   0  0  0  0  0  0  0  0  0  0  0  0
   26.4381    8.8419   55.9579 C   0  0  0  0  0  0  0  0  0  0  0  0
  1  2  1  0  0  0
  2  3  1  0  0  0
  3  4  1  0  0  0
  4  5  1  0  0  0
  5  6  1  0  0  0
  6  7  1  0  0  0
  7  8  1  0  0  0
  5  9  2  0  0  0
  9 10  1  0  0  0
 10 11  2  0  0  0
 11 12  1  0  0  0
 12 13  2  0  0  0
 13 14  1  0  0  0
 14 15  2  0  0  0
 15 19  1  0  0  0
 19 20  1  0  0  0
 20 21  1  0  0  0
 20 22  1  0  0  0
 15 16  1  0  0  0
 16 17  1  0  0  0
 16 18  2  0  0  0
  9 23  1  0  0  0
 23 24  2  0  0  0
 24 25  1  0  0  0
 25 26  2  0  0  0
 26 27  1  0  0  0
 27 28  1  0  0  0
 27 29  2  0  0  0
  8  2  1  0  0  0
 18 12  1  0  0  0
 29 23  1  0  0  0
 11  4  1  0  0  0
M  END
> <minimizedAffinity>
31.60762

> <CNNscore>
0.4870418906

> <CNNaffinity>
5.9939222336

> <CNN_VS>
2.9192912579

> <CNNaffinity_variance>
0.4401229918

$$$$
[H]c1nc(C([H])([H])[H])c([H])c(-c2nc(-c3c([H])c([H])c(OC([H])(F)F)c(Cl)c3[H])n3c2C([H])([H])C([H])([H])O[C@]([H])(C([H])([H])[H])C3([H])[H])c1[H]


 29 32  0  0  0  0  0  0  0  0999 V2000
   21.5237   11.4915   51.3888 C   0  0  0  0  0  0  0  0  0  0  0  0
   21.6079   10.4398   52.4531 C   0  0  0  0  0  0  0  0  0  0  0  0
   22.7240    9.4387   52.1665 C   0  0  0  0  0  0  0  0  0  0  0  0
   22.4395    8.1891   52.8811 N   0  0  0  0  0  0  0  0  0  0  0  0
   21.4335    7.3226   52.5474 C   0  0  0  0  0  0  0  0  0  0  0  0
   20.4820    7.5908   51.4347 C   0  0  0  0  0  0  0  0  0  0  0  0
   20.0290    9.0287   51.4829 C   0  0  0  0  0  0  0  0  0  0  0  0
   20.4076    9.7204   52.6033 O   0  0  0  0  0  0  0  0  0  0  0  0
   21.4900    6.2561   53.3780 C   0  0  0  0  0  0  0  0  0  0  0  0
   22.5064    6.4698   54.1976 N   0  0  0  0  0  0  0  0  0  0  0  0
   23.1020    7.6775   53.8938 C   0  0  0  0  0  0  0  0  0  0  0  0
   24.2779    8.1361   54.6437 C   0  0  0  0  0  0  0  0  0  0  0  0
   24.2105    8.9401   55.7251 C   0  0  0  0  0  0  0  0  0  0  0  0
   25.3875    9.3893   56.3404 C   0  0  0  0  0  0  0  0  0  0  0  0
   26.6195    9.0455   55.8921 C   0  0  0  0  0  0  0  0  0  0  0  0
   26.6914    8.2071   54.7681 C   0  0  0  0  0  0  0  0  0  0  0  0
   28.2570    7.7255   54.1406 Cl  0  0  0  0  0  0  0  0  0  0  0  0
   25.5497    7.7677   54.1649 C   0  0  0  0  0  0  0  0  0  0  0  0
   27.8027    9.4433   56.4385 O   0  0  0  0  0  0  0  0  0  0  0  0
   28.0172    9.7527   57.7634 C   0  0  0  0  0  0  0  0  0  0  0  0
   28.7063   10.9737   57.8748 F   0  0  0  0  0  0  0  0  0  0  0  0
   28.7414    8.7831   58.4434 F   0  0  0  0  0  0  0  0  0  0  0  0
   20.6049    5.0656   53.3715 C   0  0  0  0  0  0  0  0  0  0  0  0
   21.0349    3.8346   52.9671 C   0  0  0  0  0  0  0  0  0  0  0  0
   20.1336    2.7746   53.0115 C   0  0  0  0  0  0  0  0  0  0  0  0
   18.8840    2.9977   53.4463 N   0  0  0  0  0  0  0  0  0  0  0  0
   18.4434    4.1834   53.8435 C   0  0  0  0  0  0  0  0  0  0  0  0
   17.0431    4.4088   54.3249 C   0  0  0  0  0  0  0  0  0  0  0  0
   19.2954    5.2657   53.8193 C   0  0  0  0  0  0  0  0  0  0  0  0
  1  2  1  0  0  0
  2  3  1  0  0  0
  3  4  1  0  0  0
  4  5  1  0  0  0
  5  6  1  0  0  0
  6  7  1  0  0  0
  7  8  1  0  0  0
  5  9  2  0  0  0
  9 10  1  0  0  0
 10 11  2  0  0  0
 11 12  1  0  0  0
 12 13  2  0  0  0
 13 14  1  0  0  0
 14 15  2  0  0  0
 15 19  1  0  0  0
 19 20  1  0  0  0
 20 21  1  0  0  0
 20 22  1  0  0  0
 15 16  1  0  0  0
 16 17  1  0  0  0
 16 18  2  0  0  0
  9 23  1  0  0  0
 23 24  2  0  0  0
 24 25  1  0  0  0
 25 26  2  0  0  0
 26 27  1  0  0  0
 27 28  1  0  0  0
 27 29  2  0  0  0
  8  2  1  0  0  0
 18 12  1  0  0  0
 29 23  1  0  0  0
 11  4  1  0  0  0
M  END
> <minimizedAffinity>
21.20233

> <CNNscore>
0.4770532250

> <CNNaffinity>
6.5325689316

> <CNN_VS>
3.1163830757

> <CNNaffinity_variance>
0.5709195137

$$$$
[H]c1nc(C([H])([H])[H])c([H])c(-c2nc(-c3c([H])c([H])c(OC([H])(F)F)c(Cl)c3[H])n3c2C([H])([H])C([H])([H])O[C@]([H])(C([H])([H])[H])C3([H])[H])c1[H]


 29 32  0  0  0  0  0  0  0  0999 V2000
   20.0544   11.7040   55.0517 C   0  0  0  0  0  0  0  0  0  0  0  0
   20.8841   10.6484   54.3859 C   0  0  0  0  0  0  0  0  0  0  0  0
   21.0276    9.4091   55.2653 C   0  0  0  0  0  0  0  0  0  0  0  0
   22.2244    8.6671   54.8530 N   0  0  0  0  0  0  0  0  0  0  0  0
   23.5074    9.0950   55.0651 C   0  0  0  0  0  0  0  0  0  0  0  0
   23.8200   10.4018   55.7053 C   0  0  0  0  0  0  0  0  0  0  0  0
   22.9266   11.4770   55.1389 C   0  0  0  0  0  0  0  0  0  0  0  0
   22.1761   11.0990   54.0568 O   0  0  0  0  0  0  0  0  0  0  0  0
   24.3588    8.1484   54.6073 C   0  0  0  0  0  0  0  0  0  0  0  0
   23.6106    7.1683   54.1278 N   0  0  0  0  0  0  0  0  0  0  0  0
   22.2758    7.4878   54.2759 C   0  0  0  0  0  0  0  0  0  0  0  0
   21.2339    6.5470   53.8461 C   0  0  0  0  0  0  0  0  0  0  0  0
   19.9464    6.8958   53.6437 C   0  0  0  0  0  0  0  0  0  0  0  0
   18.9999    5.9194   53.3024 C   0  0  0  0  0  0  0  0  0  0  0  0
   19.3234    4.6108   53.1608 C   0  0  0  0  0  0  0  0  0  0  0  0
   20.6633    4.2465   53.3691 C   0  0  0  0  0  0  0  0  0  0  0  0
   21.1452    2.5684   53.1995 Cl  0  0  0  0  0  0  0  0  0  0  0  0
   21.5883    5.1920   53.7021 C   0  0  0  0  0  0  0  0  0  0  0  0
   18.4588    3.6104   52.8320 O   0  0  0  0  0  0  0  0  0  0  0  0
   17.4436    3.1262   53.6270 C   0  0  0  0  0  0  0  0  0  0  0  0
   16.4817    2.4645   52.8427 F   0  0  0  0  0  0  0  0  0  0  0  0
   16.8000    4.1149   54.3587 F   0  0  0  0  0  0  0  0  0  0  0  0
   25.8415    8.1809   54.6451 C   0  0  0  0  0  0  0  0  0  0  0  0
   26.6120    7.6480   53.6522 C   0  0  0  0  0  0  0  0  0  0  0  0
   27.9960    7.7413   53.7704 C   0  0  0  0  0  0  0  0  0  0  0  0
   28.5201    8.3463   54.8472 N   0  0  0  0  0  0  0  0  0  0  0  0
   27.7929    8.8706   55.8240 C   0  0  0  0  0  0  0  0  0  0  0  0
   28.4005    9.5413   57.0174 C   0  0  0  0  0  0  0  0  0  0  0  0
   26.4185    8.8051   55.7554 C   0  0  0  0  0  0  0  0  0  0  0  0
  1  2  1  0  0  0
  2  3  1  0  0  0
  3  4  1  0  0  0
  4  5  1  0  0  0
  5  6  1  0  0  0
  6  7  1  0  0  0
  7  8  1  0  0  0
  5  9  2  0  0  0
  9 10  1  0  0  0
 10 11  2  0  0  0
 11 12  1  0  0  0
 12 13  2  0  0  0
 13 14  1  0  0  0
 14 15  2  0  0  0
 15 19  1  0  0  0
 19 20  1  0  0  0
 20 21  1  0  0  0
 20 22  1  0  0  0
 15 16  1  0  0  0
 16 17  1  0  0  0
 16 18  2  0  0  0
  9 23  1  0  0  0
 23 24  2  0  0  0
 24 25  1  0  0  0
 25 26  2  0  0  0
 26 27  1  0  0  0
 27 28  1  0  0  0
 27 29  2  0  0  0
  8  2  1  0  0  0
 18 12  1  0  0  0
 29 23  1  0  0  0
 11  4  1  0  0  0
M  END
> <minimizedAffinity>
32.65184

> <CNNscore>
0.4693723619

> <CNNaffinity>
6.3368711472

> <CNN_VS>
2.9743521214

> <CNNaffinity_variance>
0.6189111471

$$$$
[H]c1nc(C([H])([H])[H])c([H])c(-c2nc(-c3c([H])c([H])c(OC([H])(F)F)c(Cl)c3[H])n3c2C([H])([H])C([H])([H])O[C@]([H])(C([H])([H])[H])C3([H])[H])c1[H]


 29 32  0  0  0  0  0  0  0  0999 V2000
   20.5530    5.4871   53.2437 C   0  0  0  0  0  0  0  0  0  0  0  0
   21.3089    6.5846   53.9293 C   0  0  0  0  0  0  0  0  0  0  0  0
   21.8916    7.5768   52.9263 C   0  0  0  0  0  0  0  0  0  0  0  0
   23.0187    8.2796   53.5498 N   0  0  0  0  0  0  0  0  0  0  0  0
   24.2252    7.6995   53.8361 C   0  0  0  0  0  0  0  0  0  0  0  0
   24.5017    6.2594   53.5809 C   0  0  0  0  0  0  0  0  0  0  0  0
   23.3266    5.4250   54.0257 C   0  0  0  0  0  0  0  0  0  0  0  0
   22.3641    6.1030   54.7264 O   0  0  0  0  0  0  0  0  0  0  0  0
   25.0447    8.6427   54.3551 C   0  0  0  0  0  0  0  0  0  0  0  0
   24.3521    9.7696   54.3839 N   0  0  0  0  0  0  0  0  0  0  0  0
   23.0843    9.5485   53.8845 C   0  0  0  0  0  0  0  0  0  0  0  0
   22.1225   10.6530   53.7818 C   0  0  0  0  0  0  0  0  0  0  0  0
   21.1671   10.9028   54.7011 C   0  0  0  0  0  0  0  0  0  0  0  0
   20.2430   11.9359   54.4902 C   0  0  0  0  0  0  0  0  0  0  0  0
   20.2642   12.7158   53.3819 C   0  0  0  0  0  0  0  0  0  0  0  0
   21.2592   12.4584   52.4252 C   0  0  0  0  0  0  0  0  0  0  0  0
   21.3399   13.4342   50.9698 Cl  0  0  0  0  0  0  0  0  0  0  0  0
   22.1604   11.4542   52.6247 C   0  0  0  0  0  0  0  0  0  0  0  0
   19.4005   13.7343   53.1113 O   0  0  0  0  0  0  0  0  0  0  0  0
   18.6650   14.4379   54.0393 C   0  0  0  0  0  0  0  0  0  0  0  0
   19.3187   14.4358   55.2846 F   0  0  0  0  0  0  0  0  0  0  0  0
   17.3844   13.9338   54.2215 F   0  0  0  0  0  0  0  0  0  0  0  0
   26.4511    8.4670   54.7932 C   0  0  0  0  0  0  0  0  0  0  0  0
   27.3925    7.8626   54.0109 C   0  0  0  0  0  0  0  0  0  0  0  0
   28.6903    7.7584   54.5037 C   0  0  0  0  0  0  0  0  0  0  0  0
   28.9685    8.2511   55.7203 N   0  0  0  0  0  0  0  0  0  0  0  0
   28.0716    8.8415   56.4982 C   0  0  0  0  0  0  0  0  0  0  0  0
   28.4054    9.3841   57.8537 C   0  0  0  0  0  0  0  0  0  0  0  0
   26.7728    8.9704   56.0576 C   0  0  0  0  0  0  0  0  0  0  0  0
  1  2  1  0  0  0
  2  3  1  0  0  0
  3  4  1  0  0  0
  4  5  1  0  0  0
  5  6  1  0  0  0
  6  7  1  0  0  0
  7  8  1  0  0  0
  5  9  2  0  0  0
  9 10  1  0  0  0
 10 11  2  0  0  0
 11 12  1  0  0  0
 12 13  2  0  0  0
 13 14  1  0  0  0
 14 15  2  0  0  0
 15 19  1  0  0  0
 19 20  1  0  0  0
 20 21  1  0  0  0
 20 22  1  0  0  0
 15 16  1  0  0  0
 16 17  1  0  0  0
 16 18  2  0  0  0
  9 23  1  0  0  0
 23 24  2  0  0  0
 24 25  1  0  0  0
 25 26  2  0  0  0
 26 27  1  0  0  0
 27 28  1  0  0  0
 27 29  2  0  0  0
  8  2  1  0  0  0
 18 12  1  0  0  0
 29 23  1  0  0  0
 11  4  1  0  0  0
M  END
> <minimizedAffinity>
34.90631

> <CNNscore>
0.4638858736

> <CNNaffinity>
5.8362379074

> <CNN_VS>
2.7073483467

> <CNNaffinity_variance>
0.3671167195

$$$$
[H]c1nc(C([H])([H])[H])c([H])c(-c2nc(-c3c([H])c([H])c(OC([H])(F)F)c(Cl)c3[H])n3c2C([H])([H])C([H])([H])O[C@]([H])(C([H])([H])[H])C3([H])[H])c1[H]


 29 32  0  0  0  0  0  0  0  0999 V2000
   20.2140    4.8613   54.0103 C   0  0  0  0  0  0  0  0  0  0  0  0
   20.8545    6.2062   54.1744 C   0  0  0  0  0  0  0  0  0  0  0  0
   21.6713    6.5932   52.9444 C   0  0  0  0  0  0  0  0  0  0  0  0
   22.6718    7.5944   53.3313 N   0  0  0  0  0  0  0  0  0  0  0  0
   23.7688    7.3281   54.1058 C   0  0  0  0  0  0  0  0  0  0  0  0
   24.0348    5.9814   54.6812 C   0  0  0  0  0  0  0  0  0  0  0  0
   22.7608    5.4045   55.2462 C   0  0  0  0  0  0  0  0  0  0  0  0
   21.7018    6.2722   55.2963 O   0  0  0  0  0  0  0  0  0  0  0  0
   24.4998    8.4607   54.2218 C   0  0  0  0  0  0  0  0  0  0  0  0
   23.8616    9.3935   53.5342 N   0  0  0  0  0  0  0  0  0  0  0  0
   22.7170    8.8590   52.9776 C   0  0  0  0  0  0  0  0  0  0  0  0
   21.8421    9.6866   52.1380 C   0  0  0  0  0  0  0  0  0  0  0  0
   20.9470    9.1825   51.2633 C   0  0  0  0  0  0  0  0  0  0  0  0
   20.2003   10.0444   50.4477 C   0  0  0  0  0  0  0  0  0  0  0  0
   20.3357   11.3921   50.4977 C   0  0  0  0  0  0  0  0  0  0  0  0
   21.2652   11.9184   51.4089 C   0  0  0  0  0  0  0  0  0  0  0  0
   21.4857   13.6550   51.5217 Cl  0  0  0  0  0  0  0  0  0  0  0  0
   21.9951   11.0846   52.2042 C   0  0  0  0  0  0  0  0  0  0  0  0
   19.6457   12.2880   49.7375 O   0  0  0  0  0  0  0  0  0  0  0  0
   20.1837   13.1175   48.7786 C   0  0  0  0  0  0  0  0  0  0  0  0
   20.2718   14.4342   49.2648 F   0  0  0  0  0  0  0  0  0  0  0  0
   19.4527   13.1395   47.5987 F   0  0  0  0  0  0  0  0  0  0  0  0
   25.7769    8.6332   54.9567 C   0  0  0  0  0  0  0  0  0  0  0  0
   25.8312    9.1402   56.2231 C   0  0  0  0  0  0  0  0  0  0  0  0
   27.0762    9.2494   56.8361 C   0  0  0  0  0  0  0  0  0  0  0  0
   28.1706    8.8563   56.1666 N   0  0  0  0  0  0  0  0  0  0  0  0
   28.1432    8.3616   54.9368 C   0  0  0  0  0  0  0  0  0  0  0  0
   29.3785    7.9293   54.2087 C   0  0  0  0  0  0  0  0  0  0  0  0
   26.9362    8.2324   54.2854 C   0  0  0  0  0  0  0  0  0  0  0  0
  1  2  1  0  0  0
  2  3  1  0  0  0
  3  4  1  0  0  0
  4  5  1  0  0  0
  5  6  1  0  0  0
  6  7  1  0  0  0
  7  8  1  0  0  0
  5  9  2  0  0  0
  9 10  1  0  0  0
 10 11  2  0  0  0
 11 12  1  0  0  0
 12 13  2  0  0  0
 13 14  1  0  0  0
 14 15  2  0  0  0
 15 19  1  0  0  0
 19 20  1  0  0  0
 20 21  1  0  0  0
 20 22  1  0  0  0
 15 16  1  0  0  0
 16 17  1  0  0  0
 16 18  2  0  0  0
  9 23  1  0  0  0
 23 24  2  0  0  0
 24 25  1  0  0  0
 25 26  2  0  0  0
 26 27  1  0  0  0
 27 28  1  0  0  0
 27 29  2  0  0  0
  8  2  1  0  0  0
 18 12  1  0  0  0
 29 23  1  0  0  0
 11  4  1  0  0  0
M  END
> <minimizedAffinity>
35.45640

> <CNNscore>
0.4362008870

> <CNNaffinity>
5.9584450722

> <CNN_VS>
2.5990791321

> <CNNaffinity_variance>
0.4785478115

$$$$
[H]c1nc(C([H])([H])[H])c([H])c(-c2nc(-c3c([H])c([H])c(OC([H])(F)F)c(Cl)c3[H])n3c2C([H])([H])C([H])([H])O[C@]([H])(C([H])([H])[H])C3([H])[H])c1[H]


 29 32  0  0  0  0  0  0  0  0999 V2000
   21.1299   10.5624   52.4485 C   0  0  0  0  0  0  0  0  0  0  0  0
   22.1940    9.9544   53.3110 C   0  0  0  0  0  0  0  0  0  0  0  0
   22.9210    8.8214   52.5916 C   0  0  0  0  0  0  0  0  0  0  0  0
   23.5343    7.9380   53.5898 N   0  0  0  0  0  0  0  0  0  0  0  0
   22.8309    7.1031   54.4158 C   0  0  0  0  0  0  0  0  0  0  0  0
   21.3437    7.0424   54.4149 C   0  0  0  0  0  0  0  0  0  0  0  0
   20.7736    8.4379   54.3637 C   0  0  0  0  0  0  0  0  0  0  0  0
   21.6882    9.4457   54.5219 O   0  0  0  0  0  0  0  0  0  0  0  0
   23.7090    6.4008   55.1683 C   0  0  0  0  0  0  0  0  0  0  0  0
   24.9179    6.8000   54.8082 N   0  0  0  0  0  0  0  0  0  0  0  0
   24.8153    7.7625   53.8240 C   0  0  0  0  0  0  0  0  0  0  0  0
   26.0224    8.3505   53.2302 C   0  0  0  0  0  0  0  0  0  0  0  0
   27.0336    8.8754   53.9528 C   0  0  0  0  0  0  0  0  0  0  0  0
   28.1187    9.4819   53.3043 C   0  0  0  0  0  0  0  0  0  0  0  0
   28.2043    9.5670   51.9543 C   0  0  0  0  0  0  0  0  0  0  0  0
   27.1536    9.0193   51.2009 C   0  0  0  0  0  0  0  0  0  0  0  0
   27.2065    9.0969   49.4493 Cl  0  0  0  0  0  0  0  0  0  0  0  0
   26.0950    8.4289   51.8264 C   0  0  0  0  0  0  0  0  0  0  0  0
   29.2257   10.1403   51.2581 O   0  0  0  0  0  0  0  0  0  0  0  0
   29.1111   11.1890   50.3725 C   0  0  0  0  0  0  0  0  0  0  0  0
   28.3247   12.2142   50.9280 F   0  0  0  0  0  0  0  0  0  0  0  0
   28.5494   10.8226   49.1571 F   0  0  0  0  0  0  0  0  0  0  0  0
   23.3940    5.3699   56.1875 C   0  0  0  0  0  0  0  0  0  0  0  0
   24.1060    4.2108   56.3022 C   0  0  0  0  0  0  0  0  0  0  0  0
   23.7436    3.3112   57.3008 C   0  0  0  0  0  0  0  0  0  0  0  0
   22.7154    3.6117   58.1088 N   0  0  0  0  0  0  0  0  0  0  0  0
   22.0090    4.7299   58.0166 C   0  0  0  0  0  0  0  0  0  0  0  0
   20.8645    5.0440   58.9301 C   0  0  0  0  0  0  0  0  0  0  0  0
   22.3269    5.6538   57.0454 C   0  0  0  0  0  0  0  0  0  0  0  0
  1  2  1  0  0  0
  2  3  1  0  0  0
  3  4  1  0  0  0
  4  5  1  0  0  0
  5  6  1  0  0  0
  6  7  1  0  0  0
  7  8  1  0  0  0
  5  9  2  0  0  0
  9 10  1  0  0  0
 10 11  2  0  0  0
 11 12  1  0  0  0
 12 13  2  0  0  0
 13 14  1  0  0  0
 14 15  2  0  0  0
 15 19  1  0  0  0
 19 20  1  0  0  0
 20 21  1  0  0  0
 20 22  1  0  0  0
 15 16  1  0  0  0
 16 17  1  0  0  0
 16 18  2  0  0  0
  9 23  1  0  0  0
 23 24  2  0  0  0
 24 25  1  0  0  0
 25 26  2  0  0  0
 26 27  1  0  0  0
 27 28  1  0  0  0
 27 29  2  0  0  0
  8  2  1  0  0  0
 18 12  1  0  0  0
 29 23  1  0  0  0
 11  4  1  0  0  0
M  END
> <minimizedAffinity>
53.38153

> <CNNscore>
0.4128156602

> <CNNaffinity>
5.6575193405

> <CNN_VS>
2.3355126381

> <CNNaffinity_variance>
0.7073502541

$$$$
[H]c1nc(C([H])([H])[H])c([H])c(-c2nc(-c3c([H])c([H])c(OC([H])(F)F)c(Cl)c3[H])n3c2C([H])([H])C([H])([H])O[C@]([H])(C([H])([H])[H])C3([H])[H])c1[H]


 29 32  0  0  0  0  0  0  0  0999 V2000
   20.2339   11.8290   54.3988 C   0  0  0  0  0  0  0  0  0  0  0  0
   21.1346   10.7108   53.9697 C   0  0  0  0  0  0  0  0  0  0  0  0
   21.2430    9.6327   55.0448 C   0  0  0  0  0  0  0  0  0  0  0  0
   22.4840    8.8771   54.8398 N   0  0  0  0  0  0  0  0  0  0  0  0
   23.7376    9.3779   55.0671 C   0  0  0  0  0  0  0  0  0  0  0  0
   23.9716   10.7800   55.5085 C   0  0  0  0  0  0  0  0  0  0  0  0
   23.0966   11.7196   54.7169 C   0  0  0  0  0  0  0  0  0  0  0  0
   22.4362   11.1484   53.6611 O   0  0  0  0  0  0  0  0  0  0  0  0
   24.6423    8.4010   54.8267 C   0  0  0  0  0  0  0  0  0  0  0  0
   23.9544    7.3316   54.4613 N   0  0  0  0  0  0  0  0  0  0  0  0
   22.6052    7.6236   54.4649 C   0  0  0  0  0  0  0  0  0  0  0  0
   21.6200    6.5905   54.1221 C   0  0  0  0  0  0  0  0  0  0  0  0
   21.9425    5.3108   53.8419 C   0  0  0  0  0  0  0  0  0  0  0  0
   20.9456    4.4044   53.4540 C   0  0  0  0  0  0  0  0  0  0  0  0
   19.6420    4.7592   53.3460 C   0  0  0  0  0  0  0  0  0  0  0  0
   19.3044    6.0901   53.6393 C   0  0  0  0  0  0  0  0  0  0  0  0
   17.6336    6.6107   53.5191 Cl  0  0  0  0  0  0  0  0  0  0  0  0
   20.2701    6.9765   54.0163 C   0  0  0  0  0  0  0  0  0  0  0  0
   18.6227    3.9342   52.9757 O   0  0  0  0  0  0  0  0  0  0  0  0
   17.7170    3.3379   53.8249 C   0  0  0  0  0  0  0  0  0  0  0  0
   16.4584    3.9549   53.7086 F   0  0  0  0  0  0  0  0  0  0  0  0
   18.1008    3.3851   55.1582 F   0  0  0  0  0  0  0  0  0  0  0  0
   26.1171    8.4911   54.9598 C   0  0  0  0  0  0  0  0  0  0  0  0
   26.9683    8.0875   53.9718 C   0  0  0  0  0  0  0  0  0  0  0  0
   28.3371    8.2263   54.1842 C   0  0  0  0  0  0  0  0  0  0  0  0
   28.7687    8.7472   55.3429 N   0  0  0  0  0  0  0  0  0  0  0  0
   27.9620    9.1457   56.3167 C   0  0  0  0  0  0  0  0  0  0  0  0
   28.4669    9.7243   57.6025 C   0  0  0  0  0  0  0  0  0  0  0  0
   26.5985    9.0302   56.1568 C   0  0  0  0  0  0  0  0  0  0  0  0
  1  2  1  0  0  0
  2  3  1  0  0  0
  3  4  1  0  0  0
  4  5  1  0  0  0
  5  6  1  0  0  0
  6  7  1  0  0  0
  7  8  1  0  0  0
  5  9  2  0  0  0
  9 10  1  0  0  0
 10 11  2  0  0  0
 11 12  1  0  0  0
 12 13  2  0  0  0
 13 14  1  0  0  0
 14 15  2  0  0  0
 15 19  1  0  0  0
 19 20  1  0  0  0
 20 21  1  0  0  0
 20 22  1  0  0  0
 15 16  1  0  0  0
 16 17  1  0  0  0
 16 18  2  0  0  0
  9 23  1  0  0  0
 23 24  2  0  0  0
 24 25  1  0  0  0
 25 26  2  0  0  0
 26 27  1  0  0  0
 27 28  1  0  0  0
 27 29  2  0  0  0
  8  2  1  0  0  0
 18 12  1  0  0  0
 29 23  1  0  0  0
 11  4  1  0  0  0
M  END
> <minimizedAffinity>
31.19805

> <CNNscore>
0.4090117812

> <CNNaffinity>
6.0709214211

> <CNN_VS>
2.4830784798

> <CNNaffinity_variance>
0.3372520804

$$$$
[H]c1nc(C([H])([H])[H])c([H])c(-c2nc(-c3c([H])c([H])c(OC([H])(F)F)c(Cl)c3[H])n3c2C([H])([H])C([H])([H])O[C@]([H])(C([H])([H])[H])C3([H])[H])c1[H]


 29 32  0  0  0  0  0  0  0  0999 V2000
   26.1074    7.8632   54.4103 C   0  0  0  0  0  0  0  0  0  0  0  0
   24.8394    7.7540   53.6191 C   0  0  0  0  0  0  0  0  0  0  0  0
   23.6467    8.3151   54.3890 C   0  0  0  0  0  0  0  0  0  0  0  0
   22.4137    7.7261   53.8546 N   0  0  0  0  0  0  0  0  0  0  0  0
   22.0453    6.4192   54.0292 C   0  0  0  0  0  0  0  0  0  0  0  0
   22.8983    5.4368   54.7523 C   0  0  0  0  0  0  0  0  0  0  0  0
   24.3357    5.5912   54.3221 C   0  0  0  0  0  0  0  0  0  0  0  0
   24.5368    6.4282   53.2562 O   0  0  0  0  0  0  0  0  0  0  0  0
   20.8360    6.2313   53.4524 C   0  0  0  0  0  0  0  0  0  0  0  0
   20.4780    7.3969   52.9388 N   0  0  0  0  0  0  0  0  0  0  0  0
   21.4610    8.3343   53.1845 C   0  0  0  0  0  0  0  0  0  0  0  0
   21.2919    9.7232   52.7396 C   0  0  0  0  0  0  0  0  0  0  0  0
   21.4738   10.1296   51.4661 C   0  0  0  0  0  0  0  0  0  0  0  0
   21.3612   11.4886   51.1400 C   0  0  0  0  0  0  0  0  0  0  0  0
   21.0698   12.4366   52.0638 C   0  0  0  0  0  0  0  0  0  0  0  0
   20.8782   12.0149   53.3893 C   0  0  0  0  0  0  0  0  0  0  0  0
   20.4974   13.1940   54.6310 Cl  0  0  0  0  0  0  0  0  0  0  0  0
   20.9873   10.6943   53.7125 C   0  0  0  0  0  0  0  0  0  0  0  0
   20.9453   13.7713   51.8196 O   0  0  0  0  0  0  0  0  0  0  0  0
   21.4170   14.4370   50.7100 C   0  0  0  0  0  0  0  0  0  0  0  0
   20.5156   14.3020   49.6389 F   0  0  0  0  0  0  0  0  0  0  0  0
   22.6612   13.9883   50.2881 F   0  0  0  0  0  0  0  0  0  0  0  0
   20.0464    4.9760   53.4115 C   0  0  0  0  0  0  0  0  0  0  0  0
   20.5541    3.8062   52.9241 C   0  0  0  0  0  0  0  0  0  0  0  0
   19.7403    2.6769   52.9420 C   0  0  0  0  0  0  0  0  0  0  0  0
   18.4957    2.7765   53.4331 N   0  0  0  0  0  0  0  0  0  0  0  0
   17.9806    3.9009   53.9112 C   0  0  0  0  0  0  0  0  0  0  0  0
   16.5876    3.9883   54.4544 C   0  0  0  0  0  0  0  0  0  0  0  0
   18.7445    5.0473   53.9166 C   0  0  0  0  0  0  0  0  0  0  0  0
  1  2  1  0  0  0
  2  3  1  0  0  0
  3  4  1  0  0  0
  4  5  1  0  0  0
  5  6  1  0  0  0
  6  7  1  0  0  0
  7  8  1  0  0  0
  5  9  2  0  0  0
  9 10  1  0  0  0
 10 11  2  0  0  0
 11 12  1  0  0  0
 12 13  2  0  0  0
 13 14  1  0  0  0
 14 15  2  0  0  0
 15 19  1  0  0  0
 19 20  1  0  0  0
 20 21  1  0  0  0
 20 22  1  0  0  0
 15 16  1  0  0  0
 16 17  1  0  0  0
 16 18  2  0  0  0
  9 23  1  0  0  0
 23 24  2  0  0  0
 24 25  1  0  0  0
 25 26  2  0  0  0
 26 27  1  0  0  0
 27 28  1  0  0  0
 27 29  2  0  0  0
  8  2  1  0  0  0
 18 12  1  0  0  0
 29 23  1  0  0  0
 11  4  1  0  0  0
M  END
> <minimizedAffinity>
32.71146

> <CNNscore>
0.4085464478

> <CNNaffinity>
6.2446613312

> <CNN_VS>
2.5512342453

> <CNNaffinity_variance>
0.4676687121

$$$$
[H]c1nc(C([H])([H])[H])c([H])c(-c2nc(-c3c([H])c([H])c(F)c(Cl)c3[H])n3c2C([H])([H])C([H])([H])O[C@]([H])(C([H])([H])[H])C3([H])[H])c1[H]


 26 29  0  0  0  0  0  0  0  0999 V2000
   21.4653   11.9480   52.5213 C   0  0  0  0  0  0  0  0  0  0  0  0
   21.3201   10.4455   52.4856 C   0  0  0  0  0  0  0  0  0  0  0  0
   22.6984    9.8512   52.7908 C   0  0  0  0  0  0  0  0  0  0  0  0
   22.6027    8.4540   53.0969 N   0  0  0  0  0  0  0  0  0  0  0  0
   21.4634    7.7342   52.8988 C   0  0  0  0  0  0  0  0  0  0  0  0
   20.1500    8.0356   52.3452 C   0  0  0  0  0  0  0  0  0  0  0  0
   20.0617    9.0469   51.2665 C   0  0  0  0  0  0  0  0  0  0  0  0
   21.0522    9.9778   51.1817 O   0  0  0  0  0  0  0  0  0  0  0  0
   21.7702    6.4718   53.3597 C   0  0  0  0  0  0  0  0  0  0  0  0
   23.0170    6.4814   53.7921 N   0  0  0  0  0  0  0  0  0  0  0  0
   23.5532    7.7296   53.6297 C   0  0  0  0  0  0  0  0  0  0  0  0
   24.9285    8.0106   54.0658 C   0  0  0  0  0  0  0  0  0  0  0  0
   25.9335    7.8805   53.0978 C   0  0  0  0  0  0  0  0  0  0  0  0
   27.2271    8.1666   53.4465 C   0  0  0  0  0  0  0  0  0  0  0  0
   27.5461    8.5737   54.7163 C   0  0  0  0  0  0  0  0  0  0  0  0
   28.8170    8.8500   55.0439 F   0  0  0  0  0  0  0  0  0  0  0  0
   26.5745    8.7046   55.6676 C   0  0  0  0  0  0  0  0  0  0  0  0
   26.9234    9.2216   57.3092 Cl  0  0  0  0  0  0  0  0  0  0  0  0
   25.2431    8.4160   55.3272 C   0  0  0  0  0  0  0  0  0  0  0  0
   20.9395    5.2596   53.4085 C   0  0  0  0  0  0  0  0  0  0  0  0
   21.5010    4.0498   53.1045 C   0  0  0  0  0  0  0  0  0  0  0  0
   20.6703    2.9272   53.1864 C   0  0  0  0  0  0  0  0  0  0  0  0
   19.3861    3.0166   53.5437 N   0  0  0  0  0  0  0  0  0  0  0  0
   18.8186    4.1959   53.8456 C   0  0  0  0  0  0  0  0  0  0  0  0
   17.3865    4.2979   54.2442 C   0  0  0  0  0  0  0  0  0  0  0  0
   19.6276    5.3259   53.7704 C   0  0  0  0  0  0  0  0  0  0  0  0
  1  2  1  0  0  0
  2  3  1  0  0  0
  3  4  1  0  0  0
  4  5  1  0  0  0
  5  6  1  0  0  0
  6  7  1  0  0  0
  7  8  1  0  0  0
  5  9  2  0  0  0
  9 10  1  0  0  0
 10 11  2  0  0  0
 11 12  1  0  0  0
 12 13  2  0  0  0
 13 14  1  0  0  0
 14 15  2  0  0  0
 15 16  1  0  0  0
 15 17  1  0  0  0
 17 18  1  0  0  0
 17 19  2  0  0  0
  9 20  1  0  0  0
 20 21  2  0  0  0
 21 22  1  0  0  0
 22 23  2  0  0  0
 23 24  1  0  0  0
 24 25  1  0  0  0
 24 26  2  0  0  0
  8  2  1  0  0  0
 19 12  1  0  0  0
 26 20  1  0  0  0
 11  4  1  0  0  0
M  END
> <minimizedAffinity>
23.18298

> <CNNscore>
0.5439020991

> <CNNaffinity>
6.5817236900

> <CNN_VS>
3.5798132420

> <CNNaffinity_variance>
0.7291187048

$$$$
[H]c1nc(C([H])([H])[H])c([H])c(-c2nc(-c3c([H])c([H])c(F)c(Cl)c3[H])n3c2C([H])([H])C([H])([H])O[C@]([H])(C([H])([H])[H])C3([H])[H])c1[H]


 26 29  0  0  0  0  0  0  0  0999 V2000
   20.2942    5.4910   53.7655 C   0  0  0  0  0  0  0  0  0  0  0  0
   21.6885    6.0663   53.8355 C   0  0  0  0  0  0  0  0  0  0  0  0
   21.5758    7.5622   53.5260 C   0  0  0  0  0  0  0  0  0  0  0  0
   22.7800    8.2552   53.8794 N   0  0  0  0  0  0  0  0  0  0  0  0
   23.9299    7.6072   54.2153 C   0  0  0  0  0  0  0  0  0  0  0  0
   24.3301    6.2079   54.2805 C   0  0  0  0  0  0  0  0  0  0  0  0
   23.7163    5.2602   53.3219 C   0  0  0  0  0  0  0  0  0  0  0  0
   22.5050    5.5845   52.7905 O   0  0  0  0  0  0  0  0  0  0  0  0
   24.8141    8.6170   54.5294 C   0  0  0  0  0  0  0  0  0  0  0  0
   24.1940    9.7718   54.3759 N   0  0  0  0  0  0  0  0  0  0  0  0
   22.9075    9.5548   53.9643 C   0  0  0  0  0  0  0  0  0  0  0  0
   21.9940   10.6865   53.7512 C   0  0  0  0  0  0  0  0  0  0  0  0
   21.1522   11.0241   54.8196 C   0  0  0  0  0  0  0  0  0  0  0  0
   20.3082   12.0945   54.6822 C   0  0  0  0  0  0  0  0  0  0  0  0
   20.2778   12.8303   53.5258 C   0  0  0  0  0  0  0  0  0  0  0  0
   19.4460   13.8755   53.4050 F   0  0  0  0  0  0  0  0  0  0  0  0
   21.0944   12.5106   52.4783 C   0  0  0  0  0  0  0  0  0  0  0  0
   21.0991   13.4159   50.9737 Cl  0  0  0  0  0  0  0  0  0  0  0  0
   21.9662   11.4168   52.6021 C   0  0  0  0  0  0  0  0  0  0  0  0
   26.2159    8.5390   54.9661 C   0  0  0  0  0  0  0  0  0  0  0  0
   27.1574    8.0363   54.1103 C   0  0  0  0  0  0  0  0  0  0  0  0
   28.4783    8.0038   54.5699 C   0  0  0  0  0  0  0  0  0  0  0  0
   28.8200    8.4399   55.7855 N   0  0  0  0  0  0  0  0  0  0  0  0
   27.9089    8.9364   56.6384 C   0  0  0  0  0  0  0  0  0  0  0  0
   28.2878    9.4233   57.9947 C   0  0  0  0  0  0  0  0  0  0  0  0
   26.5882    8.9779   56.2010 C   0  0  0  0  0  0  0  0  0  0  0  0
  1  2  1  0  0  0
  2  3  1  0  0  0
  3  4  1  0  0  0
  4  5  1  0  0  0
  5  6  1  0  0  0
  6  7  1  0  0  0
  7  8  1  0  0  0
  5  9  2  0  0  0
  9 10  1  0  0  0
 10 11  2  0  0  0
 11 12  1  0  0  0
 12 13  2  0  0  0
 13 14  1  0  0  0
 14 15  2  0  0  0
 15 16  1  0  0  0
 15 17  1  0  0  0
 17 18  1  0  0  0
 17 19  2  0  0  0
  9 20  1  0  0  0
 20 21  2  0  0  0
 21 22  1  0  0  0
 22 23  2  0  0  0
 23 24  1  0  0  0
 24 25  1  0  0  0
 24 26  2  0  0  0
  8  2  1  0  0  0
 19 12  1  0  0  0
 26 20  1  0  0  0
 11  4  1  0  0  0
M  END
> <minimizedAffinity>
27.45002

> <CNNscore>
0.4681641459

> <CNNaffinity>
5.7424368858

> <CNN_VS>
2.6884031296

> <CNNaffinity_variance>
0.2094379365

$$$$
[H]c1nc(C([H])([H])[H])c([H])c(-c2nc(-c3c([H])c([H])c(F)c(Cl)c3[H])n3c2C([H])([H])C([H])([H])O[C@]([H])(C([H])([H])[H])C3([H])[H])c1[H]


 26 29  0  0  0  0  0  0  0  0999 V2000
   22.0690    4.7178   53.0882 C   0  0  0  0  0  0  0  0  0  0  0  0
   21.7981    6.1875   53.3043 C   0  0  0  0  0  0  0  0  0  0  0  0
   23.0430    6.7832   53.9688 C   0  0  0  0  0  0  0  0  0  0  0  0
   23.0179    8.2158   53.9229 N   0  0  0  0  0  0  0  0  0  0  0  0
   21.9135    8.9204   53.5498 C   0  0  0  0  0  0  0  0  0  0  0  0
   20.5531    8.5600   53.1733 C   0  0  0  0  0  0  0  0  0  0  0  0
   19.9508    7.3585   53.7958 C   0  0  0  0  0  0  0  0  0  0  0  0
   20.7901    6.3961   54.2692 O   0  0  0  0  0  0  0  0  0  0  0  0
   22.3168   10.2379   53.5902 C   0  0  0  0  0  0  0  0  0  0  0  0
   23.5809   10.2718   53.9681 N   0  0  0  0  0  0  0  0  0  0  0  0
   24.0338    8.9987   54.1821 C   0  0  0  0  0  0  0  0  0  0  0  0
   25.4283    8.7631   54.5825 C   0  0  0  0  0  0  0  0  0  0  0  0
   26.2737    8.2028   53.6152 C   0  0  0  0  0  0  0  0  0  0  0  0
   27.5913    7.9976   53.9290 C   0  0  0  0  0  0  0  0  0  0  0  0
   28.0868    8.3300   55.1635 C   0  0  0  0  0  0  0  0  0  0  0  0
   29.3790    8.1230   55.4572 F   0  0  0  0  0  0  0  0  0  0  0  0
   27.2720    8.8773   56.1137 C   0  0  0  0  0  0  0  0  0  0  0  0
   27.8502    9.3226   57.7109 Cl  0  0  0  0  0  0  0  0  0  0  0  0
   25.9187    9.0951   55.8088 C   0  0  0  0  0  0  0  0  0  0  0  0
   21.5621   11.4633   53.2889 C   0  0  0  0  0  0  0  0  0  0  0  0
   20.7614   12.0112   54.2534 C   0  0  0  0  0  0  0  0  0  0  0  0
   20.0820   13.1876   53.9196 C   0  0  0  0  0  0  0  0  0  0  0  0
   20.1997   13.7614   52.7189 N   0  0  0  0  0  0  0  0  0  0  0  0
   20.9812   13.2373   51.7605 C   0  0  0  0  0  0  0  0  0  0  0  0
   21.1139   13.8755   50.4206 C   0  0  0  0  0  0  0  0  0  0  0  0
   21.6664   12.0665   52.0717 C   0  0  0  0  0  0  0  0  0  0  0  0
  1  2  1  0  0  0
  2  3  1  0  0  0
  3  4  1  0  0  0
  4  5  1  0  0  0
  5  6  1  0  0  0
  6  7  1  0  0  0
  7  8  1  0  0  0
  5  9  2  0  0  0
  9 10  1  0  0  0
 10 11  2  0  0  0
 11 12  1  0  0  0
 12 13  2  0  0  0
 13 14  1  0  0  0
 14 15  2  0  0  0
 15 16  1  0  0  0
 15 17  1  0  0  0
 17 18  1  0  0  0
 17 19  2  0  0  0
  9 20  1  0  0  0
 20 21  2  0  0  0
 21 22  1  0  0  0
 22 23  2  0  0  0
 23 24  1  0  0  0
 24 25  1  0  0  0
 24 26  2  0  0  0
  8  2  1  0  0  0
 19 12  1  0  0  0
 26 20  1  0  0  0
 11  4  1  0  0  0
M  END
> <minimizedAffinity>
32.67518

> <CNNscore>
0.4570100307

> <CNNaffinity>
5.8452954292

> <CNN_VS>
2.6713585854

> <CNNaffinity_variance>
0.2779487371

$$$$
[H]c1nc(C([H])([H])[H])c([H])c(-c2nc(-c3c([H])c([H])c(F)c(Cl)c3[H])n3c2C([H])([H])C([H])([H])O[C@]([H])(C([H])([H])[H])C3([H])[H])c1[H]


 26 29  0  0  0  0  0  0  0  0999 V2000
   19.9192   10.3013   50.9889 C   0  0  0  0  0  0  0  0  0  0  0  0
   21.0716    9.9860   51.9122 C   0  0  0  0  0  0  0  0  0  0  0  0
   20.8195    8.5893   52.4883 C   0  0  0  0  0  0  0  0  0  0  0  0
   21.9985    8.0685   53.1159 N   0  0  0  0  0  0  0  0  0  0  0  0
   23.0998    8.8318   53.3603 C   0  0  0  0  0  0  0  0  0  0  0  0
   23.4300   10.2373   53.1656 C   0  0  0  0  0  0  0  0  0  0  0  0
   22.3393   11.2333   53.2770 C   0  0  0  0  0  0  0  0  0  0  0  0
   21.0636   10.8101   53.0574 O   0  0  0  0  0  0  0  0  0  0  0  0
   24.0082    7.9563   53.9158 C   0  0  0  0  0  0  0  0  0  0  0  0
   23.4459    6.7642   53.9818 N   0  0  0  0  0  0  0  0  0  0  0  0
   22.1748    6.8239   53.4796 C   0  0  0  0  0  0  0  0  0  0  0  0
   21.3442    5.6131   53.4122 C   0  0  0  0  0  0  0  0  0  0  0  0
   21.9982    4.4206   53.0739 C   0  0  0  0  0  0  0  0  0  0  0  0
   21.2735    3.2587   53.0334 C   0  0  0  0  0  0  0  0  0  0  0  0
   19.9320    3.2490   53.3166 C   0  0  0  0  0  0  0  0  0  0  0  0
   19.2348    2.1040   53.2726 F   0  0  0  0  0  0  0  0  0  0  0  0
   19.2845    4.4053   53.6481 C   0  0  0  0  0  0  0  0  0  0  0  0
   17.5690    4.4538   54.0203 Cl  0  0  0  0  0  0  0  0  0  0  0  0
   20.0121    5.6053   53.6949 C   0  0  0  0  0  0  0  0  0  0  0  0
   25.3803    8.1962   54.3865 C   0  0  0  0  0  0  0  0  0  0  0  0
   26.4328    7.8862   53.5694 C   0  0  0  0  0  0  0  0  0  0  0  0
   27.7155    8.1534   54.0596 C   0  0  0  0  0  0  0  0  0  0  0  0
   27.9191    8.6865   55.2675 N   0  0  0  0  0  0  0  0  0  0  0  0
   26.8978    8.9970   56.0826 C   0  0  0  0  0  0  0  0  0  0  0  0
   27.1226    9.5916   57.4302 C   0  0  0  0  0  0  0  0  0  0  0  0
   25.6127    8.7392   55.6143 C   0  0  0  0  0  0  0  0  0  0  0  0
  1  2  1  0  0  0
  2  3  1  0  0  0
  3  4  1  0  0  0
  4  5  1  0  0  0
  5  6  1  0  0  0
  6  7  1  0  0  0
  7  8  1  0  0  0
  5  9  2  0  0  0
  9 10  1  0  0  0
 10 11  2  0  0  0
 11 12  1  0  0  0
 12 13  2  0  0  0
 13 14  1  0  0  0
 14 15  2  0  0  0
 15 16  1  0  0  0
 15 17  1  0  0  0
 17 18  1  0  0  0
 17 19  2  0  0  0
  9 20  1  0  0  0
 20 21  2  0  0  0
 21 22  1  0  0  0
 22 23  2  0  0  0
 23 24  1  0  0  0
 24 25  1  0  0  0
 24 26  2  0  0  0
  8  2  1  0  0  0
 19 12  1  0  0  0
 26 20  1  0  0  0
 11  4  1  0  0  0
M  END
> <minimizedAffinity>
34.66854

> <CNNscore>
0.4367924333

> <CNNaffinity>
6.2370362282

> <CNN_VS>
2.7242901325

> <CNNaffinity_variance>
0.8087733388

$$$$
[H]c1nc(C([H])([H])[H])c([H])c(-c2nc(-c3c([H])c([H])c(F)c(Cl)c3[H])n3c2C([H])([H])C([H])([H])O[C@]([H])(C([H])([H])[H])C3([H])[H])c1[H]


 26 29  0  0  0  0  0  0  0  0999 V2000
   20.0321    5.3511   54.1912 C   0  0  0  0  0  0  0  0  0  0  0  0
   21.4528    5.8621   54.1690 C   0  0  0  0  0  0  0  0  0  0  0  0
   21.4860    7.0621   53.2177 C   0  0  0  0  0  0  0  0  0  0  0  0
   22.6991    7.8104   53.3717 N   0  0  0  0  0  0  0  0  0  0  0  0
   23.7574    7.3542   54.0979 C   0  0  0  0  0  0  0  0  0  0  0  0
   24.0408    6.1238   54.8246 C   0  0  0  0  0  0  0  0  0  0  0  0
   23.4535    4.8619   54.3180 C   0  0  0  0  0  0  0  0  0  0  0  0
   22.3287    4.9427   53.5543 O   0  0  0  0  0  0  0  0  0  0  0  0
   24.6812    8.3755   54.0375 C   0  0  0  0  0  0  0  0  0  0  0  0
   24.1695    9.3533   53.3138 N   0  0  0  0  0  0  0  0  0  0  0  0
   22.9169    9.0062   52.8870 C   0  0  0  0  0  0  0  0  0  0  0  0
   22.1183    9.9437   52.0847 C   0  0  0  0  0  0  0  0  0  0  0  0
   21.1562    9.3818   51.2346 C   0  0  0  0  0  0  0  0  0  0  0  0
   20.3622   10.2164   50.4931 C   0  0  0  0  0  0  0  0  0  0  0  0
   20.4961   11.5786   50.5721 C   0  0  0  0  0  0  0  0  0  0  0  0
   19.7121   12.3838   49.8400 F   0  0  0  0  0  0  0  0  0  0  0  0
   21.4301   12.1373   51.3979 C   0  0  0  0  0  0  0  0  0  0  0  0
   21.6471   13.8740   51.5402 Cl  0  0  0  0  0  0  0  0  0  0  0  0
   22.2521   11.2966   52.1655 C   0  0  0  0  0  0  0  0  0  0  0  0
   26.0231    8.4676   54.6314 C   0  0  0  0  0  0  0  0  0  0  0  0
   27.1129    8.1176   53.8822 C   0  0  0  0  0  0  0  0  0  0  0  0
   28.3665    8.2435   54.4900 C   0  0  0  0  0  0  0  0  0  0  0  0
   28.5089    8.6837   55.7433 N   0  0  0  0  0  0  0  0  0  0  0  0
   27.4502    9.0316   56.4930 C   0  0  0  0  0  0  0  0  0  0  0  0
   27.6067    9.5227   57.8911 C   0  0  0  0  0  0  0  0  0  0  0  0
   26.1931    8.9140   55.9074 C   0  0  0  0  0  0  0  0  0  0  0  0
  1  2  1  0  0  0
  2  3  1  0  0  0
  3  4  1  0  0  0
  4  5  1  0  0  0
  5  6  1  0  0  0
  6  7  1  0  0  0
  7  8  1  0  0  0
  5  9  2  0  0  0
  9 10  1  0  0  0
 10 11  2  0  0  0
 11 12  1  0  0  0
 12 13  2  0  0  0
 13 14  1  0  0  0
 14 15  2  0  0  0
 15 16  1  0  0  0
 15 17  1  0  0  0
 17 18  1  0  0  0
 17 19  2  0  0  0
  9 20  1  0  0  0
 20 21  2  0  0  0
 21 22  1  0  0  0
 22 23  2  0  0  0
 23 24  1  0  0  0
 24 25  1  0  0  0
 24 26  2  0  0  0
  8  2  1  0  0  0
 19 12  1  0  0  0
 26 20  1  0  0  0
 11  4  1  0  0  0
M  END
> <minimizedAffinity>
29.50460

> <CNNscore>
0.4339478016

> <CNNaffinity>
5.8966631889

> <CNN_VS>
2.5588440895

> <CNNaffinity_variance>
0.3803869784

$$$$
[H]c1nc(C([H])([H])[H])c([H])c(-c2nc(-c3c([H])c([H])c(F)c(Cl)c3[H])n3c2C([H])([H])C([H])([H])O[C@]([H])(C([H])([H])[H])C3([H])[H])c1[H]


 26 29  0  0  0  0  0  0  0  0999 V2000
   23.5806    3.8350   53.8262 C   0  0  0  0  0  0  0  0  0  0  0  0
   22.9901    5.1950   53.5401 C   0  0  0  0  0  0  0  0  0  0  0  0
   23.8137    6.2193   54.3266 C   0  0  0  0  0  0  0  0  0  0  0  0
   23.5444    7.5538   53.8773 N   0  0  0  0  0  0  0  0  0  0  0  0
   22.5173    7.8526   53.0342 C   0  0  0  0  0  0  0  0  0  0  0  0
   21.4484    7.0802   52.4152 C   0  0  0  0  0  0  0  0  0  0  0  0
   20.9036    5.9205   53.1585 C   0  0  0  0  0  0  0  0  0  0  0  0
   21.6993    5.3305   54.0932 O   0  0  0  0  0  0  0  0  0  0  0  0
   22.6370    9.2081   52.8139 C   0  0  0  0  0  0  0  0  0  0  0  0
   23.6757    9.6480   53.4989 N   0  0  0  0  0  0  0  0  0  0  0  0
   24.2562    8.6104   54.1757 C   0  0  0  0  0  0  0  0  0  0  0  0
   25.4575    8.8349   54.9926 C   0  0  0  0  0  0  0  0  0  0  0  0
   25.2697    9.4821   56.2214 C   0  0  0  0  0  0  0  0  0  0  0  0
   26.3539    9.6819   57.0347 C   0  0  0  0  0  0  0  0  0  0  0  0
   27.6054    9.2614   56.6650 C   0  0  0  0  0  0  0  0  0  0  0  0
   28.6580    9.4641   57.4711 F   0  0  0  0  0  0  0  0  0  0  0  0
   27.7999    8.6290   55.4698 C   0  0  0  0  0  0  0  0  0  0  0  0
   29.3787    8.0688   54.9435 Cl  0  0  0  0  0  0  0  0  0  0  0  0
   26.6995    8.4154   54.6240 C   0  0  0  0  0  0  0  0  0  0  0  0
   21.8147   10.1039   51.9874 C   0  0  0  0  0  0  0  0  0  0  0  0
   20.8265    9.5737   51.2039 C   0  0  0  0  0  0  0  0  0  0  0  0
   20.0617   10.4732   50.4535 C   0  0  0  0  0  0  0  0  0  0  0  0
   20.2746   11.7915   50.4899 N   0  0  0  0  0  0  0  0  0  0  0  0
   21.2401   12.3291   51.2533 C   0  0  0  0  0  0  0  0  0  0  0  0
   21.4793   13.7992   51.2953 C   0  0  0  0  0  0  0  0  0  0  0  0
   22.0130   11.4517   52.0082 C   0  0  0  0  0  0  0  0  0  0  0  0
  1  2  1  0  0  0
  2  3  1  0  0  0
  3  4  1  0  0  0
  4  5  1  0  0  0
  5  6  1  0  0  0
  6  7  1  0  0  0
  7  8  1  0  0  0
  5  9  2  0  0  0
  9 10  1  0  0  0
 10 11  2  0  0  0
 11 12  1  0  0  0
 12 13  2  0  0  0
 13 14  1  0  0  0
 14 15  2  0  0  0
 15 16  1  0  0  0
 15 17  1  0  0  0
 17 18  1  0  0  0
 17 19  2  0  0  0
  9 20  1  0  0  0
 20 21  2  0  0  0
 21 22  1  0  0  0
 22 23  2  0  0  0
 23 24  1  0  0  0
 24 25  1  0  0  0
 24 26  2  0  0  0
  8  2  1  0  0  0
 19 12  1  0  0  0
 26 20  1  0  0  0
 11  4  1  0  0  0
M  END
> <minimizedAffinity>
31.51797

> <CNNscore>
0.4328695834

> <CNNaffinity>
5.7447214127

> <CNN_VS>
2.4867150784

> <CNNaffinity_variance>
0.3133945167

$$$$
[H]c1nc(C([H])([H])[H])c([H])c(-c2nc(-c3c([H])c([H])c(F)c(Cl)c3[H])n3c2C([H])([H])C([H])([H])O[C@]([H])(C([H])([H])[H])C3([H])[H])c1[H]


 26 29  0  0  0  0  0  0  0  0999 V2000
   20.2531    5.5045   53.6214 C   0  0  0  0  0  0  0  0  0  0  0  0
   21.6380    6.0981   53.7206 C   0  0  0  0  0  0  0  0  0  0  0  0
   21.5011    7.6053   53.4845 C   0  0  0  0  0  0  0  0  0  0  0  0
   22.6938    8.2996   53.8724 N   0  0  0  0  0  0  0  0  0  0  0  0
   23.8541    7.6546   54.1773 C   0  0  0  0  0  0  0  0  0  0  0  0
   24.2769    6.2605   54.1744 C   0  0  0  0  0  0  0  0  0  0  0  0
   23.6786    5.3509   53.1700 C   0  0  0  0  0  0  0  0  0  0  0  0
   22.4622    5.6812   52.6541 O   0  0  0  0  0  0  0  0  0  0  0  0
   24.7218    8.6620   54.5411 C   0  0  0  0  0  0  0  0  0  0  0  0
   24.0831    9.8128   54.4437 N   0  0  0  0  0  0  0  0  0  0  0  0
   22.8003    9.5953   54.0208 C   0  0  0  0  0  0  0  0  0  0  0  0
   21.8686   10.7212   53.8625 C   0  0  0  0  0  0  0  0  0  0  0  0
   20.9871   10.9614   54.9252 C   0  0  0  0  0  0  0  0  0  0  0  0
   20.1240   12.0219   54.8401 C   0  0  0  0  0  0  0  0  0  0  0  0
   20.1125   12.8410   53.7407 C   0  0  0  0  0  0  0  0  0  0  0  0
   19.2616   13.8754   53.6707 F   0  0  0  0  0  0  0  0  0  0  0  0
   20.9677   12.6165   52.6993 C   0  0  0  0  0  0  0  0  0  0  0  0
   20.9982   13.6313   51.2665 Cl  0  0  0  0  0  0  0  0  0  0  0  0
   21.8597   11.5343   52.7701 C   0  0  0  0  0  0  0  0  0  0  0  0
   26.1246    8.5855   54.9747 C   0  0  0  0  0  0  0  0  0  0  0  0
   26.4938    9.1696   56.1554 C   0  0  0  0  0  0  0  0  0  0  0  0
   27.8365    9.0492   56.5292 C   0  0  0  0  0  0  0  0  0  0  0  0
   28.7286    8.3970   55.7785 N   0  0  0  0  0  0  0  0  0  0  0  0
   28.3836    7.8177   54.6169 C   0  0  0  0  0  0  0  0  0  0  0  0
   29.3770    7.0898   53.7781 C   0  0  0  0  0  0  0  0  0  0  0  0
   27.0522    7.9255   54.2261 C   0  0  0  0  0  0  0  0  0  0  0  0
  1  2  1  0  0  0
  2  3  1  0  0  0
  3  4  1  0  0  0
  4  5  1  0  0  0
  5  6  1  0  0  0
  6  7  1  0  0  0
  7  8  1  0  0  0
  5  9  2  0  0  0
  9 10  1  0  0  0
 10 11  2  0  0  0
 11 12  1  0  0  0
 12 13  2  0  0  0
 13 14  1  0  0  0
 14 15  2  0  0  0
 15 16  1  0  0  0
 15 17  1  0  0  0
 17 18  1  0  0  0
 17 19  2  0  0  0
  9 20  1  0  0  0
 20 21  2  0  0  0
 21 22  1  0  0  0
 22 23  2  0  0  0
 23 24  1  0  0  0
 24 25  1  0  0  0
 24 26  2  0  0  0
  8  2  1  0  0  0
 19 12  1  0  0  0
 26 20  1  0  0  0
 11  4  1  0  0  0
M  END
> <minimizedAffinity>
31.85161

> <CNNscore>
0.4249217212

> <CNNaffinity>
5.6730713844

> <CNN_VS>
2.4106111526

> <CNNaffinity_variance>
0.2344878465

$$$$
[H]c1nc(C([H])([H])[H])c([H])c(-c2nc(-c3c([H])c([H])c(F)c(Cl)c3[H])n3c2C([H])([H])C([H])([H])O[C@]([H])(C([H])([H])[H])C3([H])[H])c1[H]


 26 29  0  0  0  0  0  0  0  0999 V2000
   19.8399   10.0427   50.4297 C   0  0  0  0  0  0  0  0  0  0  0  0
   20.8624    9.8367   51.5215 C   0  0  0  0  0  0  0  0  0  0  0  0
   20.5497    8.4921   52.1851 C   0  0  0  0  0  0  0  0  0  0  0  0
   21.6399    8.0555   53.0073 N   0  0  0  0  0  0  0  0  0  0  0  0
   22.6914    8.8615   53.3233 C   0  0  0  0  0  0  0  0  0  0  0  0
   23.0308   10.2508   53.0456 C   0  0  0  0  0  0  0  0  0  0  0  0
   21.9252   11.2287   52.9209 C   0  0  0  0  0  0  0  0  0  0  0  0
   20.6942   10.7597   52.5752 O   0  0  0  0  0  0  0  0  0  0  0  0
   23.5265    8.0595   54.0713 C   0  0  0  0  0  0  0  0  0  0  0  0
   22.9722    6.8660   54.1719 N   0  0  0  0  0  0  0  0  0  0  0  0
   21.7785    6.8527   53.5036 C   0  0  0  0  0  0  0  0  0  0  0  0
   20.9762    5.6228   53.4389 C   0  0  0  0  0  0  0  0  0  0  0  0
   21.6482    4.4536   53.0572 C   0  0  0  0  0  0  0  0  0  0  0  0
   20.9513    3.2748   53.0171 C   0  0  0  0  0  0  0  0  0  0  0  0
   19.6202    3.2261   53.3421 C   0  0  0  0  0  0  0  0  0  0  0  0
   18.9503    2.0650   53.2979 F   0  0  0  0  0  0  0  0  0  0  0  0
   18.9554    4.3594   53.7161 C   0  0  0  0  0  0  0  0  0  0  0  0
   17.2520    4.3578   54.1429 Cl  0  0  0  0  0  0  0  0  0  0  0  0
   19.6544    5.5763   53.7632 C   0  0  0  0  0  0  0  0  0  0  0  0
   24.8215    8.3705   54.6943 C   0  0  0  0  0  0  0  0  0  0  0  0
   24.8489    9.0730   55.8678 C   0  0  0  0  0  0  0  0  0  0  0  0
   26.1065    9.3238   56.4268 C   0  0  0  0  0  0  0  0  0  0  0  0
   27.2373    8.9031   55.8530 N   0  0  0  0  0  0  0  0  0  0  0  0
   27.2289    8.2123   54.7012 C   0  0  0  0  0  0  0  0  0  0  0  0
   28.4888    7.7423   54.0594 C   0  0  0  0  0  0  0  0  0  0  0  0
   25.9877    7.9518   54.1278 C   0  0  0  0  0  0  0  0  0  0  0  0
  1  2  1  0  0  0
  2  3  1  0  0  0
  3  4  1  0  0  0
  4  5  1  0  0  0
  5  6  1  0  0  0
  6  7  1  0  0  0
  7  8  1  0  0  0
  5  9  2  0  0  0
  9 10  1  0  0  0
 10 11  2  0  0  0
 11 12  1  0  0  0
 12 13  2  0  0  0
 13 14  1  0  0  0
 14 15  2  0  0  0
 15 16  1  0  0  0
 15 17  1  0  0  0
 17 18  1  0  0  0
 17 19  2  0  0  0
  9 20  1  0  0  0
 20 21  2  0  0  0
 21 22  1  0  0  0
 22 23  2  0  0  0
 23 24  1  0  0  0
 24 25  1  0  0  0
 24 26  2  0  0  0
  8  2  1  0  0  0
 19 12  1  0  0  0
 26 20  1  0  0  0
 11  4  1  0  0  0
M  END
> <minimizedAffinity>
34.19237

> <CNNscore>
0.4232093692

> <CNNaffinity>
6.2584409714

> <CNN_VS>
2.6486308575

> <CNNaffinity_variance>
0.9482318759

$$$$
[H]c1nc(C([H])([H])[H])c([H])c(-c2nc(-c3c([H])c([H])c(F)c(Cl)c3[H])n3c2C([H])([H])C([H])([H])O[C@]([H])(C([H])([H])[H])C3([H])[H])c1[H]


 26 29  0  0  0  0  0  0  0  0999 V2000
   26.4059    7.9676   53.7022 C   0  0  0  0  0  0  0  0  0  0  0  0
   25.0245    7.3834   53.8768 C   0  0  0  0  0  0  0  0  0  0  0  0
   24.0220    8.5188   53.6489 C   0  0  0  0  0  0  0  0  0  0  0  0
   22.6938    8.0084   53.4741 N   0  0  0  0  0  0  0  0  0  0  0  0
   22.3666    6.7097   53.7221 C   0  0  0  0  0  0  0  0  0  0  0  0
   23.0949    5.5528   54.2258 C   0  0  0  0  0  0  0  0  0  0  0  0
   24.1835    5.7838   55.2032 C   0  0  0  0  0  0  0  0  0  0  0  0
   24.7822    7.0070   55.2148 O   0  0  0  0  0  0  0  0  0  0  0  0
   21.0325    6.6215   53.3864 C   0  0  0  0  0  0  0  0  0  0  0  0
   20.6310    7.8088   52.9733 N   0  0  0  0  0  0  0  0  0  0  0  0
   21.6732    8.6935   53.0256 C   0  0  0  0  0  0  0  0  0  0  0  0
   21.4911   10.0840   52.5852 C   0  0  0  0  0  0  0  0  0  0  0  0
   21.6892   10.3424   51.2221 C   0  0  0  0  0  0  0  0  0  0  0  0
   21.4960   11.6164   50.7568 C   0  0  0  0  0  0  0  0  0  0  0  0
   21.1156   12.6293   51.5989 C   0  0  0  0  0  0  0  0  0  0  0  0
   20.9304   13.8720   51.1296 F   0  0  0  0  0  0  0  0  0  0  0  0
   20.9190   12.3886   52.9292 C   0  0  0  0  0  0  0  0  0  0  0  0
   20.4321   13.6455   54.0546 Cl  0  0  0  0  0  0  0  0  0  0  0  0
   21.1121   11.0884   53.4231 C   0  0  0  0  0  0  0  0  0  0  0  0
   20.1226    5.4678   53.4395 C   0  0  0  0  0  0  0  0  0  0  0  0
   18.8263    5.6544   53.8349 C   0  0  0  0  0  0  0  0  0  0  0  0
   17.9992    4.5263   53.8479 C   0  0  0  0  0  0  0  0  0  0  0  0
   18.4403    3.3162   53.4932 N   0  0  0  0  0  0  0  0  0  0  0  0
   19.7094    3.1149   53.1024 C   0  0  0  0  0  0  0  0  0  0  0  0
   20.2035    1.7661   52.7064 C   0  0  0  0  0  0  0  0  0  0  0  0
   20.5496    4.2243   53.0822 C   0  0  0  0  0  0  0  0  0  0  0  0
  1  2  1  0  0  0
  2  3  1  0  0  0
  3  4  1  0  0  0
  4  5  1  0  0  0
  5  6  1  0  0  0
  6  7  1  0  0  0
  7  8  1  0  0  0
  5  9  2  0  0  0
  9 10  1  0  0  0
 10 11  2  0  0  0
 11 12  1  0  0  0
 12 13  2  0  0  0
 13 14  1  0  0  0
 14 15  2  0  0  0
 15 16  1  0  0  0
 15 17  1  0  0  0
 17 18  1  0  0  0
 17 19  2  0  0  0
  9 20  1  0  0  0
 20 21  2  0  0  0
 21 22  1  0  0  0
 22 23  2  0  0  0
 23 24  1  0  0  0
 24 25  1  0  0  0
 24 26  2  0  0  0
  8  2  1  0  0  0
 19 12  1  0  0  0
 26 20  1  0  0  0
 11  4  1  0  0  0
M  END
> <minimizedAffinity>
31.56726

> <CNNscore>
0.4117944837

> <CNNaffinity>
6.1310172081

> <CNN_VS>
2.5247189999

> <CNNaffinity_variance>
0.5555351377

$$$$
[H]c1c([H])c(-c2c([H])c(C(=O)N([H])[H])nc3c([H])c(C([H])([H])N4C(=O)C([H])([H])C([H])([H])C4=O)c([H])c([H])c23)c([H])c([H])c1F


 30 33  0  0  0  0  0  0  0  0999 V2000
   21.5542    9.5875   52.1177 C   0  0  0  0  0  0  0  0  0  0  0  0
   20.6926    8.5720   52.4290 C   0  0  0  0  0  0  0  0  0  0  0  0
   21.1024    7.3898   53.0635 C   0  0  0  0  0  0  0  0  0  0  0  0
   22.4417    7.2974   53.3663 C   0  0  0  0  0  0  0  0  0  0  0  0
   22.9459    6.2029   53.9929 C   0  0  0  0  0  0  0  0  0  0  0  0
   24.2901    6.0775   54.3234 C   0  0  0  0  0  0  0  0  0  0  0  0
   25.1610    7.0913   54.0126 C   0  0  0  0  0  0  0  0  0  0  0  0
   24.6543    8.2051   53.3777 C   0  0  0  0  0  0  0  0  0  0  0  0
   23.3105    8.3315   53.0472 C   0  0  0  0  0  0  0  0  0  0  0  0
   22.8497    9.4408   52.4362 N   0  0  0  0  0  0  0  0  0  0  0  0
   20.1340    6.3546   53.3177 C   0  0  0  0  0  0  0  0  0  0  0  0
   20.4670    5.0269   53.3331 C   0  0  0  0  0  0  0  0  0  0  0  0
   19.5321    4.0298   53.5784 C   0  0  0  0  0  0  0  0  0  0  0  0
   18.2203    4.4381   53.8121 C   0  0  0  0  0  0  0  0  0  0  0  0
   17.2866    3.5120   54.0529 F   0  0  0  0  0  0  0  0  0  0  0  0
   17.8883    5.7781   53.7957 C   0  0  0  0  0  0  0  0  0  0  0  0
   18.8207    6.7567   53.5521 C   0  0  0  0  0  0  0  0  0  0  0  0
   21.5105   12.0913   51.9282 N   0  0  0  0  0  0  0  0  0  0  0  0
   21.1133   10.8173   51.4547 C   0  0  0  0  0  0  0  0  0  0  0  0
   20.3712   10.7088   50.4519 O   0  0  0  0  0  0  0  0  0  0  0  0
   22.4291   12.2447   52.4405 H   0  0  0  0  0  0  0  0  0  0  0  0
   20.8797   12.9163   51.7705 H   0  0  0  0  0  0  0  0  0  0  0  0
   26.5984    6.9727   54.3595 C   0  0  0  0  0  0  0  0  0  0  0  0
   27.0143    8.1646   55.0811 N   0  0  0  0  0  0  0  0  0  0  0  0
   26.1506    8.9723   55.8696 C   0  0  0  0  0  0  0  0  0  0  0  0
   24.8974    9.0598   55.8154 O   0  0  0  0  0  0  0  0  0  0  0  0
   27.0444    9.7270   56.8112 C   0  0  0  0  0  0  0  0  0  0  0  0
   28.2386    9.9860   55.9046 C   0  0  0  0  0  0  0  0  0  0  0  0
   28.3463    8.7195   55.1192 C   0  0  0  0  0  0  0  0  0  0  0  0
   29.3788    8.2301   54.5960 O   0  0  0  0  0  0  0  0  0  0  0  0
 18 19  1  0  0  0
 19 20  2  0  0  0
 19  1  1  0  0  0
  1  2  2  0  0  0
  2  3  1  0  0  0
  3 11  1  0  0  0
 11 12  2  0  0  0
 12 13  1  0  0  0
 13 14  2  0  0  0
 14 15  1  0  0  0
 14 16  1  0  0  0
 16 17  2  0  0  0
  3  4  2  0  0  0
  4  5  1  0  0  0
  5  6  2  0  0  0
  6  7  1  0  0  0
  7 23  1  0  0  0
 23 24  1  0  0  0
 24 25  1  0  0  0
 25 26  2  0  0  0
 25 27  1  0  0  0
 27 28  1  0  0  0
 28 29  1  0  0  0
 29 30  2  0  0  0
  7  8  2  0  0  0
  8  9  1  0  0  0
  9 10  2  0  0  0
 10  1  1  0  0  0
 17 11  1  0  0  0
  9  4  1  0  0  0
 29 24  1  0  0  0
 18 21  1  0  0  0
 18 22  1  0  0  0
M  END
> <minimizedAffinity>
20.85717

> <CNNscore>
0.6109912992

> <CNNaffinity>
6.3826727867

> <CNN_VS>
3.8997576237

> <CNNaffinity_variance>
0.4553394914

$$$$
[H]c1c([H])c(-c2c([H])c(C(=O)N([H])[H])nc3c([H])c(C([H])([H])N4C(=O)C([H])([H])C([H])([H])C4=O)c([H])c([H])c23)c([H])c([H])c1F


 30 33  0  0  0  0  0  0  0  0999 V2000
   21.5107    9.5959   52.0341 C   0  0  0  0  0  0  0  0  0  0  0  0
   20.6511    8.5861   52.3685 C   0  0  0  0  0  0  0  0  0  0  0  0
   21.0661    7.4119   53.0144 C   0  0  0  0  0  0  0  0  0  0  0  0
   22.4085    7.3215   53.3039 C   0  0  0  0  0  0  0  0  0  0  0  0
   22.9179    6.2348   53.9398 C   0  0  0  0  0  0  0  0  0  0  0  0
   24.2655    6.1117   54.2572 C   0  0  0  0  0  0  0  0  0  0  0  0
   25.1344    7.1199   53.9233 C   0  0  0  0  0  0  0  0  0  0  0  0
   24.6224    8.2258   53.2789 C   0  0  0  0  0  0  0  0  0  0  0  0
   23.2752    8.3498   52.9614 C   0  0  0  0  0  0  0  0  0  0  0  0
   22.8093    9.4515   52.3405 N   0  0  0  0  0  0  0  0  0  0  0  0
   20.0990    6.3819   53.2931 C   0  0  0  0  0  0  0  0  0  0  0  0
   20.4282    5.0532   53.3134 C   0  0  0  0  0  0  0  0  0  0  0  0
   19.4946    4.0611   53.5823 C   0  0  0  0  0  0  0  0  0  0  0  0
   18.1883    4.4753   53.8351 C   0  0  0  0  0  0  0  0  0  0  0  0
   17.2560    3.5541   54.0989 F   0  0  0  0  0  0  0  0  0  0  0  0
   17.8601    5.8162   53.8138 C   0  0  0  0  0  0  0  0  0  0  0  0
   18.7911    6.7899   53.5467 C   0  0  0  0  0  0  0  0  0  0  0  0
   21.5616   12.0889   51.7349 N   0  0  0  0  0  0  0  0  0  0  0  0
   21.0644   10.8174   51.3593 C   0  0  0  0  0  0  0  0  0  0  0  0
   20.2261   10.7039   50.4361 O   0  0  0  0  0  0  0  0  0  0  0  0
   22.5308   12.2181   52.1518 H   0  0  0  0  0  0  0  0  0  0  0  0
   20.9564   12.9365   51.5989 H   0  0  0  0  0  0  0  0  0  0  0  0
   26.5753    7.0037   54.2560 C   0  0  0  0  0  0  0  0  0  0  0  0
   26.9722    8.1482   55.0604 N   0  0  0  0  0  0  0  0  0  0  0  0
   28.3049    8.6282   55.1775 C   0  0  0  0  0  0  0  0  0  0  0  0
   29.3790    8.0135   54.9553 O   0  0  0  0  0  0  0  0  0  0  0  0
   28.1864   10.0548   55.6313 C   0  0  0  0  0  0  0  0  0  0  0  0
   26.9904    9.9451   56.5655 C   0  0  0  0  0  0  0  0  0  0  0  0
   26.0998    8.9746   55.8600 C   0  0  0  0  0  0  0  0  0  0  0  0
   24.8486    8.8879   55.9400 O   0  0  0  0  0  0  0  0  0  0  0  0
 18 19  1  0  0  0
 19 20  2  0  0  0
 19  1  1  0  0  0
  1  2  2  0  0  0
  2  3  1  0  0  0
  3 11  1  0  0  0
 11 12  2  0  0  0
 12 13  1  0  0  0
 13 14  2  0  0  0
 14 15  1  0  0  0
 14 16  1  0  0  0
 16 17  2  0  0  0
  3  4  2  0  0  0
  4  5  1  0  0  0
  5  6  2  0  0  0
  6  7  1  0  0  0
  7 23  1  0  0  0
 23 24  1  0  0  0
 24 25  1  0  0  0
 25 26  2  0  0  0
 25 27  1  0  0  0
 27 28  1  0  0  0
 28 29  1  0  0  0
 29 30  2  0  0  0
  7  8  2  0  0  0
  8  9  1  0  0  0
  9 10  2  0  0  0
 10  1  1  0  0  0
 17 11  1  0  0  0
  9  4  1  0  0  0
 29 24  1  0  0  0
 18 21  1  0  0  0
 18 22  1  0  0  0
M  END
> <minimizedAffinity>
22.49636

> <CNNscore>
0.5890423656

> <CNNaffinity>
6.3347988129

> <CNN_VS>
3.7314648628

> <CNNaffinity_variance>
0.4629995227

$$$$
[H]c1c([H])c(-c2c([H])c(C(=O)N([H])[H])nc3c([H])c(C([H])([H])N4C(=O)C([H])([H])C([H])([H])C4=O)c([H])c([H])c23)c([H])c([H])c1F


 30 33  0  0  0  0  0  0  0  0999 V2000
   20.6551    6.3759   53.4665 C   0  0  0  0  0  0  0  0  0  0  0  0
   20.5664    7.6408   52.9541 C   0  0  0  0  0  0  0  0  0  0  0  0
   21.6434    8.5398   52.9476 C   0  0  0  0  0  0  0  0  0  0  0  0
   22.8205    8.0793   53.4918 C   0  0  0  0  0  0  0  0  0  0  0  0
   23.9311    8.8604   53.5259 C   0  0  0  0  0  0  0  0  0  0  0  0
   25.1397    8.4273   54.0585 C   0  0  0  0  0  0  0  0  0  0  0  0
   25.2360    7.1602   54.5762 C   0  0  0  0  0  0  0  0  0  0  0  0
   24.1120    6.3626   54.5429 C   0  0  0  0  0  0  0  0  0  0  0  0
   22.9034    6.7947   54.0104 C   0  0  0  0  0  0  0  0  0  0  0  0
   21.8285    5.9821   53.9854 N   0  0  0  0  0  0  0  0  0  0  0  0
   21.4497    9.8672   52.4238 C   0  0  0  0  0  0  0  0  0  0  0  0
   21.1301   10.0987   51.1129 C   0  0  0  0  0  0  0  0  0  0  0  0
   20.9436   11.3793   50.6093 C   0  0  0  0  0  0  0  0  0  0  0  0
   21.0964   12.4376   51.5030 C   0  0  0  0  0  0  0  0  0  0  0  0
   20.9261   13.6881   51.0616 F   0  0  0  0  0  0  0  0  0  0  0  0
   21.4188   12.2002   52.8243 C   0  0  0  0  0  0  0  0  0  0  0  0
   21.6012   10.9295   53.3126 C   0  0  0  0  0  0  0  0  0  0  0  0
   19.7212    4.0446   53.4615 N   0  0  0  0  0  0  0  0  0  0  0  0
   19.5224    5.4466   53.4673 C   0  0  0  0  0  0  0  0  0  0  0  0
   18.3675    5.9304   53.4733 O   0  0  0  0  0  0  0  0  0  0  0  0
   20.5834    3.5925   53.8881 H   0  0  0  0  0  0  0  0  0  0  0  0
   18.9950    3.4258   53.0222 H   0  0  0  0  0  0  0  0  0  0  0  0
   26.5192    6.6831   55.1473 C   0  0  0  0  0  0  0  0  0  0  0  0
   27.4988    7.7555   55.0795 N   0  0  0  0  0  0  0  0  0  0  0  0
   28.5599    7.8199   54.1361 C   0  0  0  0  0  0  0  0  0  0  0  0
   29.0743    6.8830   53.4738 O   0  0  0  0  0  0  0  0  0  0  0  0
   28.9655    9.2646   54.0761 C   0  0  0  0  0  0  0  0  0  0  0  0
   28.7907    9.6576   55.5356 C   0  0  0  0  0  0  0  0  0  0  0  0
   27.5599    8.9130   55.9398 C   0  0  0  0  0  0  0  0  0  0  0  0
   26.7408    9.2225   56.8413 O   0  0  0  0  0  0  0  0  0  0  0  0
 18 19  1  0  0  0
 19 20  2  0  0  0
 19  1  1  0  0  0
  1  2  2  0  0  0
  2  3  1  0  0  0
  3 11  1  0  0  0
 11 12  2  0  0  0
 12 13  1  0  0  0
 13 14  2  0  0  0
 14 15  1  0  0  0
 14 16  1  0  0  0
 16 17  2  0  0  0
  3  4  2  0  0  0
  4  5  1  0  0  0
  5  6  2  0  0  0
  6  7  1  0  0  0
  7 23  1  0  0  0
 23 24  1  0  0  0
 24 25  1  0  0  0
 25 26  2  0  0  0
 25 27  1  0  0  0
 27 28  1  0  0  0
 28 29  1  0  0  0
 29 30  2  0  0  0
  7  8  2  0  0  0
  8  9  1  0  0  0
  9 10  2  0  0  0
 10  1  1  0  0  0
 17 11  1  0  0  0
  9  4  1  0  0  0
 29 24  1  0  0  0
 18 21  1  0  0  0
 18 22  1  0  0  0
M  END
> <minimizedAffinity>
21.10407

> <CNNscore>
0.4861580729

> <CNNaffinity>
6.1477050781

> <CNN_VS>
2.9887564182

> <CNNaffinity_variance>
0.3522378206

$$$$
[H]c1c([H])c(-c2c([H])c(C(=O)N([H])[H])nc3c([H])c(C([H])([H])N4C(=O)C([H])([H])C([H])([H])C4=O)c([H])c([H])c23)c([H])c([H])c1F


 30 33  0  0  0  0  0  0  0  0999 V2000
   21.7688    9.9117   52.2289 C   0  0  0  0  0  0  0  0  0  0  0  0
   22.9812    9.8194   52.8550 C   0  0  0  0  0  0  0  0  0  0  0  0
   23.4334    8.6451   53.4753 C   0  0  0  0  0  0  0  0  0  0  0  0
   22.5818    7.5653   53.4225 C   0  0  0  0  0  0  0  0  0  0  0  0
   22.9233    6.3740   53.9785 C   0  0  0  0  0  0  0  0  0  0  0  0
   22.0944    5.2591   53.9371 C   0  0  0  0  0  0  0  0  0  0  0  0
   20.8757    5.3445   53.3124 C   0  0  0  0  0  0  0  0  0  0  0  0
   20.5246    6.5510   52.7453 C   0  0  0  0  0  0  0  0  0  0  0  0
   21.3528    7.6661   52.7858 C   0  0  0  0  0  0  0  0  0  0  0  0
   20.9799    8.8262   52.2102 N   0  0  0  0  0  0  0  0  0  0  0  0
   24.7074    8.6488   54.1466 C   0  0  0  0  0  0  0  0  0  0  0  0
   25.8514    8.1902   53.5507 C   0  0  0  0  0  0  0  0  0  0  0  0
   27.0793    8.1944   54.1992 C   0  0  0  0  0  0  0  0  0  0  0  0
   27.1040    8.6911   55.5010 C   0  0  0  0  0  0  0  0  0  0  0  0
   28.2649    8.7143   56.1637 F   0  0  0  0  0  0  0  0  0  0  0  0
   25.9482    9.1528   56.0986 C   0  0  0  0  0  0  0  0  0  0  0  0
   24.7385    9.1444   55.4484 C   0  0  0  0  0  0  0  0  0  0  0  0
   21.5490   12.4127   52.1667 N   0  0  0  0  0  0  0  0  0  0  0  0
   21.3082   11.1444   51.5848 C   0  0  0  0  0  0  0  0  0  0  0  0
   20.6923   11.0436   50.4993 O   0  0  0  0  0  0  0  0  0  0  0  0
   22.3905   12.6008   52.7882 H   0  0  0  0  0  0  0  0  0  0  0  0
   20.8764   13.1978   51.9810 H   0  0  0  0  0  0  0  0  0  0  0  0
   19.9801    4.1631   53.2592 C   0  0  0  0  0  0  0  0  0  0  0  0
   18.6250    4.5775   53.5854 N   0  0  0  0  0  0  0  0  0  0  0  0
   17.5134    3.6971   53.6808 C   0  0  0  0  0  0  0  0  0  0  0  0
   17.3790    2.5515   53.1802 O   0  0  0  0  0  0  0  0  0  0  0  0
   16.4952    4.4146   54.5195 C   0  0  0  0  0  0  0  0  0  0  0  0
   16.7051    5.8433   54.0399 C   0  0  0  0  0  0  0  0  0  0  0  0
   18.1865    5.9246   53.8620 C   0  0  0  0  0  0  0  0  0  0  0  0
   18.9100    6.9496   53.9360 O   0  0  0  0  0  0  0  0  0  0  0  0
 18 19  1  0  0  0
 19 20  2  0  0  0
 19  1  1  0  0  0
  1  2  2  0  0  0
  2  3  1  0  0  0
  3 11  1  0  0  0
 11 12  2  0  0  0
 12 13  1  0  0  0
 13 14  2  0  0  0
 14 15  1  0  0  0
 14 16  1  0  0  0
 16 17  2  0  0  0
  3  4  2  0  0  0
  4  5  1  0  0  0
  5  6  2  0  0  0
  6  7  1  0  0  0
  7 23  1  0  0  0
 23 24  1  0  0  0
 24 25  1  0  0  0
 25 26  2  0  0  0
 25 27  1  0  0  0
 27 28  1  0  0  0
 28 29  1  0  0  0
 29 30  2  0  0  0
  7  8  2  0  0  0
  8  9  1  0  0  0
  9 10  2  0  0  0
 10  1  1  0  0  0
 17 11  1  0  0  0
  9  4  1  0  0  0
 29 24  1  0  0  0
 18 21  1  0  0  0
 18 22  1  0  0  0
M  END
> <minimizedAffinity>
24.56379

> <CNNscore>
0.4853633642

> <CNNaffinity>
6.2496995926

> <CNN_VS>
3.0333752632

> <CNNaffinity_variance>
0.4521406293

$$$$
[H]c1c([H])c(-c2c([H])c(C(=O)N([H])[H])nc3c([H])c(C([H])([H])N4C(=O)C([H])([H])C([H])([H])C4=O)c([H])c([H])c23)c([H])c([H])c1F


 30 33  0  0  0  0  0  0  0  0999 V2000
   21.8231    9.9641   54.2187 C   0  0  0  0  0  0  0  0  0  0  0  0
   23.1765    9.8337   54.3660 C   0  0  0  0  0  0  0  0  0  0  0  0
   23.8404    8.6015   54.2698 C   0  0  0  0  0  0  0  0  0  0  0  0
   23.0491    7.5052   54.0133 C   0  0  0  0  0  0  0  0  0  0  0  0
   23.5877    6.2647   53.8868 C   0  0  0  0  0  0  0  0  0  0  0  0
   22.8225    5.1358   53.6188 C   0  0  0  0  0  0  0  0  0  0  0  0
   21.4638    5.2583   53.4716 C   0  0  0  0  0  0  0  0  0  0  0  0
   20.9120    6.5153   53.5978 C   0  0  0  0  0  0  0  0  0  0  0  0
   21.6762    7.6446   53.8654 C   0  0  0  0  0  0  0  0  0  0  0  0
   21.1023    8.8594   53.9710 N   0  0  0  0  0  0  0  0  0  0  0  0
   25.2644    8.5504   54.4786 C   0  0  0  0  0  0  0  0  0  0  0  0
   26.1353    8.1550   53.4992 C   0  0  0  0  0  0  0  0  0  0  0  0
   27.5082    8.1062   53.7021 C   0  0  0  0  0  0  0  0  0  0  0  0
   27.9740    8.4812   54.9608 C   0  0  0  0  0  0  0  0  0  0  0  0
   29.2889    8.4497   55.2009 F   0  0  0  0  0  0  0  0  0  0  0  0
   27.0926    8.8795   55.9460 C   0  0  0  0  0  0  0  0  0  0  0  0
   25.7362    8.9242   55.7352 C   0  0  0  0  0  0  0  0  0  0  0  0
   21.1877   12.1988   53.2654 N   0  0  0  0  0  0  0  0  0  0  0  0
   21.1419   11.2570   54.3217 C   0  0  0  0  0  0  0  0  0  0  0  0
   20.5146   11.5065   55.3763 O   0  0  0  0  0  0  0  0  0  0  0  0
   21.2950   11.9062   52.2491 H   0  0  0  0  0  0  0  0  0  0  0  0
   21.1136   13.2227   53.4879 H   0  0  0  0  0  0  0  0  0  0  0  0
   20.6336    4.0630   53.1845 C   0  0  0  0  0  0  0  0  0  0  0  0
   19.3206    4.2398   53.7839 N   0  0  0  0  0  0  0  0  0  0  0  0
   18.4195    5.2890   53.4566 C   0  0  0  0  0  0  0  0  0  0  0  0
   18.6738    6.3999   52.9254 O   0  0  0  0  0  0  0  0  0  0  0  0
   17.0611    4.8068   53.8780 C   0  0  0  0  0  0  0  0  0  0  0  0
   17.4228    4.0480   55.1464 C   0  0  0  0  0  0  0  0  0  0  0  0
   18.7208    3.3983   54.7917 C   0  0  0  0  0  0  0  0  0  0  0  0
   19.1999    2.3382   55.2671 O   0  0  0  0  0  0  0  0  0  0  0  0
 18 19  1  0  0  0
 19 20  2  0  0  0
 19  1  1  0  0  0
  1  2  2  0  0  0
  2  3  1  0  0  0
  3 11  1  0  0  0
 11 12  2  0  0  0
 12 13  1  0  0  0
 13 14  2  0  0  0
 14 15  1  0  0  0
 14 16  1  0  0  0
 16 17  2  0  0  0
  3  4  2  0  0  0
  4  5  1  0  0  0
  5  6  2  0  0  0
  6  7  1  0  0  0
  7 23  1  0  0  0
 23 24  1  0  0  0
 24 25  1  0  0  0
 25 26  2  0  0  0
 25 27  1  0  0  0
 27 28  1  0  0  0
 28 29  1  0  0  0
 29 30  2  0  0  0
  7  8  2  0  0  0
  8  9  1  0  0  0
  9 10  2  0  0  0
 10  1  1  0  0  0
 17 11  1  0  0  0
  9  4  1  0  0  0
 29 24  1  0  0  0
 18 21  1  0  0  0
 18 22  1  0  0  0
M  END
> <minimizedAffinity>
27.07401

> <CNNscore>
0.4633166194

> <CNNaffinity>
6.2357392311

> <CNN_VS>
2.8891215324

> <CNNaffinity_variance>
0.5093094110

$$$$
[H]c1c([H])c(-c2c([H])c(C(=O)N([H])[H])nc3c([H])c(C([H])([H])N4C(=O)C([H])([H])C([H])([H])C4=O)c([H])c([H])c23)c([H])c([H])c1F


 30 33  0  0  0  0  0  0  0  0999 V2000
   24.4489    8.4075   54.8463 C   0  0  0  0  0  0  0  0  0  0  0  0
   23.7694    9.2453   54.0056 C   0  0  0  0  0  0  0  0  0  0  0  0
   22.6106    8.8599   53.3151 C   0  0  0  0  0  0  0  0  0  0  0  0
   22.1784    7.5709   53.5286 C   0  0  0  0  0  0  0  0  0  0  0  0
   21.0598    7.0959   52.9220 C   0  0  0  0  0  0  0  0  0  0  0  0
   20.5873    5.8039   53.1201 C   0  0  0  0  0  0  0  0  0  0  0  0
   21.2646    4.9568   53.9606 C   0  0  0  0  0  0  0  0  0  0  0  0
   22.4000    5.4342   54.5799 C   0  0  0  0  0  0  0  0  0  0  0  0
   22.8730    6.7259   54.3827 C   0  0  0  0  0  0  0  0  0  0  0  0
   23.9810    7.1609   55.0146 N   0  0  0  0  0  0  0  0  0  0  0  0
   21.9813    9.7946   52.4183 C   0  0  0  0  0  0  0  0  0  0  0  0
   21.1106    9.3984   51.4391 C   0  0  0  0  0  0  0  0  0  0  0  0
   20.5045   10.3010   50.5750 C   0  0  0  0  0  0  0  0  0  0  0  0
   20.8211   11.6474   50.7448 C   0  0  0  0  0  0  0  0  0  0  0  0
   20.2608   12.5518   49.9352 F   0  0  0  0  0  0  0  0  0  0  0  0
   21.6998   12.0431   51.7335 C   0  0  0  0  0  0  0  0  0  0  0  0
   22.2940   11.1424   52.5832 C   0  0  0  0  0  0  0  0  0  0  0  0
   26.9469    8.4606   55.0992 N   0  0  0  0  0  0  0  0  0  0  0  0
   25.6584    8.8224   55.5615 C   0  0  0  0  0  0  0  0  0  0  0  0
   25.5190    9.5098   56.5988 O   0  0  0  0  0  0  0  0  0  0  0  0
   27.1535    8.2921   54.0702 H   0  0  0  0  0  0  0  0  0  0  0  0
   27.7289    8.3539   55.7924 H   0  0  0  0  0  0  0  0  0  0  0  0
   20.7724    3.5752   54.1829 C   0  0  0  0  0  0  0  0  0  0  0  0
   19.3193    3.5729   54.1297 N   0  0  0  0  0  0  0  0  0  0  0  0
   18.4707    3.5524   55.2697 C   0  0  0  0  0  0  0  0  0  0  0  0
   18.7423    3.1786   56.4391 O   0  0  0  0  0  0  0  0  0  0  0  0
   17.1446    4.0784   54.8009 C   0  0  0  0  0  0  0  0  0  0  0  0
   17.0927    3.4795   53.4031 C   0  0  0  0  0  0  0  0  0  0  0  0
   18.5077    3.5906   52.9362 C   0  0  0  0  0  0  0  0  0  0  0  0
   18.9167    3.6812   51.7514 O   0  0  0  0  0  0  0  0  0  0  0  0
 18 19  1  0  0  0
 19 20  2  0  0  0
 19  1  1  0  0  0
  1  2  2  0  0  0
  2  3  1  0  0  0
  3 11  1  0  0  0
 11 12  2  0  0  0
 12 13  1  0  0  0
 13 14  2  0  0  0
 14 15  1  0  0  0
 14 16  1  0  0  0
 16 17  2  0  0  0
  3  4  2  0  0  0
  4  5  1  0  0  0
  5  6  2  0  0  0
  6  7  1  0  0  0
  7 23  1  0  0  0
 23 24  1  0  0  0
 24 25  1  0  0  0
 25 26  2  0  0  0
 25 27  1  0  0  0
 27 28  1  0  0  0
 28 29  1  0  0  0
 29 30  2  0  0  0
  7  8  2  0  0  0
  8  9  1  0  0  0
  9 10  2  0  0  0
 10  1  1  0  0  0
 17 11  1  0  0  0
  9  4  1  0  0  0
 29 24  1  0  0  0
 18 21  1  0  0  0
 18 22  1  0  0  0
M  END
> <minimizedAffinity>
37.65410

> <CNNscore>
0.4496460855

> <CNNaffinity>
6.1661214828

> <CNN_VS>
2.7725722790

> <CNNaffinity_variance>
0.9071292877

$$$$
[H]c1c([H])c(-c2c([H])c(C(=O)N([H])[H])nc3c([H])c(C([H])([H])N4C(=O)C([H])([H])C([H])([H])C4=O)c([H])c([H])c23)c([H])c([H])c1F


 30 33  0  0  0  0  0  0  0  0999 V2000
   21.9593    6.3697   53.9078 C   0  0  0  0  0  0  0  0  0  0  0  0
   23.2826    6.6946   54.0242 C   0  0  0  0  0  0  0  0  0  0  0  0
   23.7255    7.9685   54.4105 C   0  0  0  0  0  0  0  0  0  0  0  0
   22.7446    8.8970   54.6741 C   0  0  0  0  0  0  0  0  0  0  0  0
   23.0593   10.1580   55.0688 C   0  0  0  0  0  0  0  0  0  0  0  0
   22.0970   11.1198   55.3529 C   0  0  0  0  0  0  0  0  0  0  0  0
   20.7673   10.8020   55.2366 C   0  0  0  0  0  0  0  0  0  0  0  0
   20.4422    9.5231   54.8376 C   0  0  0  0  0  0  0  0  0  0  0  0
   21.4036    8.5607   54.5536 C   0  0  0  0  0  0  0  0  0  0  0  0
   21.0472    7.3169   54.1766 N   0  0  0  0  0  0  0  0  0  0  0  0
   25.1396    8.2350   54.4684 C   0  0  0  0  0  0  0  0  0  0  0  0
   25.9537    8.1144   53.3745 C   0  0  0  0  0  0  0  0  0  0  0  0
   27.3172    8.3717   53.4318 C   0  0  0  0  0  0  0  0  0  0  0  0
   27.8342    8.7639   54.6650 C   0  0  0  0  0  0  0  0  0  0  0  0
   29.1421    9.0221   54.7666 F   0  0  0  0  0  0  0  0  0  0  0  0
   27.0100    8.8844   55.7660 C   0  0  0  0  0  0  0  0  0  0  0  0
   25.6625    8.6275   55.6988 C   0  0  0  0  0  0  0  0  0  0  0  0
   20.1435    4.7654   53.2475 N   0  0  0  0  0  0  0  0  0  0  0  0
   21.5098    5.0353   53.5032 C   0  0  0  0  0  0  0  0  0  0  0  0
   22.3733    4.1356   53.3894 O   0  0  0  0  0  0  0  0  0  0  0  0
   19.4733    5.5133   52.8993 H   0  0  0  0  0  0  0  0  0  0  0  0
   19.7745    3.7947   53.4055 H   0  0  0  0  0  0  0  0  0  0  0  0
   19.7284   11.8173   55.5371 C   0  0  0  0  0  0  0  0  0  0  0  0
   19.0627   11.4641   56.7807 N   0  0  0  0  0  0  0  0  0  0  0  0
   17.6632   11.2562   56.9154 C   0  0  0  0  0  0  0  0  0  0  0  0
   16.7373   11.6650   56.1694 O   0  0  0  0  0  0  0  0  0  0  0  0
   17.4911   10.4291   58.1570 C   0  0  0  0  0  0  0  0  0  0  0  0
   18.5858   11.0210   59.0326 C   0  0  0  0  0  0  0  0  0  0  0  0
   19.6956   11.2684   58.0631 C   0  0  0  0  0  0  0  0  0  0  0  0
   20.9284   11.3012   58.3049 O   0  0  0  0  0  0  0  0  0  0  0  0
 18 19  1  0  0  0
 19 20  2  0  0  0
 19  1  1  0  0  0
  1  2  2  0  0  0
  2  3  1  0  0  0
  3 11  1  0  0  0
 11 12  2  0  0  0
 12 13  1  0  0  0
 13 14  2  0  0  0
 14 15  1  0  0  0
 14 16  1  0  0  0
 16 17  2  0  0  0
  3  4  2  0  0  0
  4  5  1  0  0  0
  5  6  2  0  0  0
  6  7  1  0  0  0
  7 23  1  0  0  0
 23 24  1  0  0  0
 24 25  1  0  0  0
 25 26  2  0  0  0
 25 27  1  0  0  0
 27 28  1  0  0  0
 28 29  1  0  0  0
 29 30  2  0  0  0
  7  8  2  0  0  0
  8  9  1  0  0  0
  9 10  2  0  0  0
 10  1  1  0  0  0
 17 11  1  0  0  0
  9  4  1  0  0  0
 29 24  1  0  0  0
 18 21  1  0  0  0
 18 22  1  0  0  0
M  END
> <minimizedAffinity>
56.47539

> <CNNscore>
0.3876532316

> <CNNaffinity>
6.0253400803

> <CNN_VS>
2.3357424736

> <CNNaffinity_variance>
0.6812614202

$$$$
[H]c1c([H])c(-c2c([H])c(C(=O)N([H])[H])nc3c([H])c(C([H])([H])N4C(=O)C([H])([H])C([H])([H])C4=O)c([H])c([H])c23)c([H])c([H])c1F


 30 33  0  0  0  0  0  0  0  0999 V2000
   24.5063    7.8216   54.3975 C   0  0  0  0  0  0  0  0  0  0  0  0
   23.8524    8.7496   53.6348 C   0  0  0  0  0  0  0  0  0  0  0  0
   22.5182    8.6007   53.2274 C   0  0  0  0  0  0  0  0  0  0  0  0
   21.8828    7.4522   53.6411 C   0  0  0  0  0  0  0  0  0  0  0  0
   20.5863    7.2110   53.3158 C   0  0  0  0  0  0  0  0  0  0  0  0
   19.9085    6.0679   53.7227 C   0  0  0  0  0  0  0  0  0  0  0  0
   20.5584    5.1313   54.4865 C   0  0  0  0  0  0  0  0  0  0  0  0
   21.8741    5.3717   54.8206 C   0  0  0  0  0  0  0  0  0  0  0  0
   22.5525    6.5145   54.4145 C   0  0  0  0  0  0  0  0  0  0  0  0
   23.8360    6.7203   54.7702 N   0  0  0  0  0  0  0  0  0  0  0  0
   21.9204    9.6092   52.3911 C   0  0  0  0  0  0  0  0  0  0  0  0
   22.0920   10.9479   52.6202 C   0  0  0  0  0  0  0  0  0  0  0  0
   21.5149   11.9193   51.8129 C   0  0  0  0  0  0  0  0  0  0  0  0
   20.7417   11.4729   50.7428 C   0  0  0  0  0  0  0  0  0  0  0  0
   20.1668   12.3733   49.9388 F   0  0  0  0  0  0  0  0  0  0  0  0
   20.5710   10.1220   50.5148 C   0  0  0  0  0  0  0  0  0  0  0  0
   21.1462    9.1691   51.3195 C   0  0  0  0  0  0  0  0  0  0  0  0
   26.9551    7.3258   54.1437 N   0  0  0  0  0  0  0  0  0  0  0  0
   25.9003    7.9891   54.8162 C   0  0  0  0  0  0  0  0  0  0  0  0
   26.1331    8.7397   55.7911 O   0  0  0  0  0  0  0  0  0  0  0  0
   26.8966    7.0656   53.1148 H   0  0  0  0  0  0  0  0  0  0  0  0
   27.8274    7.0803   54.6749 H   0  0  0  0  0  0  0  0  0  0  0  0
   19.8484    3.9065   54.9293 C   0  0  0  0  0  0  0  0  0  0  0  0
   18.7545    3.6319   54.0114 N   0  0  0  0  0  0  0  0  0  0  0  0
   18.9089    3.0493   52.7242 C   0  0  0  0  0  0  0  0  0  0  0  0
   19.9399    3.0038   52.0059 O   0  0  0  0  0  0  0  0  0  0  0  0
   17.5655    2.4790   52.3705 C   0  0  0  0  0  0  0  0  0  0  0  0
   16.6530    3.5345   52.9775 C   0  0  0  0  0  0  0  0  0  0  0  0
   17.3552    3.8982   54.2453 C   0  0  0  0  0  0  0  0  0  0  0  0
   16.8423    4.3444   55.3022 O   0  0  0  0  0  0  0  0  0  0  0  0
 18 19  1  0  0  0
 19 20  2  0  0  0
 19  1  1  0  0  0
  1  2  2  0  0  0
  2  3  1  0  0  0
  3 11  1  0  0  0
 11 12  2  0  0  0
 12 13  1  0  0  0
 13 14  2  0  0  0
 14 15  1  0  0  0
 14 16  1  0  0  0
 16 17  2  0  0  0
  3  4  2  0  0  0
  4  5  1  0  0  0
  5  6  2  0  0  0
  6  7  1  0  0  0
  7 23  1  0  0  0
 23 24  1  0  0  0
 24 25  1  0  0  0
 25 26  2  0  0  0
 25 27  1  0  0  0
 27 28  1  0  0  0
 28 29  1  0  0  0
 29 30  2  0  0  0
  7  8  2  0  0  0
  8  9  1  0  0  0
  9 10  2  0  0  0
 10  1  1  0  0  0
 17 11  1  0  0  0
  9  4  1  0  0  0
 29 24  1  0  0  0
 18 21  1  0  0  0
 18 22  1  0  0  0
M  END
> <minimizedAffinity>
33.19629

> <CNNscore>
0.3432905078

> <CNNaffinity>
6.0122737885

> <CNN_VS>
2.0639564991

> <CNNaffinity_variance>
0.5484106541

$$$$
[H]c1c([H])c(-c2c([H])c(C(=O)N([H])[H])nc3c([H])c(C([H])([H])N4C(=O)C([H])([H])C([H])([H])C4=O)c([H])c([H])c23)c([H])c([H])c1F


 30 33  0  0  0  0  0  0  0  0999 V2000
   26.0510    8.7279   55.3365 C   0  0  0  0  0  0  0  0  0  0  0  0
   24.9499    9.5346   55.2533 C   0  0  0  0  0  0  0  0  0  0  0  0
   23.7069    9.0849   54.7832 C   0  0  0  0  0  0  0  0  0  0  0  0
   23.6450    7.7639   54.4021 C   0  0  0  0  0  0  0  0  0  0  0  0
   22.4882    7.2188   53.9442 C   0  0  0  0  0  0  0  0  0  0  0  0
   22.3845    5.8874   53.5592 C   0  0  0  0  0  0  0  0  0  0  0  0
   23.4854    5.0722   53.6379 C   0  0  0  0  0  0  0  0  0  0  0  0
   24.6618    5.6200   54.1033 C   0  0  0  0  0  0  0  0  0  0  0  0
   24.7664    6.9510   54.4887 C   0  0  0  0  0  0  0  0  0  0  0  0
   25.9311    7.4484   54.9493 N   0  0  0  0  0  0  0  0  0  0  0  0
   22.6104   10.0140   54.6914 C   0  0  0  0  0  0  0  0  0  0  0  0
   22.3627   10.7464   53.5617 C   0  0  0  0  0  0  0  0  0  0  0  0
   21.3050   11.6420   53.4747 C   0  0  0  0  0  0  0  0  0  0  0  0
   20.4915   11.7693   54.5990 C   0  0  0  0  0  0  0  0  0  0  0  0
   19.4610   12.6201   54.5600 F   0  0  0  0  0  0  0  0  0  0  0  0
   20.7444   11.0288   55.7365 C   0  0  0  0  0  0  0  0  0  0  0  0
   21.7934   10.1456   55.8124 C   0  0  0  0  0  0  0  0  0  0  0  0
   28.5196    9.0895   55.0496 N   0  0  0  0  0  0  0  0  0  0  0  0
   27.3438    9.2101   55.8292 C   0  0  0  0  0  0  0  0  0  0  0  0
   27.3790    9.7348   56.9656 O   0  0  0  0  0  0  0  0  0  0  0  0
   28.4971    9.0827   53.9869 H   0  0  0  0  0  0  0  0  0  0  0  0
   29.4483    9.0036   55.5327 H   0  0  0  0  0  0  0  0  0  0  0  0
   23.3904    3.6487   53.2315 C   0  0  0  0  0  0  0  0  0  0  0  0
   24.6898    3.2013   52.7562 N   0  0  0  0  0  0  0  0  0  0  0  0
   25.4469    2.1528   53.3458 C   0  0  0  0  0  0  0  0  0  0  0  0
   25.3621    1.6879   54.5109 O   0  0  0  0  0  0  0  0  0  0  0  0
   26.3989    1.6884   52.2813 C   0  0  0  0  0  0  0  0  0  0  0  0
   26.7269    3.0147   51.6116 C   0  0  0  0  0  0  0  0  0  0  0  0
   25.4172    3.7338   51.6289 C   0  0  0  0  0  0  0  0  0  0  0  0
   25.0216    4.6205   50.8310 O   0  0  0  0  0  0  0  0  0  0  0  0
 18 19  1  0  0  0
 19 20  2  0  0  0
 19  1  1  0  0  0
  1  2  2  0  0  0
  2  3  1  0  0  0
  3 11  1  0  0  0
 11 12  2  0  0  0
 12 13  1  0  0  0
 13 14  2  0  0  0
 14 15  1  0  0  0
 14 16  1  0  0  0
 16 17  2  0  0  0
  3  4  2  0  0  0
  4  5  1  0  0  0
  5  6  2  0  0  0
  6  7  1  0  0  0
  7 23  1  0  0  0
 23 24  1  0  0  0
 24 25  1  0  0  0
 25 26  2  0  0  0
 25 27  1  0  0  0
 27 28  1  0  0  0
 28 29  1  0  0  0
 29 30  2  0  0  0
  7  8  2  0  0  0
  8  9  1  0  0  0
  9 10  2  0  0  0
 10  1  1  0  0  0
 17 11  1  0  0  0
  9  4  1  0  0  0
 29 24  1  0  0  0
 18 21  1  0  0  0
 18 22  1  0  0  0
M  END
> <minimizedAffinity>
56.77687

> <CNNscore>
0.2933470309

> <CNNaffinity>
5.4607286453

> <CNN_VS>
1.6018885374

> <CNNaffinity_variance>
0.7120167017

$$$$
[H]c1c([H])c(-c2nc(-c3c([H])c(C([H])([H])[H])nc(C([H])([H])[H])c3[H])c3n2C([H])([H])C([H])([H])OC([H])([H])C3([H])[H])c([H])c(C([H])([H])[H])c1OC(F)(F)F


 30 33  0  0  0  0  0  0  0  0999 V2000
   24.2402    8.7313   55.0186 C   0  0  0  0  0  0  0  0  0  0  0  0
   23.6294    7.6053   54.6517 N   0  0  0  0  0  0  0  0  0  0  0  0
   22.3017    7.8282   54.4864 C   0  0  0  0  0  0  0  0  0  0  0  0
   22.1046    9.1069   54.7536 N   0  0  0  0  0  0  0  0  0  0  0  0
   20.8476    9.7951   54.6683 C   0  0  0  0  0  0  0  0  0  0  0  0
   21.0539   11.2980   54.5050 C   0  0  0  0  0  0  0  0  0  0  0  0
   22.0752   11.5695   53.6319 O   0  0  0  0  0  0  0  0  0  0  0  0
   23.1899   12.0353   54.3157 C   0  0  0  0  0  0  0  0  0  0  0  0
   23.5703   11.0866   55.4575 C   0  0  0  0  0  0  0  0  0  0  0  0
   23.2874    9.6916   55.0873 C   0  0  0  0  0  0  0  0  0  0  0  0
   28.7601    7.4505   53.5148 C   0  0  0  0  0  0  0  0  0  0  0  0
   27.8921    8.1214   54.5077 C   0  0  0  0  0  0  0  0  0  0  0  0
   26.5194    8.1518   54.3494 C   0  0  0  0  0  0  0  0  0  0  0  0
   25.6891    8.7699   55.2598 C   0  0  0  0  0  0  0  0  0  0  0  0
   26.2837    9.3618   56.3439 C   0  0  0  0  0  0  0  0  0  0  0  0
   27.6695    9.3356   56.5107 C   0  0  0  0  0  0  0  0  0  0  0  0
   28.3462    9.9650   57.6695 C   0  0  0  0  0  0  0  0  0  0  0  0
   28.4359    8.7127   55.5823 N   0  0  0  0  0  0  0  0  0  0  0  0
   21.4195    6.7609   54.0552 C   0  0  0  0  0  0  0  0  0  0  0  0
   21.8144    5.4585   53.9076 C   0  0  0  0  0  0  0  0  0  0  0  0
   20.8841    4.4922   53.5492 C   0  0  0  0  0  0  0  0  0  0  0  0
   19.5741    4.8309   53.3403 C   0  0  0  0  0  0  0  0  0  0  0  0
   19.1757    6.1264   53.4849 C   0  0  0  0  0  0  0  0  0  0  0  0
   17.7507    6.5235   53.2761 C   0  0  0  0  0  0  0  0  0  0  0  0
   20.0680    7.1005   53.8375 C   0  0  0  0  0  0  0  0  0  0  0  0
   18.6411    3.8562   52.9807 O   0  0  0  0  0  0  0  0  0  0  0  0
   17.6278    3.5332   53.9055 C   0  0  0  0  0  0  0  0  0  0  0  0
   16.9587    2.4320   53.3612 F   0  0  0  0  0  0  0  0  0  0  0  0
   18.2214    3.1090   55.0757 F   0  0  0  0  0  0  0  0  0  0  0  0
   16.6999    4.5009   54.1138 F   0  0  0  0  0  0  0  0  0  0  0  0
 11 12  1  0  0  0
 12 13  2  0  0  0
 13 14  1  0  0  0
 14 15  2  0  0  0
 15 16  1  0  0  0
 16 17  1  0  0  0
 16 18  2  0  0  0
 14  1  1  0  0  0
  1  2  1  0  0  0
  2  3  2  0  0  0
  3 19  1  0  0  0
 19 20  2  0  0  0
 20 21  1  0  0  0
 21 22  2  0  0  0
 22 26  1  0  0  0
 26 27  1  0  0  0
 27 28  1  0  0  0
 27 29  1  0  0  0
 27 30  1  0  0  0
 22 23  1  0  0  0
 23 24  1  0  0  0
 23 25  2  0  0  0
  3  4  1  0  0  0
  4  5  1  0  0  0
  5  6  1  0  0  0
  6  7  1  0  0  0
  7  8  1  0  0  0
  8  9  1  0  0  0
  9 10  1  0  0  0
 18 12  1  0  0  0
 10  1  2  0  0  0
 25 19  1  0  0  0
 10  4  1  0  0  0
M  END
> <minimizedAffinity>
32.75569

> <CNNscore>
0.5059131980

> <CNNaffinity>
6.1826806068

> <CNN_VS>
3.1278996468

> <CNNaffinity_variance>
0.3009294868

$$$$
[H]c1c([H])c(-c2nc(-c3c([H])c(C([H])([H])[H])nc(C([H])([H])[H])c3[H])c3n2C([H])([H])C([H])([H])OC([H])([H])C3([H])[H])c([H])c(C([H])([H])[H])c1OC(F)(F)F


 30 33  0  0  0  0  0  0  0  0999 V2000
   21.0268    6.2548   53.7597 C   0  0  0  0  0  0  0  0  0  0  0  0
   20.6564    7.5006   53.4658 N   0  0  0  0  0  0  0  0  0  0  0  0
   21.7039    8.3477   53.6244 C   0  0  0  0  0  0  0  0  0  0  0  0
   22.7241    7.6059   54.0170 N   0  0  0  0  0  0  0  0  0  0  0  0
   24.0553    8.0806   54.2691 C   0  0  0  0  0  0  0  0  0  0  0  0
   25.0715    6.9472   54.1667 C   0  0  0  0  0  0  0  0  0  0  0  0
   24.7976    6.1260   53.1039 O   0  0  0  0  0  0  0  0  0  0  0  0
   24.2919    4.9107   53.5448 C   0  0  0  0  0  0  0  0  0  0  0  0
   23.1130    5.1204   54.5012 C   0  0  0  0  0  0  0  0  0  0  0  0
   22.3341    6.3054   54.1105 C   0  0  0  0  0  0  0  0  0  0  0  0
   20.2275    1.5599   52.4753 C   0  0  0  0  0  0  0  0  0  0  0  0
   19.7114    2.8358   53.0184 C   0  0  0  0  0  0  0  0  0  0  0  0
   20.5367    3.9352   53.1619 C   0  0  0  0  0  0  0  0  0  0  0  0
   20.0806    5.1348   53.6649 C   0  0  0  0  0  0  0  0  0  0  0  0
   18.7587    5.1982   54.0226 C   0  0  0  0  0  0  0  0  0  0  0  0
   17.9188    4.0922   53.8809 C   0  0  0  0  0  0  0  0  0  0  0  0
   16.4855    4.1247   54.2574 C   0  0  0  0  0  0  0  0  0  0  0  0
   18.4235    2.9381   53.3803 N   0  0  0  0  0  0  0  0  0  0  0  0
   21.5634    9.7617   53.3342 C   0  0  0  0  0  0  0  0  0  0  0  0
   21.3881   10.7228   54.2931 C   0  0  0  0  0  0  0  0  0  0  0  0
   21.3248   12.0602   53.9255 C   0  0  0  0  0  0  0  0  0  0  0  0
   21.4346   12.4266   52.6110 C   0  0  0  0  0  0  0  0  0  0  0  0
   21.6082   11.4736   51.6519 C   0  0  0  0  0  0  0  0  0  0  0  0
   21.7441   11.8443   50.2111 C   0  0  0  0  0  0  0  0  0  0  0  0
   21.6751   10.1486   51.9825 C   0  0  0  0  0  0  0  0  0  0  0  0
   21.3714   13.7727   52.2451 O   0  0  0  0  0  0  0  0  0  0  0  0
   20.4924   14.1381   51.2057 C   0  0  0  0  0  0  0  0  0  0  0  0
   19.9996   12.9353   50.6892 F   0  0  0  0  0  0  0  0  0  0  0  0
   19.4219   14.8128   51.7540 F   0  0  0  0  0  0  0  0  0  0  0  0
   21.0595   14.8128   50.1741 F   0  0  0  0  0  0  0  0  0  0  0  0
 11 12  1  0  0  0
 12 13  2  0  0  0
 13 14  1  0  0  0
 14 15  2  0  0  0
 15 16  1  0  0  0
 16 17  1  0  0  0
 16 18  2  0  0  0
 14  1  1  0  0  0
  1  2  1  0  0  0
  2  3  2  0  0  0
  3 19  1  0  0  0
 19 20  2  0  0  0
 20 21  1  0  0  0
 21 22  2  0  0  0
 22 26  1  0  0  0
 26 27  1  0  0  0
 27 28  1  0  0  0
 27 29  1  0  0  0
 27 30  1  0  0  0
 22 23  1  0  0  0
 23 24  1  0  0  0
 23 25  2  0  0  0
  3  4  1  0  0  0
  4  5  1  0  0  0
  5  6  1  0  0  0
  6  7  1  0  0  0
  7  8  1  0  0  0
  8  9  1  0  0  0
  9 10  1  0  0  0
 18 12  1  0  0  0
 10  1  2  0  0  0
 25 19  1  0  0  0
 10  4  1  0  0  0
M  END
> <minimizedAffinity>
34.76654

> <CNNscore>
0.5000660419

> <CNNaffinity>
6.3285589218

> <CNN_VS>
3.1646974087

> <CNNaffinity_variance>
0.5981857181

$$$$
[H]c1c([H])c(-c2nc(-c3c([H])c(C([H])([H])[H])nc(C([H])([H])[H])c3[H])c3n2C([H])([H])C([H])([H])OC([H])([H])C3([H])[H])c([H])c(C([H])([H])[H])c1OC(F)(F)F


 30 33  0  0  0  0  0  0  0  0999 V2000
   24.1911    8.5592   54.9134 C   0  0  0  0  0  0  0  0  0  0  0  0
   23.5449    7.4541   54.5433 N   0  0  0  0  0  0  0  0  0  0  0  0
   22.2118    7.6950   54.4745 C   0  0  0  0  0  0  0  0  0  0  0  0
   22.0471    8.9636   54.8044 N   0  0  0  0  0  0  0  0  0  0  0  0
   20.7950    9.6655   54.8291 C   0  0  0  0  0  0  0  0  0  0  0  0
   21.0071   11.1719   54.7121 C   0  0  0  0  0  0  0  0  0  0  0  0
   21.9721   11.4693   53.7852 O   0  0  0  0  0  0  0  0  0  0  0  0
   23.1343   11.8977   54.4120 C   0  0  0  0  0  0  0  0  0  0  0  0
   23.5779   10.9007   55.4880 C   0  0  0  0  0  0  0  0  0  0  0  0
   23.2556    9.5242   55.0824 C   0  0  0  0  0  0  0  0  0  0  0  0
   28.1070    9.9601   57.5657 C   0  0  0  0  0  0  0  0  0  0  0  0
   27.5557    9.2822   56.3717 C   0  0  0  0  0  0  0  0  0  0  0  0
   26.1916    9.2013   56.1640 C   0  0  0  0  0  0  0  0  0  0  0  0
   25.6529    8.5756   55.0601 C   0  0  0  0  0  0  0  0  0  0  0  0
   26.5330    8.0287   54.1626 C   0  0  0  0  0  0  0  0  0  0  0  0
   27.9120    8.1060   54.3653 C   0  0  0  0  0  0  0  0  0  0  0  0
   28.8922    7.5260   53.4166 C   0  0  0  0  0  0  0  0  0  0  0  0
   28.3842    8.7339   55.4699 N   0  0  0  0  0  0  0  0  0  0  0  0
   21.2915    6.6535   54.0605 C   0  0  0  0  0  0  0  0  0  0  0  0
   21.6445    5.3393   53.9118 C   0  0  0  0  0  0  0  0  0  0  0  0
   20.6801    4.4004   53.5709 C   0  0  0  0  0  0  0  0  0  0  0  0
   19.3780    4.7780   53.3803 C   0  0  0  0  0  0  0  0  0  0  0  0
   19.0211    6.0855   53.5260 C   0  0  0  0  0  0  0  0  0  0  0  0
   17.6058    6.5248   53.3371 C   0  0  0  0  0  0  0  0  0  0  0  0
   19.9477    7.0332   53.8617 C   0  0  0  0  0  0  0  0  0  0  0  0
   18.4106    3.8309   53.0383 O   0  0  0  0  0  0  0  0  0  0  0  0
   17.3552    3.6023   53.9438 C   0  0  0  0  0  0  0  0  0  0  0  0
   16.6499    2.5084   53.4314 F   0  0  0  0  0  0  0  0  0  0  0  0
   17.8916    3.2090   55.1519 F   0  0  0  0  0  0  0  0  0  0  0  0
   16.4697    4.6219   54.0750 F   0  0  0  0  0  0  0  0  0  0  0  0
 11 12  1  0  0  0
 12 13  2  0  0  0
 13 14  1  0  0  0
 14 15  2  0  0  0
 15 16  1  0  0  0
 16 17  1  0  0  0
 16 18  2  0  0  0
 14  1  1  0  0  0
  1  2  1  0  0  0
  2  3  2  0  0  0
  3 19  1  0  0  0
 19 20  2  0  0  0
 20 21  1  0  0  0
 21 22  2  0  0  0
 22 26  1  0  0  0
 26 27  1  0  0  0
 27 28  1  0  0  0
 27 29  1  0  0  0
 27 30  1  0  0  0
 22 23  1  0  0  0
 23 24  1  0  0  0
 23 25  2  0  0  0
  3  4  1  0  0  0
  4  5  1  0  0  0
  5  6  1  0  0  0
  6  7  1  0  0  0
  7  8  1  0  0  0
  8  9  1  0  0  0
  9 10  1  0  0  0
 18 12  1  0  0  0
 10  1  2  0  0  0
 25 19  1  0  0  0
 10  4  1  0  0  0
M  END
> <minimizedAffinity>
31.71071

> <CNNscore>
0.4996839464

> <CNNaffinity>
6.1634120941

> <CNN_VS>
3.0797581673

> <CNNaffinity_variance>
0.2585411072

$$$$
[H]c1c([H])c(-c2nc(-c3c([H])c(C([H])([H])[H])nc(C([H])([H])[H])c3[H])c3n2C([H])([H])C([H])([H])OC([H])([H])C3([H])[H])c([H])c(C([H])([H])[H])c1OC(F)(F)F


 30 33  0  0  0  0  0  0  0  0999 V2000
   21.1420    6.3867   53.1623 C   0  0  0  0  0  0  0  0  0  0  0  0
   22.1939    6.5878   53.9552 N   0  0  0  0  0  0  0  0  0  0  0  0
   22.8464    7.7181   53.5857 C   0  0  0  0  0  0  0  0  0  0  0  0
   22.1800    8.2110   52.5569 N   0  0  0  0  0  0  0  0  0  0  0  0
   22.4922    9.4291   51.8643 C   0  0  0  0  0  0  0  0  0  0  0  0
   21.2700    9.9725   51.1302 C   0  0  0  0  0  0  0  0  0  0  0  0
   20.1374    9.8575   51.8937 O   0  0  0  0  0  0  0  0  0  0  0  0
   19.3171    8.8522   51.4002 C   0  0  0  0  0  0  0  0  0  0  0  0
   20.0960    7.5441   51.2246 C   0  0  0  0  0  0  0  0  0  0  0  0
   21.1199    7.4068   52.2715 C   0  0  0  0  0  0  0  0  0  0  0  0
   20.5024    1.5105   52.7815 C   0  0  0  0  0  0  0  0  0  0  0  0
   19.9631    2.8400   53.1434 C   0  0  0  0  0  0  0  0  0  0  0  0
   20.7344    3.9801   53.0191 C   0  0  0  0  0  0  0  0  0  0  0  0
   20.2556    5.2299   53.3492 C   0  0  0  0  0  0  0  0  0  0  0  0
   18.9671    5.3013   53.8118 C   0  0  0  0  0  0  0  0  0  0  0  0
   18.1818    4.1544   53.9404 C   0  0  0  0  0  0  0  0  0  0  0  0
   16.7858    4.1941   54.4371 C   0  0  0  0  0  0  0  0  0  0  0  0
   18.7065    2.9518   53.6003 N   0  0  0  0  0  0  0  0  0  0  0  0
   24.0127    8.1730   54.3178 C   0  0  0  0  0  0  0  0  0  0  0  0
   23.9547    9.0066   55.4021 C   0  0  0  0  0  0  0  0  0  0  0  0
   25.1204    9.3401   56.0787 C   0  0  0  0  0  0  0  0  0  0  0  0
   26.3288    8.8434   55.6698 C   0  0  0  0  0  0  0  0  0  0  0  0
   26.3925    8.0138   54.5900 C   0  0  0  0  0  0  0  0  0  0  0  0
   27.6950    7.4462   54.1286 C   0  0  0  0  0  0  0  0  0  0  0  0
   25.2622    7.6666   53.9035 C   0  0  0  0  0  0  0  0  0  0  0  0
   27.4989    9.1803   56.3532 O   0  0  0  0  0  0  0  0  0  0  0  0
   28.6344    9.5291   55.5947 C   0  0  0  0  0  0  0  0  0  0  0  0
   29.1725   10.6586   56.2202 F   0  0  0  0  0  0  0  0  0  0  0  0
   29.5661    8.5190   55.7106 F   0  0  0  0  0  0  0  0  0  0  0  0
   28.3906    9.8664   54.3033 F   0  0  0  0  0  0  0  0  0  0  0  0
 11 12  1  0  0  0
 12 13  2  0  0  0
 13 14  1  0  0  0
 14 15  2  0  0  0
 15 16  1  0  0  0
 16 17  1  0  0  0
 16 18  2  0  0  0
 14  1  1  0  0  0
  1  2  1  0  0  0
  2  3  2  0  0  0
  3 19  1  0  0  0
 19 20  2  0  0  0
 20 21  1  0  0  0
 21 22  2  0  0  0
 22 26  1  0  0  0
 26 27  1  0  0  0
 27 28  1  0  0  0
 27 29  1  0  0  0
 27 30  1  0  0  0
 22 23  1  0  0  0
 23 24  1  0  0  0
 23 25  2  0  0  0
  3  4  1  0  0  0
  4  5  1  0  0  0
  5  6  1  0  0  0
  6  7  1  0  0  0
  7  8  1  0  0  0
  8  9  1  0  0  0
  9 10  1  0  0  0
 18 12  1  0  0  0
 10  1  2  0  0  0
 25 19  1  0  0  0
 10  4  1  0  0  0
M  END
> <minimizedAffinity>
33.01958

> <CNNscore>
0.4629339576

> <CNNaffinity>
6.4194192886

> <CNN_VS>
2.9717671871

> <CNNaffinity_variance>
0.6258709431

$$$$
[H]c1c([H])c(-c2nc(-c3c([H])c(C([H])([H])[H])nc(C([H])([H])[H])c3[H])c3n2C([H])([H])C([H])([H])OC([H])([H])C3([H])[H])c([H])c(C([H])([H])[H])c1OC(F)(F)F


 30 33  0  0  0  0  0  0  0  0999 V2000
   21.5303    6.5123   53.2422 C   0  0  0  0  0  0  0  0  0  0  0  0
   22.6037    6.6780   54.0142 N   0  0  0  0  0  0  0  0  0  0  0  0
   23.2403    7.8299   53.6857 C   0  0  0  0  0  0  0  0  0  0  0  0
   22.5425    8.3718   52.7035 N   0  0  0  0  0  0  0  0  0  0  0  0
   22.8293    9.6261   52.0668 C   0  0  0  0  0  0  0  0  0  0  0  0
   21.5841   10.1998   51.3973 C   0  0  0  0  0  0  0  0  0  0  0  0
   20.4745   10.0386   52.1857 O   0  0  0  0  0  0  0  0  0  0  0  0
   19.6447    9.0555   51.6640 C   0  0  0  0  0  0  0  0  0  0  0  0
   20.4239    7.7630   51.3981 C   0  0  0  0  0  0  0  0  0  0  0  0
   21.4781    7.5773   52.4069 C   0  0  0  0  0  0  0  0  0  0  0  0
   20.9572    1.6358   52.7706 C   0  0  0  0  0  0  0  0  0  0  0  0
   20.3951    2.9527   53.1436 C   0  0  0  0  0  0  0  0  0  0  0  0
   21.1547    4.1038   53.0524 C   0  0  0  0  0  0  0  0  0  0  0  0
   20.6547    5.3422   53.3936 C   0  0  0  0  0  0  0  0  0  0  0  0
   19.3571    5.3908   53.8330 C   0  0  0  0  0  0  0  0  0  0  0  0
   18.5835    4.2327   53.9281 C   0  0  0  0  0  0  0  0  0  0  0  0
   17.1781    4.2477   54.3991 C   0  0  0  0  0  0  0  0  0  0  0  0
   19.1290    3.0421   53.5786 N   0  0  0  0  0  0  0  0  0  0  0  0
   24.4252    8.2529   54.4071 C   0  0  0  0  0  0  0  0  0  0  0  0
   24.3925    8.9679   55.5740 C   0  0  0  0  0  0  0  0  0  0  0  0
   25.5781    9.2759   56.2275 C   0  0  0  0  0  0  0  0  0  0  0  0
   26.7812    8.8718   55.7140 C   0  0  0  0  0  0  0  0  0  0  0  0
   26.8196    8.1604   54.5518 C   0  0  0  0  0  0  0  0  0  0  0  0
   28.1164    7.6950   53.9744 C   0  0  0  0  0  0  0  0  0  0  0  0
   25.6693    7.8412   53.8854 C   0  0  0  0  0  0  0  0  0  0  0  0
   27.9715    9.1826   56.3745 O   0  0  0  0  0  0  0  0  0  0  0  0
   27.9363    9.3238   57.7763 C   0  0  0  0  0  0  0  0  0  0  0  0
   28.9584    8.5023   58.2631 F   0  0  0  0  0  0  0  0  0  0  0  0
   28.2737   10.6225   58.0946 F   0  0  0  0  0  0  0  0  0  0  0  0
   26.7850    8.9242   58.3728 F   0  0  0  0  0  0  0  0  0  0  0  0
 11 12  1  0  0  0
 12 13  2  0  0  0
 13 14  1  0  0  0
 14 15  2  0  0  0
 15 16  1  0  0  0
 16 17  1  0  0  0
 16 18  2  0  0  0
 14  1  1  0  0  0
  1  2  1  0  0  0
  2  3  2  0  0  0
  3 19  1  0  0  0
 19 20  2  0  0  0
 20 21  1  0  0  0
 21 22  2  0  0  0
 22 26  1  0  0  0
 26 27  1  0  0  0
 27 28  1  0  0  0
 27 29  1  0  0  0
 27 30  1  0  0  0
 22 23  1  0  0  0
 23 24  1  0  0  0
 23 25  2  0  0  0
  3  4  1  0  0  0
  4  5  1  0  0  0
  5  6  1  0  0  0
  6  7  1  0  0  0
  7  8  1  0  0  0
  8  9  1  0  0  0
  9 10  1  0  0  0
 18 12  1  0  0  0
 10  1  2  0  0  0
 25 19  1  0  0  0
 10  4  1  0  0  0
M  END
> <minimizedAffinity>
28.31150

> <CNNscore>
0.4497584105

> <CNNaffinity>
6.3311371803

> <CNN_VS>
2.8474822044

> <CNNaffinity_variance>
0.5734463930

$$$$
[H]c1c([H])c(-c2nc(-c3c([H])c(C([H])([H])[H])nc(C([H])([H])[H])c3[H])c3n2C([H])([H])C([H])([H])OC([H])([H])C3([H])[H])c([H])c(C([H])([H])[H])c1OC(F)(F)F


 30 33  0  0  0  0  0  0  0  0999 V2000
   21.6898    6.4361   53.2103 C   0  0  0  0  0  0  0  0  0  0  0  0
   22.7652    6.6110   53.9776 N   0  0  0  0  0  0  0  0  0  0  0  0
   23.3444    7.8063   53.7023 C   0  0  0  0  0  0  0  0  0  0  0  0
   22.6093    8.3653   52.7576 N   0  0  0  0  0  0  0  0  0  0  0  0
   22.8302    9.6626   52.1839 C   0  0  0  0  0  0  0  0  0  0  0  0
   21.5513   10.2123   51.5593 C   0  0  0  0  0  0  0  0  0  0  0  0
   20.4610    9.9599   52.3509 O   0  0  0  0  0  0  0  0  0  0  0  0
   19.6695    8.9679   51.7882 C   0  0  0  0  0  0  0  0  0  0  0  0
   20.5027    7.7279   51.4466 C   0  0  0  0  0  0  0  0  0  0  0  0
   21.5779    7.5392   52.4322 C   0  0  0  0  0  0  0  0  0  0  0  0
   17.3324    4.4184   54.3385 C   0  0  0  0  0  0  0  0  0  0  0  0
   18.7294    4.2548   53.8793 C   0  0  0  0  0  0  0  0  0  0  0  0
   19.5652    5.3464   53.7364 C   0  0  0  0  0  0  0  0  0  0  0  0
   20.8703    5.2208   53.3106 C   0  0  0  0  0  0  0  0  0  0  0  0
   21.3152    3.9548   53.0303 C   0  0  0  0  0  0  0  0  0  0  0  0
   20.4771    2.8474   53.1720 C   0  0  0  0  0  0  0  0  0  0  0  0
   20.9241    1.4650   52.8778 C   0  0  0  0  0  0  0  0  0  0  0  0
   19.2026    3.0320   53.5946 N   0  0  0  0  0  0  0  0  0  0  0  0
   24.5187    8.2455   54.4311 C   0  0  0  0  0  0  0  0  0  0  0  0
   24.4689    8.9718   55.5904 C   0  0  0  0  0  0  0  0  0  0  0  0
   25.6456    9.2954   56.2526 C   0  0  0  0  0  0  0  0  0  0  0  0
   26.8567    8.8955   55.7551 C   0  0  0  0  0  0  0  0  0  0  0  0
   26.9122    8.1730   54.6005 C   0  0  0  0  0  0  0  0  0  0  0  0
   28.2183    7.7119   54.0407 C   0  0  0  0  0  0  0  0  0  0  0  0
   25.7711    7.8383   53.9259 C   0  0  0  0  0  0  0  0  0  0  0  0
   28.0380    9.2221   56.4242 O   0  0  0  0  0  0  0  0  0  0  0  0
   27.9966    9.3361   57.8283 C   0  0  0  0  0  0  0  0  0  0  0  0
   29.0051    8.4919   58.3045 F   0  0  0  0  0  0  0  0  0  0  0  0
   28.3490   10.6238   58.1741 F   0  0  0  0  0  0  0  0  0  0  0  0
   26.8368    8.9400   58.4105 F   0  0  0  0  0  0  0  0  0  0  0  0
 11 12  1  0  0  0
 12 13  2  0  0  0
 13 14  1  0  0  0
 14 15  2  0  0  0
 15 16  1  0  0  0
 16 17  1  0  0  0
 16 18  2  0  0  0
 14  1  1  0  0  0
  1  2  1  0  0  0
  2  3  2  0  0  0
  3 19  1  0  0  0
 19 20  2  0  0  0
 20 21  1  0  0  0
 21 22  2  0  0  0
 22 26  1  0  0  0
 26 27  1  0  0  0
 27 28  1  0  0  0
 27 29  1  0  0  0
 27 30  1  0  0  0
 22 23  1  0  0  0
 23 24  1  0  0  0
 23 25  2  0  0  0
  3  4  1  0  0  0
  4  5  1  0  0  0
  5  6  1  0  0  0
  6  7  1  0  0  0
  7  8  1  0  0  0
  8  9  1  0  0  0
  9 10  1  0  0  0
 18 12  1  0  0  0
 10  1  2  0  0  0
 25 19  1  0  0  0
 10  4  1  0  0  0
M  END
> <minimizedAffinity>
28.36623

> <CNNscore>
0.4491868615

> <CNNaffinity>
6.3083467484

> <CNN_VS>
2.8336265087

> <CNNaffinity_variance>
0.5433322787

$$$$
[H]c1c([H])c(-c2nc(-c3c([H])c(C([H])([H])[H])nc(C([H])([H])[H])c3[H])c3n2C([H])([H])C([H])([H])OC([H])([H])C3([H])[H])c([H])c(C([H])([H])[H])c1OC(F)(F)F


 30 33  0  0  0  0  0  0  0  0999 V2000
   27.2912    8.9902   51.8540 C   0  0  0  0  0  0  0  0  0  0  0  0
   26.0201    8.5944   51.9120 N   0  0  0  0  0  0  0  0  0  0  0  0
   25.7024    8.2325   53.1801 C   0  0  0  0  0  0  0  0  0  0  0  0
   26.7941    8.4138   53.9016 N   0  0  0  0  0  0  0  0  0  0  0  0
   26.9080    8.1942   55.3158 C   0  0  0  0  0  0  0  0  0  0  0  0
   28.0710    8.9880   55.9032 C   0  0  0  0  0  0  0  0  0  0  0  0
   28.1331   10.2498   55.3711 O   0  0  0  0  0  0  0  0  0  0  0  0
   29.2054   10.3573   54.4961 C   0  0  0  0  0  0  0  0  0  0  0  0
   29.1799    9.2332   53.4548 C   0  0  0  0  0  0  0  0  0  0  0  0
   27.7948    8.8816   53.1067 C   0  0  0  0  0  0  0  0  0  0  0  0
   29.3963    7.7797   47.5605 C   0  0  0  0  0  0  0  0  0  0  0  0
   28.9311    8.8242   48.4995 C   0  0  0  0  0  0  0  0  0  0  0  0
   28.3345    8.4888   49.7003 C   0  0  0  0  0  0  0  0  0  0  0  0
   27.8928    9.4426   50.5922 C   0  0  0  0  0  0  0  0  0  0  0  0
   28.0697   10.7553   50.2391 C   0  0  0  0  0  0  0  0  0  0  0  0
   28.6711   11.1022   49.0280 C   0  0  0  0  0  0  0  0  0  0  0  0
   28.8781   12.5103   48.6137 C   0  0  0  0  0  0  0  0  0  0  0  0
   29.0858   10.1206   48.1902 N   0  0  0  0  0  0  0  0  0  0  0  0
   24.3606    7.7926   53.5105 C   0  0  0  0  0  0  0  0  0  0  0  0
   24.0332    6.4951   53.7992 C   0  0  0  0  0  0  0  0  0  0  0  0
   22.7322    6.1771   54.1652 C   0  0  0  0  0  0  0  0  0  0  0  0
   21.7723    7.1505   54.2386 C   0  0  0  0  0  0  0  0  0  0  0  0
   22.0925    8.4440   53.9512 C   0  0  0  0  0  0  0  0  0  0  0  0
   21.0693    9.5293   54.0352 C   0  0  0  0  0  0  0  0  0  0  0  0
   23.3649    8.7885   53.5884 C   0  0  0  0  0  0  0  0  0  0  0  0
   20.4650    6.8272   54.6079 O   0  0  0  0  0  0  0  0  0  0  0  0
   19.5733    6.4109   53.5991 C   0  0  0  0  0  0  0  0  0  0  0  0
   20.0917    6.9211   52.4044 F   0  0  0  0  0  0  0  0  0  0  0  0
   19.6246    5.0358   53.5088 F   0  0  0  0  0  0  0  0  0  0  0  0
   18.3045    6.8777   53.7149 F   0  0  0  0  0  0  0  0  0  0  0  0
 11 12  1  0  0  0
 12 13  2  0  0  0
 13 14  1  0  0  0
 14 15  2  0  0  0
 15 16  1  0  0  0
 16 17  1  0  0  0
 16 18  2  0  0  0
 14  1  1  0  0  0
  1  2  1  0  0  0
  2  3  2  0  0  0
  3 19  1  0  0  0
 19 20  2  0  0  0
 20 21  1  0  0  0
 21 22  2  0  0  0
 22 26  1  0  0  0
 26 27  1  0  0  0
 27 28  1  0  0  0
 27 29  1  0  0  0
 27 30  1  0  0  0
 22 23  1  0  0  0
 23 24  1  0  0  0
 23 25  2  0  0  0
  3  4  1  0  0  0
  4  5  1  0  0  0
  5  6  1  0  0  0
  6  7  1  0  0  0
  7  8  1  0  0  0
  8  9  1  0  0  0
  9 10  1  0  0  0
 18 12  1  0  0  0
 10  1  2  0  0  0
 25 19  1  0  0  0
 10  4  1  0  0  0
M  END
> <minimizedAffinity>
29.97721

> <CNNscore>
0.4299337566

> <CNNaffinity>
5.6467952728

> <CNN_VS>
2.4277479649

> <CNNaffinity_variance>
0.0215099193

$$$$
[H]c1c([H])c(-c2nc(-c3c([H])c(C([H])([H])[H])nc(C([H])([H])[H])c3[H])c3n2C([H])([H])C([H])([H])OC([H])([H])C3([H])[H])c([H])c(C([H])([H])[H])c1OC(F)(F)F


 30 33  0  0  0  0  0  0  0  0999 V2000
   27.2794    8.8752   51.8509 C   0  0  0  0  0  0  0  0  0  0  0  0
   25.9933    8.5304   51.9047 N   0  0  0  0  0  0  0  0  0  0  0  0
   25.6441    8.2323   53.1811 C   0  0  0  0  0  0  0  0  0  0  0  0
   26.7317    8.4010   53.9118 N   0  0  0  0  0  0  0  0  0  0  0  0
   26.8171    8.2345   55.3352 C   0  0  0  0  0  0  0  0  0  0  0  0
   28.0014    9.0068   55.9087 C   0  0  0  0  0  0  0  0  0  0  0  0
   28.1195   10.2428   55.3279 O   0  0  0  0  0  0  0  0  0  0  0  0
   29.2073   10.2743   54.4661 C   0  0  0  0  0  0  0  0  0  0  0  0
   29.1533    9.1109   53.4701 C   0  0  0  0  0  0  0  0  0  0  0  0
   27.7607    8.7982   53.1147 C   0  0  0  0  0  0  0  0  0  0  0  0
   28.6668   12.4826   48.7862 C   0  0  0  0  0  0  0  0  0  0  0  0
   28.5764   11.0378   49.0923 C   0  0  0  0  0  0  0  0  0  0  0  0
   28.0119   10.5932   50.2730 C   0  0  0  0  0  0  0  0  0  0  0  0
   27.9157    9.2532   50.5817 C   0  0  0  0  0  0  0  0  0  0  0  0
   28.4074    8.3648   49.6607 C   0  0  0  0  0  0  0  0  0  0  0  0
   28.9791    8.8059   48.4661 C   0  0  0  0  0  0  0  0  0  0  0  0
   29.5209    7.8743   47.4483 C   0  0  0  0  0  0  0  0  0  0  0  0
   29.0467   10.1365   48.2167 N   0  0  0  0  0  0  0  0  0  0  0  0
   24.2818    7.8572   53.5078 C   0  0  0  0  0  0  0  0  0  0  0  0
   23.8955    6.5802   53.8143 C   0  0  0  0  0  0  0  0  0  0  0  0
   22.5791    6.3257   54.1749 C   0  0  0  0  0  0  0  0  0  0  0  0
   21.6625    7.3414   54.2253 C   0  0  0  0  0  0  0  0  0  0  0  0
   22.0415    8.6147   53.9201 C   0  0  0  0  0  0  0  0  0  0  0  0
   21.0666    9.7451   53.9788 C   0  0  0  0  0  0  0  0  0  0  0  0
   23.3305    8.8971   53.5619 C   0  0  0  0  0  0  0  0  0  0  0  0
   20.3397    7.0818   54.5892 O   0  0  0  0  0  0  0  0  0  0  0  0
   19.4665    6.5772   53.6048 C   0  0  0  0  0  0  0  0  0  0  0  0
   19.9045    7.1270   52.3955 F   0  0  0  0  0  0  0  0  0  0  0  0
   19.6454    5.2125   53.5181 F   0  0  0  0  0  0  0  0  0  0  0  0
   18.1625    6.9227   53.7510 F   0  0  0  0  0  0  0  0  0  0  0  0
 11 12  1  0  0  0
 12 13  2  0  0  0
 13 14  1  0  0  0
 14 15  2  0  0  0
 15 16  1  0  0  0
 16 17  1  0  0  0
 16 18  2  0  0  0
 14  1  1  0  0  0
  1  2  1  0  0  0
  2  3  2  0  0  0
  3 19  1  0  0  0
 19 20  2  0  0  0
 20 21  1  0  0  0
 21 22  2  0  0  0
 22 26  1  0  0  0
 26 27  1  0  0  0
 27 28  1  0  0  0
 27 29  1  0  0  0
 27 30  1  0  0  0
 22 23  1  0  0  0
 23 24  1  0  0  0
 23 25  2  0  0  0
  3  4  1  0  0  0
  4  5  1  0  0  0
  5  6  1  0  0  0
  6  7  1  0  0  0
  7  8  1  0  0  0
  8  9  1  0  0  0
  9 10  1  0  0  0
 18 12  1  0  0  0
 10  1  2  0  0  0
 25 19  1  0  0  0
 10  4  1  0  0  0
M  END
> <minimizedAffinity>
30.56833

> <CNNscore>
0.4277575314

> <CNNaffinity>
5.6251049042

> <CNN_VS>
2.4061810970

> <CNNaffinity_variance>
0.0291197449

$$$$
[H]c1c([H])c(-c2nc(-c3c([H])c(C([H])([H])[H])nc(C([H])([H])[H])c3[H])c3n2C([H])([H])C([H])([H])OC([H])([H])C3([H])[H])c([H])c(C([H])([H])[H])c1OC(F)(F)F


 30 33  0  0  0  0  0  0  0  0999 V2000
   21.1502    6.0530   53.0594 C   0  0  0  0  0  0  0  0  0  0  0  0
   22.2855    6.1733   53.7466 N   0  0  0  0  0  0  0  0  0  0  0  0
   22.9139    7.3272   53.4093 C   0  0  0  0  0  0  0  0  0  0  0  0
   22.1486    7.9161   52.5078 N   0  0  0  0  0  0  0  0  0  0  0  0
   22.4052    9.1892   51.8960 C   0  0  0  0  0  0  0  0  0  0  0  0
   21.1204    9.8063   51.3518 C   0  0  0  0  0  0  0  0  0  0  0  0
   20.0756    9.6320   52.2219 O   0  0  0  0  0  0  0  0  0  0  0  0
   19.1888    8.6818   51.7344 C   0  0  0  0  0  0  0  0  0  0  0  0
   19.9205    7.3887   51.3587 C   0  0  0  0  0  0  0  0  0  0  0  0
   21.0495    7.1494   52.2705 C   0  0  0  0  0  0  0  0  0  0  0  0
   16.7435    4.3294   54.4529 C   0  0  0  0  0  0  0  0  0  0  0  0
   18.1060    4.0701   53.9373 C   0  0  0  0  0  0  0  0  0  0  0  0
   18.9945    5.1061   53.7186 C   0  0  0  0  0  0  0  0  0  0  0  0
   20.2689    4.8911   53.2391 C   0  0  0  0  0  0  0  0  0  0  0  0
   20.6279    3.5930   52.9838 C   0  0  0  0  0  0  0  0  0  0  0  0
   19.7363    2.5413   53.2019 C   0  0  0  0  0  0  0  0  0  0  0  0
   20.0901    1.1265   52.9368 C   0  0  0  0  0  0  0  0  0  0  0  0
   18.4954    2.8133   53.6747 N   0  0  0  0  0  0  0  0  0  0  0  0
   24.1609    7.7048   54.0464 C   0  0  0  0  0  0  0  0  0  0  0  0
   25.3802    7.1867   53.7020 C   0  0  0  0  0  0  0  0  0  0  0  0
   26.5292    7.6541   54.3259 C   0  0  0  0  0  0  0  0  0  0  0  0
   26.4534    8.6285   55.2845 C   0  0  0  0  0  0  0  0  0  0  0  0
   25.2416    9.1473   55.6320 C   0  0  0  0  0  0  0  0  0  0  0  0
   25.1291   10.2204   56.6653 C   0  0  0  0  0  0  0  0  0  0  0  0
   24.0924    8.7081   55.0354 C   0  0  0  0  0  0  0  0  0  0  0  0
   27.6111    9.0968   55.9091 O   0  0  0  0  0  0  0  0  0  0  0  0
   28.7408    9.3551   55.1071 C   0  0  0  0  0  0  0  0  0  0  0  0
   29.5664    8.2348   55.2476 F   0  0  0  0  0  0  0  0  0  0  0  0
   28.3406    9.4010   53.7881 F   0  0  0  0  0  0  0  0  0  0  0  0
   29.4741   10.4387   55.4663 F   0  0  0  0  0  0  0  0  0  0  0  0
 11 12  1  0  0  0
 12 13  2  0  0  0
 13 14  1  0  0  0
 14 15  2  0  0  0
 15 16  1  0  0  0
 16 17  1  0  0  0
 16 18  2  0  0  0
 14  1  1  0  0  0
  1  2  1  0  0  0
  2  3  2  0  0  0
  3 19  1  0  0  0
 19 20  2  0  0  0
 20 21  1  0  0  0
 21 22  2  0  0  0
 22 26  1  0  0  0
 26 27  1  0  0  0
 27 28  1  0  0  0
 27 29  1  0  0  0
 27 30  1  0  0  0
 22 23  1  0  0  0
 23 24  1  0  0  0
 23 25  2  0  0  0
  3  4  1  0  0  0
  4  5  1  0  0  0
  5  6  1  0  0  0
  6  7  1  0  0  0
  7  8  1  0  0  0
  8  9  1  0  0  0
  9 10  1  0  0  0
 18 12  1  0  0  0
 10  1  2  0  0  0
 25 19  1  0  0  0
 10  4  1  0  0  0
M  END
> <minimizedAffinity>
36.28467

> <CNNscore>
0.4109978676

> <CNNaffinity>
6.2427043915

> <CNN_VS>
2.5657382011

> <CNNaffinity_variance>
0.5082521439

$$$$
[H]c1nc(C([H])([H])[H])c([H])c(-c2nc(-c3c([H])c([H])c(OC(F)(F)F)c(F)c3[H])n3c2C([H])([H])C([H])([H])O[C@]([H])(C([H])([H])[H])C3([H])[H])c1[H]


 30 33  0  0  0  0  0  0  0  0999 V2000
   20.1048    5.4320   53.6809 C   0  0  0  0  0  0  0  0  0  0  0  0
   20.8096    6.7274   53.9744 C   0  0  0  0  0  0  0  0  0  0  0  0
   21.5646    7.2463   52.7194 C   0  0  0  0  0  0  0  0  0  0  0  0
   22.6587    8.0940   53.0950 N   0  0  0  0  0  0  0  0  0  0  0  0
   23.6585    7.6478   53.9326 C   0  0  0  0  0  0  0  0  0  0  0  0
   23.8830    6.2768   54.4723 C   0  0  0  0  0  0  0  0  0  0  0  0
   22.5657    5.5611   54.6815 C   0  0  0  0  0  0  0  0  0  0  0  0
   21.6522    6.5667   55.0471 O   0  0  0  0  0  0  0  0  0  0  0  0
   24.4978    8.7108   54.1625 C   0  0  0  0  0  0  0  0  0  0  0  0
   23.9964    9.7261   53.4766 N   0  0  0  0  0  0  0  0  0  0  0  0
   22.8531    9.3758   52.7990 C   0  0  0  0  0  0  0  0  0  0  0  0
   22.0899   10.3273   52.0120 C   0  0  0  0  0  0  0  0  0  0  0  0
   21.1196    9.8548   51.1163 C   0  0  0  0  0  0  0  0  0  0  0  0
   20.3350   10.7151   50.4140 C   0  0  0  0  0  0  0  0  0  0  0  0
   20.4599   12.0750   50.5528 C   0  0  0  0  0  0  0  0  0  0  0  0
   21.3861   12.5696   51.4104 C   0  0  0  0  0  0  0  0  0  0  0  0
   21.5142   13.9087   51.5510 F   0  0  0  0  0  0  0  0  0  0  0  0
   22.1975   11.6711   52.1375 C   0  0  0  0  0  0  0  0  0  0  0  0
   19.6352   12.9216   49.8121 O   0  0  0  0  0  0  0  0  0  0  0  0
   19.6221   12.8819   48.3966 C   0  0  0  0  0  0  0  0  0  0  0  0
   20.7970   12.3066   47.9479 F   0  0  0  0  0  0  0  0  0  0  0  0
   18.5309   12.1586   48.0170 F   0  0  0  0  0  0  0  0  0  0  0  0
   19.5610   14.1693   47.8696 F   0  0  0  0  0  0  0  0  0  0  0  0
   25.7319    8.7604   54.9734 C   0  0  0  0  0  0  0  0  0  0  0  0
   25.7702    9.1876   56.2763 C   0  0  0  0  0  0  0  0  0  0  0  0
   26.9517    9.1927   56.9996 C   0  0  0  0  0  0  0  0  0  0  0  0
   28.0803    8.7721   56.4126 N   0  0  0  0  0  0  0  0  0  0  0  0
   28.0795    8.3475   55.1380 C   0  0  0  0  0  0  0  0  0  0  0  0
   29.3785    7.8835   54.5263 C   0  0  0  0  0  0  0  0  0  0  0  0
   26.9367    8.3330   54.4107 C   0  0  0  0  0  0  0  0  0  0  0  0
  1  2  1  0  0  0
  2  3  1  0  0  0
  3  4  1  0  0  0
  4  5  1  0  0  0
  5  6  1  0  0  0
  6  7  1  0  0  0
  7  8  1  0  0  0
  5  9  2  0  0  0
  9 10  1  0  0  0
 10 11  2  0  0  0
 11 12  1  0  0  0
 12 13  2  0  0  0
 13 14  1  0  0  0
 14 15  2  0  0  0
 15 19  1  0  0  0
 19 20  1  0  0  0
 20 21  1  0  0  0
 20 22  1  0  0  0
 20 23  1  0  0  0
 15 16  1  0  0  0
 16 17  1  0  0  0
 16 18  2  0  0  0
  9 24  1  0  0  0
 24 25  2  0  0  0
 25 26  1  0  0  0
 26 27  2  0  0  0
 27 28  1  0  0  0
 28 29  1  0  0  0
 28 30  2  0  0  0
  8  2  1  0  0  0
 18 12  1  0  0  0
 30 24  1  0  0  0
 11  4  1  0  0  0
M  END
> <minimizedAffinity>
46.73757

> <CNNscore>
0.4877922535

> <CNNaffinity>
5.9163079262

> <CNN_VS>
2.8859291077

> <CNNaffinity_variance>
0.5088244677

$$$$
[H]c1nc(C([H])([H])[H])c([H])c(-c2nc(-c3c([H])c([H])c(OC(F)(F)F)c(F)c3[H])n3c2C([H])([H])C([H])([H])O[C@]([H])(C([H])([H])[H])C3([H])[H])c1[H]


 30 33  0  0  0  0  0  0  0  0999 V2000
   21.4431   11.6656   51.5850 C   0  0  0  0  0  0  0  0  0  0  0  0
   21.6310   10.5764   52.6045 C   0  0  0  0  0  0  0  0  0  0  0  0
   22.8461    9.6786   52.2411 C   0  0  0  0  0  0  0  0  0  0  0  0
   22.7039    8.3705   52.8114 N   0  0  0  0  0  0  0  0  0  0  0  0
   21.6059    7.5831   52.5381 C   0  0  0  0  0  0  0  0  0  0  0  0
   20.4960    7.8292   51.5743 C   0  0  0  0  0  0  0  0  0  0  0  0
   20.2135    9.3111   51.4496 C   0  0  0  0  0  0  0  0  0  0  0  0
   20.4741    9.8460   52.7246 O   0  0  0  0  0  0  0  0  0  0  0  0
   21.7276    6.4429   53.2946 C   0  0  0  0  0  0  0  0  0  0  0  0
   22.8574    6.5738   53.9721 N   0  0  0  0  0  0  0  0  0  0  0  0
   23.4911    7.7610   53.6930 C   0  0  0  0  0  0  0  0  0  0  0  0
   24.7253    8.1590   54.3454 C   0  0  0  0  0  0  0  0  0  0  0  0
   24.6692    9.0079   55.4604 C   0  0  0  0  0  0  0  0  0  0  0  0
   25.7960    9.3461   56.1421 C   0  0  0  0  0  0  0  0  0  0  0  0
   27.0289    8.8721   55.7686 C   0  0  0  0  0  0  0  0  0  0  0  0
   27.1232    8.0479   54.6964 C   0  0  0  0  0  0  0  0  0  0  0  0
   28.3354    7.5781   54.3232 F   0  0  0  0  0  0  0  0  0  0  0  0
   25.9492    7.6997   53.9929 C   0  0  0  0  0  0  0  0  0  0  0  0
   28.1594    9.2452   56.4955 O   0  0  0  0  0  0  0  0  0  0  0  0
   28.1419    9.2904   57.9108 C   0  0  0  0  0  0  0  0  0  0  0  0
   29.0075    8.3322   58.4061 F   0  0  0  0  0  0  0  0  0  0  0  0
   28.5148   10.5468   58.2853 F   0  0  0  0  0  0  0  0  0  0  0  0
   26.8708    8.9941   58.3960 F   0  0  0  0  0  0  0  0  0  0  0  0
   20.8305    5.2705   53.3573 C   0  0  0  0  0  0  0  0  0  0  0  0
   21.2356    3.9868   53.0933 C   0  0  0  0  0  0  0  0  0  0  0  0
   20.3582    2.9192   53.1889 C   0  0  0  0  0  0  0  0  0  0  0  0
   19.0869    3.1467   53.5460 N   0  0  0  0  0  0  0  0  0  0  0  0
   18.6559    4.3911   53.8112 C   0  0  0  0  0  0  0  0  0  0  0  0
   17.2143    4.5908   54.2101 C   0  0  0  0  0  0  0  0  0  0  0  0
   19.4952    5.4509   53.7249 C   0  0  0  0  0  0  0  0  0  0  0  0
  1  2  1  0  0  0
  2  3  1  0  0  0
  3  4  1  0  0  0
  4  5  1  0  0  0
  5  6  1  0  0  0
  6  7  1  0  0  0
  7  8  1  0  0  0
  5  9  2  0  0  0
  9 10  1  0  0  0
 10 11  2  0  0  0
 11 12  1  0  0  0
 12 13  2  0  0  0
 13 14  1  0  0  0
 14 15  2  0  0  0
 15 19  1  0  0  0
 19 20  1  0  0  0
 20 21  1  0  0  0
 20 22  1  0  0  0
 20 23  1  0  0  0
 15 16  1  0  0  0
 16 17  1  0  0  0
 16 18  2  0  0  0
  9 24  1  0  0  0
 24 25  2  0  0  0
 25 26  1  0  0  0
 26 27  2  0  0  0
 27 28  1  0  0  0
 28 29  1  0  0  0
 28 30  2  0  0  0
  8  2  1  0  0  0
 18 12  1  0  0  0
 30 24  1  0  0  0
 11  4  1  0  0  0
M  END
> <minimizedAffinity>
21.67189

> <CNNscore>
0.4877890050

> <CNNaffinity>
6.5231652260

> <CNN_VS>
3.1819281578

> <CNNaffinity_variance>
0.6145559549

$$$$
[H]c1nc(C([H])([H])[H])c([H])c(-c2nc(-c3c([H])c([H])c(OC(F)(F)F)c(F)c3[H])n3c2C([H])([H])C([H])([H])O[C@]([H])(C([H])([H])[H])C3([H])[H])c1[H]


 30 33  0  0  0  0  0  0  0  0999 V2000
   20.0243   11.3467   55.5119 C   0  0  0  0  0  0  0  0  0  0  0  0
   20.7354   10.3454   54.6444 C   0  0  0  0  0  0  0  0  0  0  0  0
   20.8986    8.9875   55.3820 C   0  0  0  0  0  0  0  0  0  0  0  0
   22.0164    8.2546   54.8627 N   0  0  0  0  0  0  0  0  0  0  0  0
   23.2862    8.7914   54.8544 C   0  0  0  0  0  0  0  0  0  0  0  0
   23.7637   10.0709   55.4512 C   0  0  0  0  0  0  0  0  0  0  0  0
   22.6724   11.1192   55.4147 C   0  0  0  0  0  0  0  0  0  0  0  0
   21.9448   10.8553   54.2398 O   0  0  0  0  0  0  0  0  0  0  0  0
   24.1038    7.8861   54.2227 C   0  0  0  0  0  0  0  0  0  0  0  0
   23.3283    6.8672   53.8864 N   0  0  0  0  0  0  0  0  0  0  0  0
   22.0237    7.0631   54.2720 C   0  0  0  0  0  0  0  0  0  0  0  0
   20.9707    6.1090   53.9756 C   0  0  0  0  0  0  0  0  0  0  0  0
   19.6367    6.5418   53.9618 C   0  0  0  0  0  0  0  0  0  0  0  0
   18.6284    5.6963   53.6191 C   0  0  0  0  0  0  0  0  0  0  0  0
   18.8741    4.3907   53.2741 C   0  0  0  0  0  0  0  0  0  0  0  0
   20.1512    3.9359   53.2746 C   0  0  0  0  0  0  0  0  0  0  0  0
   20.3995    2.6502   52.9360 F   0  0  0  0  0  0  0  0  0  0  0  0
   21.1942    4.8190   53.6306 C   0  0  0  0  0  0  0  0  0  0  0  0
   17.8098    3.5572   52.9303 O   0  0  0  0  0  0  0  0  0  0  0  0
   16.6377    3.4962   53.7227 C   0  0  0  0  0  0  0  0  0  0  0  0
   15.9604    2.3236   53.4415 F   0  0  0  0  0  0  0  0  0  0  0  0
   17.0227    3.5538   55.0290 F   0  0  0  0  0  0  0  0  0  0  0  0
   15.7839    4.5534   53.4191 F   0  0  0  0  0  0  0  0  0  0  0  0
   25.5571    7.9673   53.9692 C   0  0  0  0  0  0  0  0  0  0  0  0
   26.5078    7.4630   54.8199 C   0  0  0  0  0  0  0  0  0  0  0  0
   27.8584    7.5456   54.5231 C   0  0  0  0  0  0  0  0  0  0  0  0
   28.2430    8.1315   53.3811 N   0  0  0  0  0  0  0  0  0  0  0  0
   27.3391    8.6365   52.5251 C   0  0  0  0  0  0  0  0  0  0  0  0
   27.8269    9.2847   51.2527 C   0  0  0  0  0  0  0  0  0  0  0  0
   26.0131    8.5674   52.7933 C   0  0  0  0  0  0  0  0  0  0  0  0
  1  2  1  0  0  0
  2  3  1  0  0  0
  3  4  1  0  0  0
  4  5  1  0  0  0
  5  6  1  0  0  0
  6  7  1  0  0  0
  7  8  1  0  0  0
  5  9  2  0  0  0
  9 10  1  0  0  0
 10 11  2  0  0  0
 11 12  1  0  0  0
 12 13  2  0  0  0
 13 14  1  0  0  0
 14 15  2  0  0  0
 15 19  1  0  0  0
 19 20  1  0  0  0
 20 21  1  0  0  0
 20 22  1  0  0  0
 20 23  1  0  0  0
 15 16  1  0  0  0
 16 17  1  0  0  0
 16 18  2  0  0  0
  9 24  1  0  0  0
 24 25  2  0  0  0
 25 26  1  0  0  0
 26 27  2  0  0  0
 27 28  1  0  0  0
 28 29  1  0  0  0
 28 30  2  0  0  0
  8  2  1  0  0  0
 18 12  1  0  0  0
 30 24  1  0  0  0
 11  4  1  0  0  0
M  END
> <minimizedAffinity>
34.19132

> <CNNscore>
0.4815726280

> <CNNaffinity>
6.2718000412

> <CNN_VS>
3.0203273296

> <CNNaffinity_variance>
0.5750714540

$$$$
[H]c1nc(C([H])([H])[H])c([H])c(-c2nc(-c3c([H])c([H])c(OC(F)(F)F)c(F)c3[H])n3c2C([H])([H])C([H])([H])O[C@]([H])(C([H])([H])[H])C3([H])[H])c1[H]


 30 33  0  0  0  0  0  0  0  0999 V2000
   20.2920   12.0573   54.0753 C   0  0  0  0  0  0  0  0  0  0  0  0
   21.1355   10.8755   53.6844 C   0  0  0  0  0  0  0  0  0  0  0  0
   21.0338    9.7448   54.7453 C   0  0  0  0  0  0  0  0  0  0  0  0
   22.2008    8.9118   54.7183 N   0  0  0  0  0  0  0  0  0  0  0  0
   23.4624    9.4366   54.9011 C   0  0  0  0  0  0  0  0  0  0  0  0
   23.8516   10.8269   55.2710 C   0  0  0  0  0  0  0  0  0  0  0  0
   22.8651   11.8273   54.7076 C   0  0  0  0  0  0  0  0  0  0  0  0
   22.4346   11.2753   53.4871 O   0  0  0  0  0  0  0  0  0  0  0  0
   24.3566    8.4071   54.7347 C   0  0  0  0  0  0  0  0  0  0  0  0
   23.6301    7.3323   54.4706 N   0  0  0  0  0  0  0  0  0  0  0  0
   22.2844    7.6109   54.4552 C   0  0  0  0  0  0  0  0  0  0  0  0
   21.2832    6.6073   54.1427 C   0  0  0  0  0  0  0  0  0  0  0  0
   19.9334    6.9823   54.0760 C   0  0  0  0  0  0  0  0  0  0  0  0
   18.9739    6.0883   53.7166 C   0  0  0  0  0  0  0  0  0  0  0  0
   19.2861    4.7883   53.4056 C   0  0  0  0  0  0  0  0  0  0  0  0
   20.5805    4.3888   53.4575 C   0  0  0  0  0  0  0  0  0  0  0  0
   20.8942    3.1089   53.1527 F   0  0  0  0  0  0  0  0  0  0  0  0
   21.5726    5.3220   53.8307 C   0  0  0  0  0  0  0  0  0  0  0  0
   18.2703    3.9038   53.0431 O   0  0  0  0  0  0  0  0  0  0  0  0
   17.1213    3.7317   53.8528 C   0  0  0  0  0  0  0  0  0  0  0  0
   16.3331    2.7305   53.3150 F   0  0  0  0  0  0  0  0  0  0  0  0
   17.5483    3.4159   55.1082 F   0  0  0  0  0  0  0  0  0  0  0  0
   16.3577    4.8958   53.8760 F   0  0  0  0  0  0  0  0  0  0  0  0
   25.8299    8.4306   54.8444 C   0  0  0  0  0  0  0  0  0  0  0  0
   26.6748    8.0423   53.8359 C   0  0  0  0  0  0  0  0  0  0  0  0
   28.0508    8.1057   53.9827 C   0  0  0  0  0  0  0  0  0  0  0  0
   28.5660    8.5551   55.1351 N   0  0  0  0  0  0  0  0  0  0  0  0
   27.7682    8.9431   56.1439 C   0  0  0  0  0  0  0  0  0  0  0  0
   28.4012    9.4422   57.4196 C   0  0  0  0  0  0  0  0  0  0  0  0
   26.4199    8.8907   56.0238 C   0  0  0  0  0  0  0  0  0  0  0  0
  1  2  1  0  0  0
  2  3  1  0  0  0
  3  4  1  0  0  0
  4  5  1  0  0  0
  5  6  1  0  0  0
  6  7  1  0  0  0
  7  8  1  0  0  0
  5  9  2  0  0  0
  9 10  1  0  0  0
 10 11  2  0  0  0
 11 12  1  0  0  0
 12 13  2  0  0  0
 13 14  1  0  0  0
 14 15  2  0  0  0
 15 19  1  0  0  0
 19 20  1  0  0  0
 20 21  1  0  0  0
 20 22  1  0  0  0
 20 23  1  0  0  0
 15 16  1  0  0  0
 16 17  1  0  0  0
 16 18  2  0  0  0
  9 24  1  0  0  0
 24 25  2  0  0  0
 25 26  1  0  0  0
 26 27  2  0  0  0
 27 28  1  0  0  0
 28 29  1  0  0  0
 28 30  2  0  0  0
  8  2  1  0  0  0
 18 12  1  0  0  0
 30 24  1  0  0  0
 11  4  1  0  0  0
M  END
> <minimizedAffinity>
31.24114

> <CNNscore>
0.4791322052

> <CNNaffinity>
6.2607603073

> <CNN_VS>
2.9997317791

> <CNNaffinity_variance>
0.3694311976

$$$$
[H]c1nc(C([H])([H])[H])c([H])c(-c2nc(-c3c([H])c([H])c(OC(F)(F)F)c(F)c3[H])n3c2C([H])([H])C([H])([H])O[C@]([H])(C([H])([H])[H])C3([H])[H])c1[H]


 30 33  0  0  0  0  0  0  0  0999 V2000
   22.2873    4.3978   54.5804 C   0  0  0  0  0  0  0  0  0  0  0  0
   22.9325    5.6194   53.9868 C   0  0  0  0  0  0  0  0  0  0  0  0
   23.0158    6.7670   55.0310 C   0  0  0  0  0  0  0  0  0  0  0  0
   23.0674    8.0453   54.3829 N   0  0  0  0  0  0  0  0  0  0  0  0
   22.0782    8.4495   53.5119 C   0  0  0  0  0  0  0  0  0  0  0  0
   20.7885    7.7776   53.1856 C   0  0  0  0  0  0  0  0  0  0  0  0
   20.9324    6.2730   53.2682 C   0  0  0  0  0  0  0  0  0  0  0  0
   22.2512    6.0043   52.8581 O   0  0  0  0  0  0  0  0  0  0  0  0
   22.4607    9.6666   53.0025 C   0  0  0  0  0  0  0  0  0  0  0  0
   23.6249    9.9483   53.5665 N   0  0  0  0  0  0  0  0  0  0  0  0
   24.0302    8.9612   54.4327 C   0  0  0  0  0  0  0  0  0  0  0  0
   25.2970    9.0150   55.1394 C   0  0  0  0  0  0  0  0  0  0  0  0
   25.3368    9.5462   56.4368 C   0  0  0  0  0  0  0  0  0  0  0  0
   26.4891    9.5489   57.1588 C   0  0  0  0  0  0  0  0  0  0  0  0
   27.6550    9.0338   56.6494 C   0  0  0  0  0  0  0  0  0  0  0  0
   27.6556    8.5103   55.3989 C   0  0  0  0  0  0  0  0  0  0  0  0
   28.8017    8.0018   54.8914 F   0  0  0  0  0  0  0  0  0  0  0  0
   26.4557    8.5097   54.6544 C   0  0  0  0  0  0  0  0  0  0  0  0
   28.8148    9.0578   57.4239 O   0  0  0  0  0  0  0  0  0  0  0  0
   28.7540    9.0918   58.8383 C   0  0  0  0  0  0  0  0  0  0  0  0
   27.4298    9.1413   59.2345 F   0  0  0  0  0  0  0  0  0  0  0  0
   29.3762    7.9713   59.3023 F   0  0  0  0  0  0  0  0  0  0  0  0
   29.3787   10.2351   59.3296 F   0  0  0  0  0  0  0  0  0  0  0  0
   21.7480   10.5373   52.0449 C   0  0  0  0  0  0  0  0  0  0  0  0
   20.8732   10.0707   51.0969 C   0  0  0  0  0  0  0  0  0  0  0  0
   20.2131   10.9334   50.2372 C   0  0  0  0  0  0  0  0  0  0  0  0
   20.4354   12.2512   50.3342 N   0  0  0  0  0  0  0  0  0  0  0  0
   21.2860   12.7428   51.2505 C   0  0  0  0  0  0  0  0  0  0  0  0
   21.4985   14.2352   51.3172 C   0  0  0  0  0  0  0  0  0  0  0  0
   21.9427   11.9192   52.1022 C   0  0  0  0  0  0  0  0  0  0  0  0
  1  2  1  0  0  0
  2  3  1  0  0  0
  3  4  1  0  0  0
  4  5  1  0  0  0
  5  6  1  0  0  0
  6  7  1  0  0  0
  7  8  1  0  0  0
  5  9  2  0  0  0
  9 10  1  0  0  0
 10 11  2  0  0  0
 11 12  1  0  0  0
 12 13  2  0  0  0
 13 14  1  0  0  0
 14 15  2  0  0  0
 15 19  1  0  0  0
 19 20  1  0  0  0
 20 21  1  0  0  0
 20 22  1  0  0  0
 20 23  1  0  0  0
 15 16  1  0  0  0
 16 17  1  0  0  0
 16 18  2  0  0  0
  9 24  1  0  0  0
 24 25  2  0  0  0
 25 26  1  0  0  0
 26 27  2  0  0  0
 27 28  1  0  0  0
 28 29  1  0  0  0
 28 30  2  0  0  0
  8  2  1  0  0  0
 18 12  1  0  0  0
 30 24  1  0  0  0
 11  4  1  0  0  0
M  END
> <minimizedAffinity>
29.44972

> <CNNscore>
0.4673641324

> <CNNaffinity>
6.0360617638

> <CNN_VS>
2.8210387230

> <CNNaffinity_variance>
0.3057219088

$$$$
[H]c1nc(C([H])([H])[H])c([H])c(-c2nc(-c3c([H])c([H])c(OC(F)(F)F)c(F)c3[H])n3c2C([H])([H])C([H])([H])O[C@]([H])(C([H])([H])[H])C3([H])[H])c1[H]


 30 33  0  0  0  0  0  0  0  0999 V2000
   20.4449   12.2922   53.8418 C   0  0  0  0  0  0  0  0  0  0  0  0
   21.2737   11.0855   53.4981 C   0  0  0  0  0  0  0  0  0  0  0  0
   21.0878    9.9637   54.5570 C   0  0  0  0  0  0  0  0  0  0  0  0
   22.2310    9.0986   54.5915 N   0  0  0  0  0  0  0  0  0  0  0  0
   23.4961    9.5893   54.8350 C   0  0  0  0  0  0  0  0  0  0  0  0
   23.9050   10.9703   55.2185 C   0  0  0  0  0  0  0  0  0  0  0  0
   22.9760   11.9945   54.6026 C   0  0  0  0  0  0  0  0  0  0  0  0
   22.5916   11.4482   53.3643 O   0  0  0  0  0  0  0  0  0  0  0  0
   24.3684    8.5346   54.7175 C   0  0  0  0  0  0  0  0  0  0  0  0
   23.6263    7.4790   54.4217 N   0  0  0  0  0  0  0  0  0  0  0  0
   22.2913    7.7946   54.3380 C   0  0  0  0  0  0  0  0  0  0  0  0
   21.2794    6.8173   53.9799 C   0  0  0  0  0  0  0  0  0  0  0  0
   21.6416    5.4680   53.8575 C   0  0  0  0  0  0  0  0  0  0  0  0
   20.7104    4.5127   53.5941 C   0  0  0  0  0  0  0  0  0  0  0  0
   19.3838    4.8289   53.4380 C   0  0  0  0  0  0  0  0  0  0  0  0
   18.9950    6.1228   53.5504 C   0  0  0  0  0  0  0  0  0  0  0  0
   17.6892    6.4405   53.3971 F   0  0  0  0  0  0  0  0  0  0  0  0
   19.9666    7.1102   53.8249 C   0  0  0  0  0  0  0  0  0  0  0  0
   18.4620    3.8177   53.1674 O   0  0  0  0  0  0  0  0  0  0  0  0
   17.3331    3.6103   53.9969 C   0  0  0  0  0  0  0  0  0  0  0  0
   16.5666    2.5856   53.4722 F   0  0  0  0  0  0  0  0  0  0  0  0
   17.7913    3.3076   55.2444 F   0  0  0  0  0  0  0  0  0  0  0  0
   16.5348    4.7506   54.0341 F   0  0  0  0  0  0  0  0  0  0  0  0
   25.8345    8.5180   54.9005 C   0  0  0  0  0  0  0  0  0  0  0  0
   26.7153    8.0677   53.9502 C   0  0  0  0  0  0  0  0  0  0  0  0
   28.0838    8.0952   54.1640 C   0  0  0  0  0  0  0  0  0  0  0  0
   28.5555    8.5711   55.3243 N   0  0  0  0  0  0  0  0  0  0  0  0
   27.7217    9.0198   56.2772 C   0  0  0  0  0  0  0  0  0  0  0  0
   28.3064    9.5462   57.5648 C   0  0  0  0  0  0  0  0  0  0  0  0
   26.3799    9.0033   56.0912 C   0  0  0  0  0  0  0  0  0  0  0  0
  1  2  1  0  0  0
  2  3  1  0  0  0
  3  4  1  0  0  0
  4  5  1  0  0  0
  5  6  1  0  0  0
  6  7  1  0  0  0
  7  8  1  0  0  0
  5  9  2  0  0  0
  9 10  1  0  0  0
 10 11  2  0  0  0
 11 12  1  0  0  0
 12 13  2  0  0  0
 13 14  1  0  0  0
 14 15  2  0  0  0
 15 19  1  0  0  0
 19 20  1  0  0  0
 20 21  1  0  0  0
 20 22  1  0  0  0
 20 23  1  0  0  0
 15 16  1  0  0  0
 16 17  1  0  0  0
 16 18  2  0  0  0
  9 24  1  0  0  0
 24 25  2  0  0  0
 25 26  1  0  0  0
 26 27  2  0  0  0
 27 28  1  0  0  0
 28 29  1  0  0  0
 28 30  2  0  0  0
  8  2  1  0  0  0
 18 12  1  0  0  0
 30 24  1  0  0  0
 11  4  1  0  0  0
M  END
> <minimizedAffinity>
30.78974

> <CNNscore>
0.4459351003

> <CNNaffinity>
6.1155099869

> <CNN_VS>
2.7271206379

> <CNNaffinity_variance>
0.3080918491

$$$$
[H]c1nc(C([H])([H])[H])c([H])c(-c2nc(-c3c([H])c([H])c(OC(F)(F)F)c(F)c3[H])n3c2C([H])([H])C([H])([H])O[C@]([H])(C([H])([H])[H])C3([H])[H])c1[H]


 30 33  0  0  0  0  0  0  0  0999 V2000
   20.1461   11.3378   51.4837 C   0  0  0  0  0  0  0  0  0  0  0  0
   20.9871   10.1134   51.7172 C   0  0  0  0  0  0  0  0  0  0  0  0
   20.6690    9.4756   53.0979 C   0  0  0  0  0  0  0  0  0  0  0  0
   21.7873    8.7193   53.5816 N   0  0  0  0  0  0  0  0  0  0  0  0
   23.0264    9.2987   53.7525 C   0  0  0  0  0  0  0  0  0  0  0  0
   23.4142   10.7317   53.6208 C   0  0  0  0  0  0  0  0  0  0  0  0
   22.5745   11.4191   52.5654 C   0  0  0  0  0  0  0  0  0  0  0  0
   22.3176   10.4321   51.5962 O   0  0  0  0  0  0  0  0  0  0  0  0
   23.8888    8.3021   54.1402 C   0  0  0  0  0  0  0  0  0  0  0  0
   23.1657    7.1944   54.1927 N   0  0  0  0  0  0  0  0  0  0  0  0
   21.8530    7.4192   53.8532 C   0  0  0  0  0  0  0  0  0  0  0  0
   20.8698    6.3531   53.7898 C   0  0  0  0  0  0  0  0  0  0  0  0
   19.5164    6.6546   54.0008 C   0  0  0  0  0  0  0  0  0  0  0  0
   18.5575    5.6981   53.8795 C   0  0  0  0  0  0  0  0  0  0  0  0
   18.8737    4.4045   53.5469 C   0  0  0  0  0  0  0  0  0  0  0  0
   20.1714    4.0750   53.3340 C   0  0  0  0  0  0  0  0  0  0  0  0
   20.4892    2.8017   53.0065 F   0  0  0  0  0  0  0  0  0  0  0  0
   21.1627    5.0729   53.4606 C   0  0  0  0  0  0  0  0  0  0  0  0
   17.8586    3.4545   53.4343 O   0  0  0  0  0  0  0  0  0  0  0  0
   16.5918    3.6573   54.0340 C   0  0  0  0  0  0  0  0  0  0  0  0
   16.1454    4.9309   53.7318 F   0  0  0  0  0  0  0  0  0  0  0  0
   15.7507    2.7010   53.5481 F   0  0  0  0  0  0  0  0  0  0  0  0
   16.6844    3.5664   55.4203 F   0  0  0  0  0  0  0  0  0  0  0  0
   25.3259    8.3949   54.4707 C   0  0  0  0  0  0  0  0  0  0  0  0
   26.3311    8.0856   53.5901 C   0  0  0  0  0  0  0  0  0  0  0  0
   27.6645    8.2119   53.9438 C   0  0  0  0  0  0  0  0  0  0  0  0
   27.9776    8.6447   55.1726 N   0  0  0  0  0  0  0  0  0  0  0  0
   27.0187    8.9561   56.0606 C   0  0  0  0  0  0  0  0  0  0  0  0
   27.4269    9.4399   57.4304 C   0  0  0  0  0  0  0  0  0  0  0  0
   25.7082    8.8411   55.7378 C   0  0  0  0  0  0  0  0  0  0  0  0
  1  2  1  0  0  0
  2  3  1  0  0  0
  3  4  1  0  0  0
  4  5  1  0  0  0
  5  6  1  0  0  0
  6  7  1  0  0  0
  7  8  1  0  0  0
  5  9  2  0  0  0
  9 10  1  0  0  0
 10 11  2  0  0  0
 11 12  1  0  0  0
 12 13  2  0  0  0
 13 14  1  0  0  0
 14 15  2  0  0  0
 15 19  1  0  0  0
 19 20  1  0  0  0
 20 21  1  0  0  0
 20 22  1  0  0  0
 20 23  1  0  0  0
 15 16  1  0  0  0
 16 17  1  0  0  0
 16 18  2  0  0  0
  9 24  1  0  0  0
 24 25  2  0  0  0
 25 26  1  0  0  0
 26 27  2  0  0  0
 27 28  1  0  0  0
 28 29  1  0  0  0
 28 30  2  0  0  0
  8  2  1  0  0  0
 18 12  1  0  0  0
 30 24  1  0  0  0
 11  4  1  0  0  0
M  END
> <minimizedAffinity>
33.72845

> <CNNscore>
0.4357395470

> <CNNaffinity>
6.2578935623

> <CNN_VS>
2.7268116474

> <CNNaffinity_variance>
0.3679400682

$$$$
[H]c1nc(C([H])([H])[H])c([H])c(-c2nc(-c3c([H])c([H])c(OC(F)(F)F)c(F)c3[H])n3c2C([H])([H])C([H])([H])O[C@]([H])(C([H])([H])[H])C3([H])[H])c1[H]


 30 33  0  0  0  0  0  0  0  0999 V2000
   20.8102    4.9852   55.1708 C   0  0  0  0  0  0  0  0  0  0  0  0
   21.5617    6.2875   55.1812 C   0  0  0  0  0  0  0  0  0  0  0  0
   22.0679    6.6485   53.7572 C   0  0  0  0  0  0  0  0  0  0  0  0
   23.2157    7.5056   53.8245 N   0  0  0  0  0  0  0  0  0  0  0  0
   24.3543    7.1292   54.5045 C   0  0  0  0  0  0  0  0  0  0  0  0
   24.6724    5.8201   55.1418 C   0  0  0  0  0  0  0  0  0  0  0  0
   23.4160    5.1632   55.6723 C   0  0  0  0  0  0  0  0  0  0  0  0
   22.5910    6.2242   56.0883 O   0  0  0  0  0  0  0  0  0  0  0  0
   25.2251    8.1904   54.4534 C   0  0  0  0  0  0  0  0  0  0  0  0
   24.6064    9.1369   53.7648 N   0  0  0  0  0  0  0  0  0  0  0  0
   23.3547    8.7426   53.3566 C   0  0  0  0  0  0  0  0  0  0  0  0
   22.4596    9.6209   52.6254 C   0  0  0  0  0  0  0  0  0  0  0  0
   22.6413   11.0091   52.7085 C   0  0  0  0  0  0  0  0  0  0  0  0
   21.8699   11.8622   51.9832 C   0  0  0  0  0  0  0  0  0  0  0  0
   20.8864   11.4014   51.1438 C   0  0  0  0  0  0  0  0  0  0  0  0
   20.6818   10.0656   51.0359 C   0  0  0  0  0  0  0  0  0  0  0  0
   19.7138    9.6056   50.2107 F   0  0  0  0  0  0  0  0  0  0  0  0
   21.4866    9.1846   51.7911 C   0  0  0  0  0  0  0  0  0  0  0  0
   20.1173   12.3117   50.4190 O   0  0  0  0  0  0  0  0  0  0  0  0
   20.3995   13.6992   50.4467 C   0  0  0  0  0  0  0  0  0  0  0  0
   20.0935   14.2492   49.2152 F   0  0  0  0  0  0  0  0  0  0  0  0
   19.6505   14.2498   51.4436 F   0  0  0  0  0  0  0  0  0  0  0  0
   21.7549   13.9203   50.6764 F   0  0  0  0  0  0  0  0  0  0  0  0
   26.5903    8.2983   55.0082 C   0  0  0  0  0  0  0  0  0  0  0  0
   27.7172    7.8866   54.3432 C   0  0  0  0  0  0  0  0  0  0  0  0
   28.9772    8.0316   54.9002 C   0  0  0  0  0  0  0  0  0  0  0  0
   29.0963    8.5852   56.1146 N   0  0  0  0  0  0  0  0  0  0  0  0
   28.0140    8.9993   56.7943 C   0  0  0  0  0  0  0  0  0  0  0  0
   28.2052    9.6169   58.1578 C   0  0  0  0  0  0  0  0  0  0  0  0
   26.7717    8.8683   56.2703 C   0  0  0  0  0  0  0  0  0  0  0  0
  1  2  1  0  0  0
  2  3  1  0  0  0
  3  4  1  0  0  0
  4  5  1  0  0  0
  5  6  1  0  0  0
  6  7  1  0  0  0
  7  8  1  0  0  0
  5  9  2  0  0  0
  9 10  1  0  0  0
 10 11  2  0  0  0
 11 12  1  0  0  0
 12 13  2  0  0  0
 13 14  1  0  0  0
 14 15  2  0  0  0
 15 19  1  0  0  0
 19 20  1  0  0  0
 20 21  1  0  0  0
 20 22  1  0  0  0
 20 23  1  0  0  0
 15 16  1  0  0  0
 16 17  1  0  0  0
 16 18  2  0  0  0
  9 24  1  0  0  0
 24 25  2  0  0  0
 25 26  1  0  0  0
 26 27  2  0  0  0
 27 28  1  0  0  0
 28 29  1  0  0  0
 28 30  2  0  0  0
  8  2  1  0  0  0
 18 12  1  0  0  0
 30 24  1  0  0  0
 11  4  1  0  0  0
M  END
> <minimizedAffinity>
38.45429

> <CNNscore>
0.4345148206

> <CNNaffinity>
5.8442087173

> <CNN_VS>
2.5393953323

> <CNNaffinity_variance>
0.2625610530

$$$$
[H]c1nc(C([H])([H])[H])c([H])c(-c2nc(-c3c([H])c([H])c(OC(F)(F)F)c(F)c3[H])n3c2C([H])([H])C([H])([H])O[C@]([H])(C([H])([H])[H])C3([H])[H])c1[H]


 30 33  0  0  0  0  0  0  0  0999 V2000
   21.5862   11.6227   50.3620 C   0  0  0  0  0  0  0  0  0  0  0  0
   21.4938   10.8171   51.6282 C   0  0  0  0  0  0  0  0  0  0  0  0
   22.6780    9.8171   51.7386 C   0  0  0  0  0  0  0  0  0  0  0  0
   22.3273    8.6984   52.5644 N   0  0  0  0  0  0  0  0  0  0  0  0
   21.2382    7.9045   52.2740 C   0  0  0  0  0  0  0  0  0  0  0  0
   20.3490    7.9388   51.0785 C   0  0  0  0  0  0  0  0  0  0  0  0
   20.2157    9.3512   50.5504 C   0  0  0  0  0  0  0  0  0  0  0  0
   20.2791   10.1786   51.6865 O   0  0  0  0  0  0  0  0  0  0  0  0
   21.1252    6.9861   53.2893 C   0  0  0  0  0  0  0  0  0  0  0  0
   22.1175    7.2445   54.1268 N   0  0  0  0  0  0  0  0  0  0  0  0
   22.8861    8.3026   53.7044 C   0  0  0  0  0  0  0  0  0  0  0  0
   24.0069    8.8097   54.4750 C   0  0  0  0  0  0  0  0  0  0  0  0
   23.7628    9.4677   55.6893 C   0  0  0  0  0  0  0  0  0  0  0  0
   24.7878    9.8938   56.4747 C   0  0  0  0  0  0  0  0  0  0  0  0
   26.0973    9.6979   56.1127 C   0  0  0  0  0  0  0  0  0  0  0  0
   26.3729    9.0645   54.9462 C   0  0  0  0  0  0  0  0  0  0  0  0
   27.6614    8.8690   54.5839 F   0  0  0  0  0  0  0  0  0  0  0  0
   25.3042    8.6236   54.1353 C   0  0  0  0  0  0  0  0  0  0  0  0
   27.1181   10.1522   56.9477 O   0  0  0  0  0  0  0  0  0  0  0  0
   28.2765    9.3728   57.1841 C   0  0  0  0  0  0  0  0  0  0  0  0
   28.1878    8.1973   56.4607 F   0  0  0  0  0  0  0  0  0  0  0  0
   29.3547   10.1160   56.8057 F   0  0  0  0  0  0  0  0  0  0  0  0
   28.3703    9.0277   58.5298 F   0  0  0  0  0  0  0  0  0  0  0  0
   20.1398    5.8969   53.4501 C   0  0  0  0  0  0  0  0  0  0  0  0
   18.8166    6.1049   53.7460 C   0  0  0  0  0  0  0  0  0  0  0  0
   17.9288    5.0481   53.8636 C   0  0  0  0  0  0  0  0  0  0  0  0
   18.3734    3.7967   53.6851 N   0  0  0  0  0  0  0  0  0  0  0  0
   19.6628    3.5564   53.3947 C   0  0  0  0  0  0  0  0  0  0  0  0
   20.1100    2.1281   53.2026 C   0  0  0  0  0  0  0  0  0  0  0  0
   20.5497    4.5733   53.2743 C   0  0  0  0  0  0  0  0  0  0  0  0
  1  2  1  0  0  0
  2  3  1  0  0  0
  3  4  1  0  0  0
  4  5  1  0  0  0
  5  6  1  0  0  0
  6  7  1  0  0  0
  7  8  1  0  0  0
  5  9  2  0  0  0
  9 10  1  0  0  0
 10 11  2  0  0  0
 11 12  1  0  0  0
 12 13  2  0  0  0
 13 14  1  0  0  0
 14 15  2  0  0  0
 15 19  1  0  0  0
 19 20  1  0  0  0
 20 21  1  0  0  0
 20 22  1  0  0  0
 20 23  1  0  0  0
 15 16  1  0  0  0
 16 17  1  0  0  0
 16 18  2  0  0  0
  9 24  1  0  0  0
 24 25  2  0  0  0
 25 26  1  0  0  0
 26 27  2  0  0  0
 27 28  1  0  0  0
 28 29  1  0  0  0
 28 30  2  0  0  0
  8  2  1  0  0  0
 18 12  1  0  0  0
 30 24  1  0  0  0
 11  4  1  0  0  0
M  END
> <minimizedAffinity>
36.63772

> <CNNscore>
0.3899994493

> <CNNaffinity>
6.3974351883

> <CNN_VS>
2.4949963093

> <CNNaffinity_variance>
0.8720771074

$$$$
[H]c1c([H])c(-c2nc(-c3c([H])c(C([H])([H])[H])nc(C([H])([H])[H])c3[H])c3n2C([H])([H])C([H])([H])OC([H])([H])C3([H])[H])c([H])c(F)c1OC(F)(F)F


 30 33  0  0  0  0  0  0  0  0999 V2000
   21.5855    6.3958   53.1799 C   0  0  0  0  0  0  0  0  0  0  0  0
   22.6972    6.5482   53.9021 N   0  0  0  0  0  0  0  0  0  0  0  0
   23.3200    7.7342   53.5942 C   0  0  0  0  0  0  0  0  0  0  0  0
   22.5443    8.2914   52.6686 N   0  0  0  0  0  0  0  0  0  0  0  0
   22.7594    9.5981   52.1084 C   0  0  0  0  0  0  0  0  0  0  0  0
   21.4318   10.3586   52.0922 C   0  0  0  0  0  0  0  0  0  0  0  0
   20.5473    9.9453   51.1463 O   0  0  0  0  0  0  0  0  0  0  0  0
   19.6808    8.9552   51.6423 C   0  0  0  0  0  0  0  0  0  0  0  0
   20.3971    7.6455   51.4059 C   0  0  0  0  0  0  0  0  0  0  0  0
   21.4740    7.4983   52.3844 C   0  0  0  0  0  0  0  0  0  0  0  0
   17.2264    4.4753   54.3020 C   0  0  0  0  0  0  0  0  0  0  0  0
   18.6193    4.2939   53.8515 C   0  0  0  0  0  0  0  0  0  0  0  0
   19.4395    5.4053   53.7362 C   0  0  0  0  0  0  0  0  0  0  0  0
   20.7333    5.2050   53.3139 C   0  0  0  0  0  0  0  0  0  0  0  0
   21.1388    3.9328   53.0322 C   0  0  0  0  0  0  0  0  0  0  0  0
   20.3192    2.8274   53.1480 C   0  0  0  0  0  0  0  0  0  0  0  0
   20.7682    1.4455   52.8397 C   0  0  0  0  0  0  0  0  0  0  0  0
   19.0599    3.0524   53.5630 N   0  0  0  0  0  0  0  0  0  0  0  0
   24.5505    8.1363   54.2630 C   0  0  0  0  0  0  0  0  0  0  0  0
   24.4584    8.9053   55.4391 C   0  0  0  0  0  0  0  0  0  0  0  0
   25.5872    9.2466   56.1383 C   0  0  0  0  0  0  0  0  0  0  0  0
   26.8530    8.8739   55.7534 C   0  0  0  0  0  0  0  0  0  0  0  0
   26.9590    8.1163   54.5990 C   0  0  0  0  0  0  0  0  0  0  0  0
   28.1504    7.6965   54.1299 F   0  0  0  0  0  0  0  0  0  0  0  0
   25.8190    7.7736   53.8977 C   0  0  0  0  0  0  0  0  0  0  0  0
   28.0053    9.2090   56.4445 O   0  0  0  0  0  0  0  0  0  0  0  0
   28.0717    9.3629   57.8364 C   0  0  0  0  0  0  0  0  0  0  0  0
   28.3975   10.6505   58.1373 F   0  0  0  0  0  0  0  0  0  0  0  0
   29.0041    8.4815   58.3858 F   0  0  0  0  0  0  0  0  0  0  0  0
   26.8208    9.0105   58.3526 F   0  0  0  0  0  0  0  0  0  0  0  0
 11 12  1  0  0  0
 12 13  2  0  0  0
 13 14  1  0  0  0
 14 15  2  0  0  0
 15 16  1  0  0  0
 16 17  1  0  0  0
 16 18  2  0  0  0
 14  1  1  0  0  0
  1  2  1  0  0  0
  2  3  2  0  0  0
  3 19  1  0  0  0
 19 20  2  0  0  0
 20 21  1  0  0  0
 21 22  2  0  0  0
 22 26  1  0  0  0
 26 27  1  0  0  0
 27 28  1  0  0  0
 27 29  1  0  0  0
 27 30  1  0  0  0
 22 23  1  0  0  0
 23 24  1  0  0  0
 23 25  2  0  0  0
  3  4  1  0  0  0
  4  5  1  0  0  0
  5  6  1  0  0  0
  6  7  1  0  0  0
  7  8  1  0  0  0
  8  9  1  0  0  0
  9 10  1  0  0  0
 18 12  1  0  0  0
 10  1  2  0  0  0
 25 19  1  0  0  0
 10  4  1  0  0  0
M  END
> <minimizedAffinity>
24.52652

> <CNNscore>
0.5137804747

> <CNNaffinity>
6.5729727745

> <CNN_VS>
3.3770651817

> <CNNaffinity_variance>
0.4468697608

$$$$
[H]c1c([H])c(-c2nc(-c3c([H])c(C([H])([H])[H])nc(C([H])([H])[H])c3[H])c3n2C([H])([H])C([H])([H])OC([H])([H])C3([H])[H])c([H])c(F)c1OC(F)(F)F


 30 33  0  0  0  0  0  0  0  0999 V2000
   21.4884    6.4715   53.1855 C   0  0  0  0  0  0  0  0  0  0  0  0
   22.6014    6.6021   53.9101 N   0  0  0  0  0  0  0  0  0  0  0  0
   23.2596    7.7650   53.5876 C   0  0  0  0  0  0  0  0  0  0  0  0
   22.5039    8.3308   52.6508 N   0  0  0  0  0  0  0  0  0  0  0  0
   22.7589    9.6224   52.0726 C   0  0  0  0  0  0  0  0  0  0  0  0
   21.4541   10.4207   52.0398 C   0  0  0  0  0  0  0  0  0  0  0  0
   20.5615   10.0195   51.0962 O   0  0  0  0  0  0  0  0  0  0  0  0
   19.6647    9.0623   51.6029 C   0  0  0  0  0  0  0  0  0  0  0  0
   20.3436    7.7291   51.3885 C   0  0  0  0  0  0  0  0  0  0  0  0
   21.4121    7.5650   52.3736 C   0  0  0  0  0  0  0  0  0  0  0  0
   20.8344    1.6357   52.8165 C   0  0  0  0  0  0  0  0  0  0  0  0
   20.3043    2.9695   53.1571 C   0  0  0  0  0  0  0  0  0  0  0  0
   21.1234    4.0776   53.0075 C   0  0  0  0  0  0  0  0  0  0  0  0
   20.6015    5.3080   53.3331 C   0  0  0  0  0  0  0  0  0  0  0  0
   19.3148    5.3734   53.7832 C   0  0  0  0  0  0  0  0  0  0  0  0
   18.5011    4.2674   53.9312 C   0  0  0  0  0  0  0  0  0  0  0  0
   17.1013    4.3469   54.4216 C   0  0  0  0  0  0  0  0  0  0  0  0
   19.0370    3.0777   53.6055 N   0  0  0  0  0  0  0  0  0  0  0  0
   24.4986    8.1410   54.2557 C   0  0  0  0  0  0  0  0  0  0  0  0
   24.4242    8.9249   55.4232 C   0  0  0  0  0  0  0  0  0  0  0  0
   25.5598    9.2432   56.1221 C   0  0  0  0  0  0  0  0  0  0  0  0
   26.8162    8.8324   55.7450 C   0  0  0  0  0  0  0  0  0  0  0  0
   26.9048    8.0596   54.5991 C   0  0  0  0  0  0  0  0  0  0  0  0
   28.0857    7.6027   54.1382 F   0  0  0  0  0  0  0  0  0  0  0  0
   25.7579    7.7403   53.8982 C   0  0  0  0  0  0  0  0  0  0  0  0
   27.9752    9.1438   56.4359 O   0  0  0  0  0  0  0  0  0  0  0  0
   28.0403    9.3192   57.8253 C   0  0  0  0  0  0  0  0  0  0  0  0
   28.3533   10.6143   58.1067 F   0  0  0  0  0  0  0  0  0  0  0  0
   28.9816    8.4556   58.3876 F   0  0  0  0  0  0  0  0  0  0  0  0
   26.7932    8.9621   58.3471 F   0  0  0  0  0  0  0  0  0  0  0  0
 11 12  1  0  0  0
 12 13  2  0  0  0
 13 14  1  0  0  0
 14 15  2  0  0  0
 15 16  1  0  0  0
 16 17  1  0  0  0
 16 18  2  0  0  0
 14  1  1  0  0  0
  1  2  1  0  0  0
  2  3  2  0  0  0
  3 19  1  0  0  0
 19 20  2  0  0  0
 20 21  1  0  0  0
 21 22  2  0  0  0
 22 26  1  0  0  0
 26 27  1  0  0  0
 27 28  1  0  0  0
 27 29  1  0  0  0
 27 30  1  0  0  0
 22 23  1  0  0  0
 23 24  1  0  0  0
 23 25  2  0  0  0
  3  4  1  0  0  0
  4  5  1  0  0  0
  5  6  1  0  0  0
  6  7  1  0  0  0
  7  8  1  0  0  0
  8  9  1  0  0  0
  9 10  1  0  0  0
 18 12  1  0  0  0
 10  1  2  0  0  0
 25 19  1  0  0  0
 10  4  1  0  0  0
M  END
> <minimizedAffinity>
24.74144

> <CNNscore>
0.5106517673

> <CNNaffinity>
6.5501670837

> <CNN_VS>
3.3448543549

> <CNNaffinity_variance>
0.4512619376

$$$$
[H]c1c([H])c(-c2nc(-c3c([H])c(C([H])([H])[H])nc(C([H])([H])[H])c3[H])c3n2C([H])([H])C([H])([H])OC([H])([H])C3([H])[H])c([H])c(F)c1OC(F)(F)F


 30 33  0  0  0  0  0  0  0  0999 V2000
   24.0341    8.0527   54.2879 C   0  0  0  0  0  0  0  0  0  0  0  0
   23.5232    6.8330   54.1087 N   0  0  0  0  0  0  0  0  0  0  0  0
   22.1507    6.8828   54.0509 C   0  0  0  0  0  0  0  0  0  0  0  0
   21.8542    8.1712   54.1954 N   0  0  0  0  0  0  0  0  0  0  0  0
   20.5249    8.7128   54.1109 C   0  0  0  0  0  0  0  0  0  0  0  0
   20.5492    9.9579   53.2220 C   0  0  0  0  0  0  0  0  0  0  0  0
   21.1113   11.0567   53.7916 O   0  0  0  0  0  0  0  0  0  0  0  0
   22.4864   11.1419   53.5104 C   0  0  0  0  0  0  0  0  0  0  0  0
   23.1653   10.3478   54.6025 C   0  0  0  0  0  0  0  0  0  0  0  0
   22.9822    8.9192   54.3487 C   0  0  0  0  0  0  0  0  0  0  0  0
   28.3943    8.3012   52.0800 C   0  0  0  0  0  0  0  0  0  0  0  0
   27.5813    8.4013   53.3068 C   0  0  0  0  0  0  0  0  0  0  0  0
   26.2158    8.1765   53.2294 C   0  0  0  0  0  0  0  0  0  0  0  0
   25.4837    8.2768   54.3897 C   0  0  0  0  0  0  0  0  0  0  0  0
   26.1345    8.5902   55.5475 C   0  0  0  0  0  0  0  0  0  0  0  0
   27.4953    8.8136   55.6214 C   0  0  0  0  0  0  0  0  0  0  0  0
   28.1965    9.1542   56.8859 C   0  0  0  0  0  0  0  0  0  0  0  0
   28.1861    8.7088   54.4723 N   0  0  0  0  0  0  0  0  0  0  0  0
   21.3598    5.6764   53.8456 C   0  0  0  0  0  0  0  0  0  0  0  0
   19.9555    5.7819   53.8501 C   0  0  0  0  0  0  0  0  0  0  0  0
   19.1739    4.6856   53.5921 C   0  0  0  0  0  0  0  0  0  0  0  0
   19.6890    3.4409   53.3184 C   0  0  0  0  0  0  0  0  0  0  0  0
   21.0688    3.3223   53.3094 C   0  0  0  0  0  0  0  0  0  0  0  0
   21.6808    2.1495   53.0532 F   0  0  0  0  0  0  0  0  0  0  0  0
   21.8530    4.4297   53.5690 C   0  0  0  0  0  0  0  0  0  0  0  0
   18.9173    2.3213   53.0564 O   0  0  0  0  0  0  0  0  0  0  0  0
   17.6890    2.3524   52.3813 C   0  0  0  0  0  0  0  0  0  0  0  0
   17.7972    3.1386   51.2747 F   0  0  0  0  0  0  0  0  0  0  0  0
   16.6777    2.8245   53.2194 F   0  0  0  0  0  0  0  0  0  0  0  0
   17.3644    1.0331   52.0502 F   0  0  0  0  0  0  0  0  0  0  0  0
 11 12  1  0  0  0
 12 13  2  0  0  0
 13 14  1  0  0  0
 14 15  2  0  0  0
 15 16  1  0  0  0
 16 17  1  0  0  0
 16 18  2  0  0  0
 14  1  1  0  0  0
  1  2  1  0  0  0
  2  3  2  0  0  0
  3 19  1  0  0  0
 19 20  2  0  0  0
 20 21  1  0  0  0
 21 22  2  0  0  0
 22 26  1  0  0  0
 26 27  1  0  0  0
 27 28  1  0  0  0
 27 29  1  0  0  0
 27 30  1  0  0  0
 22 23  1  0  0  0
 23 24  1  0  0  0
 23 25  2  0  0  0
  3  4  1  0  0  0
  4  5  1  0  0  0
  5  6  1  0  0  0
  6  7  1  0  0  0
  7  8  1  0  0  0
  8  9  1  0  0  0
  9 10  1  0  0  0
 18 12  1  0  0  0
 10  1  2  0  0  0
 25 19  1  0  0  0
 10  4  1  0  0  0
M  END
> <minimizedAffinity>
42.51456

> <CNNscore>
0.5065493584

> <CNNaffinity>
6.3523216248

> <CNN_VS>
3.2177643776

> <CNNaffinity_variance>
0.5337318182

$$$$
[H]c1c([H])c(-c2nc(-c3c([H])c(C([H])([H])[H])nc(C([H])([H])[H])c3[H])c3n2C([H])([H])C([H])([H])OC([H])([H])C3([H])[H])c([H])c(F)c1OC(F)(F)F


 30 33  0  0  0  0  0  0  0  0999 V2000
   20.9000    5.9371   53.9093 C   0  0  0  0  0  0  0  0  0  0  0  0
   20.5731    7.1474   53.4520 N   0  0  0  0  0  0  0  0  0  0  0  0
   21.5728    8.0539   53.7134 C   0  0  0  0  0  0  0  0  0  0  0  0
   22.5122    7.3485   54.3369 N   0  0  0  0  0  0  0  0  0  0  0  0
   23.7942    7.8700   54.7272 C   0  0  0  0  0  0  0  0  0  0  0  0
   24.8828    6.8759   54.3177 C   0  0  0  0  0  0  0  0  0  0  0  0
   24.9501    5.7540   55.0824 O   0  0  0  0  0  0  0  0  0  0  0  0
   24.1616    4.7166   54.5538 C   0  0  0  0  0  0  0  0  0  0  0  0
   22.7864    4.9212   55.1465 C   0  0  0  0  0  0  0  0  0  0  0  0
   22.1339    6.0479   54.4804 C   0  0  0  0  0  0  0  0  0  0  0  0
   20.2425    1.2875   52.5321 C   0  0  0  0  0  0  0  0  0  0  0  0
   19.6990    2.5357   53.0999 C   0  0  0  0  0  0  0  0  0  0  0  0
   20.5330    3.6352   53.2295 C   0  0  0  0  0  0  0  0  0  0  0  0
   19.9981    4.7851   53.7623 C   0  0  0  0  0  0  0  0  0  0  0  0
   18.6847    4.7838   54.1330 C   0  0  0  0  0  0  0  0  0  0  0  0
   17.8563    3.6865   54.0026 C   0  0  0  0  0  0  0  0  0  0  0  0
   16.4273    3.6931   54.4083 C   0  0  0  0  0  0  0  0  0  0  0  0
   18.4053    2.5763   53.4788 N   0  0  0  0  0  0  0  0  0  0  0  0
   21.4575    9.4454   53.2972 C   0  0  0  0  0  0  0  0  0  0  0  0
   21.4598   10.4475   54.2866 C   0  0  0  0  0  0  0  0  0  0  0  0
   21.4231   11.7724   53.9362 C   0  0  0  0  0  0  0  0  0  0  0  0
   21.3826   12.2057   52.6323 C   0  0  0  0  0  0  0  0  0  0  0  0
   21.3810   11.2313   51.6483 C   0  0  0  0  0  0  0  0  0  0  0  0
   21.3430   11.5429   50.3379 F   0  0  0  0  0  0  0  0  0  0  0  0
   21.4190    9.8973   52.0055 C   0  0  0  0  0  0  0  0  0  0  0  0
   21.3441   13.5383   52.2575 O   0  0  0  0  0  0  0  0  0  0  0  0
   21.2365   13.9802   50.9313 C   0  0  0  0  0  0  0  0  0  0  0  0
   22.3763   14.6350   50.5755 F   0  0  0  0  0  0  0  0  0  0  0  0
   20.1265   14.8123   50.7776 F   0  0  0  0  0  0  0  0  0  0  0  0
   21.0165   12.8521   50.1350 F   0  0  0  0  0  0  0  0  0  0  0  0
 11 12  1  0  0  0
 12 13  2  0  0  0
 13 14  1  0  0  0
 14 15  2  0  0  0
 15 16  1  0  0  0
 16 17  1  0  0  0
 16 18  2  0  0  0
 14  1  1  0  0  0
  1  2  1  0  0  0
  2  3  2  0  0  0
  3 19  1  0  0  0
 19 20  2  0  0  0
 20 21  1  0  0  0
 21 22  2  0  0  0
 22 26  1  0  0  0
 26 27  1  0  0  0
 27 28  1  0  0  0
 27 29  1  0  0  0
 27 30  1  0  0  0
 22 23  1  0  0  0
 23 24  1  0  0  0
 23 25  2  0  0  0
  3  4  1  0  0  0
  4  5  1  0  0  0
  5  6  1  0  0  0
  6  7  1  0  0  0
  7  8  1  0  0  0
  8  9  1  0  0  0
  9 10  1  0  0  0
 18 12  1  0  0  0
 10  1  2  0  0  0
 25 19  1  0  0  0
 10  4  1  0  0  0
M  END
> <minimizedAffinity>
35.22894

> <CNNscore>
0.4997533560

> <CNNaffinity>
6.4565773010

> <CNN_VS>
3.2266962528

> <CNNaffinity_variance>
0.5249003172

$$$$
[H]c1c([H])c(-c2nc(-c3c([H])c(C([H])([H])[H])nc(C([H])([H])[H])c3[H])c3n2C([H])([H])C([H])([H])OC([H])([H])C3([H])[H])c([H])c(F)c1OC(F)(F)F


 30 33  0  0  0  0  0  0  0  0999 V2000
   21.0119    6.0772   53.7826 C   0  0  0  0  0  0  0  0  0  0  0  0
   20.6556    7.2679   53.2969 N   0  0  0  0  0  0  0  0  0  0  0  0
   21.6159    8.2129   53.5691 C   0  0  0  0  0  0  0  0  0  0  0  0
   22.5623    7.5509   54.2286 N   0  0  0  0  0  0  0  0  0  0  0  0
   23.8145    8.1231   54.6434 C   0  0  0  0  0  0  0  0  0  0  0  0
   24.9474    7.1615   54.2791 C   0  0  0  0  0  0  0  0  0  0  0  0
   25.0332    6.0549   55.0639 O   0  0  0  0  0  0  0  0  0  0  0  0
   24.2956    4.9823   54.5323 C   0  0  0  0  0  0  0  0  0  0  0  0
   22.8989    5.1478   55.0854 C   0  0  0  0  0  0  0  0  0  0  0  0
   22.2256    6.2402   54.3837 C   0  0  0  0  0  0  0  0  0  0  0  0
   16.5829    4.0370   54.1943 C   0  0  0  0  0  0  0  0  0  0  0  0
   18.0074    3.9237   53.8282 C   0  0  0  0  0  0  0  0  0  0  0  0
   18.8313    5.0278   53.9809 C   0  0  0  0  0  0  0  0  0  0  0  0
   20.1548    4.8920   53.6313 C   0  0  0  0  0  0  0  0  0  0  0  0
   20.5845    3.6872   53.1557 C   0  0  0  0  0  0  0  0  0  0  0  0
   19.7610    2.5889   53.0047 C   0  0  0  0  0  0  0  0  0  0  0  0
   20.2364    1.2805   52.4865 C   0  0  0  0  0  0  0  0  0  0  0  0
   18.4724    2.7499   53.3543 N   0  0  0  0  0  0  0  0  0  0  0  0
   21.4635    9.5928   53.1269 C   0  0  0  0  0  0  0  0  0  0  0  0
   21.4888   10.6172   54.0930 C   0  0  0  0  0  0  0  0  0  0  0  0
   21.4184   11.9331   53.7149 C   0  0  0  0  0  0  0  0  0  0  0  0
   21.3212   12.3359   52.4043 C   0  0  0  0  0  0  0  0  0  0  0  0
   21.2964   11.3394   51.4429 C   0  0  0  0  0  0  0  0  0  0  0  0
   21.2032   11.6205   50.1284 F   0  0  0  0  0  0  0  0  0  0  0  0
   21.3684   10.0145   51.8280 C   0  0  0  0  0  0  0  0  0  0  0  0
   21.2480   13.6589   52.0018 O   0  0  0  0  0  0  0  0  0  0  0  0
   21.0664   14.0686   50.6733 C   0  0  0  0  0  0  0  0  0  0  0  0
   22.1406   14.8033   50.2724 F   0  0  0  0  0  0  0  0  0  0  0  0
   19.8909   14.8098   50.5424 F   0  0  0  0  0  0  0  0  0  0  0  0
   20.9108   12.9135   49.9008 F   0  0  0  0  0  0  0  0  0  0  0  0
 11 12  1  0  0  0
 12 13  2  0  0  0
 13 14  1  0  0  0
 14 15  2  0  0  0
 15 16  1  0  0  0
 16 17  1  0  0  0
 16 18  2  0  0  0
 14  1  1  0  0  0
  1  2  1  0  0  0
  2  3  2  0  0  0
  3 19  1  0  0  0
 19 20  2  0  0  0
 20 21  1  0  0  0
 21 22  2  0  0  0
 22 26  1  0  0  0
 26 27  1  0  0  0
 27 28  1  0  0  0
 27 29  1  0  0  0
 27 30  1  0  0  0
 22 23  1  0  0  0
 23 24  1  0  0  0
 23 25  2  0  0  0
  3  4  1  0  0  0
  4  5  1  0  0  0
  5  6  1  0  0  0
  6  7  1  0  0  0
  7  8  1  0  0  0
  8  9  1  0  0  0
  9 10  1  0  0  0
 18 12  1  0  0  0
 10  1  2  0  0  0
 25 19  1  0  0  0
 10  4  1  0  0  0
M  END
> <minimizedAffinity>
33.30545

> <CNNscore>
0.4927421510

> <CNNaffinity>
6.4140143394

> <CNN_VS>
3.1604552269

> <CNNaffinity_variance>
0.5110810399

$$$$
[H]c1c([H])c(-c2nc(-c3c([H])c(C([H])([H])[H])nc(C([H])([H])[H])c3[H])c3n2C([H])([H])C([H])([H])OC([H])([H])C3([H])[H])c([H])c(F)c1OC(F)(F)F


 30 33  0  0  0  0  0  0  0  0999 V2000
   24.0641    8.6268   54.8443 C   0  0  0  0  0  0  0  0  0  0  0  0
   23.3863    7.5014   54.6104 N   0  0  0  0  0  0  0  0  0  0  0  0
   22.0551    7.7692   54.3968 C   0  0  0  0  0  0  0  0  0  0  0  0
   21.9563    9.0911   54.5043 N   0  0  0  0  0  0  0  0  0  0  0  0
   20.7498    9.8370   54.2682 C   0  0  0  0  0  0  0  0  0  0  0  0
   21.0741   11.0439   53.3856 C   0  0  0  0  0  0  0  0  0  0  0  0
   21.7390   12.0497   54.0135 O   0  0  0  0  0  0  0  0  0  0  0  0
   23.1325   11.9078   53.8904 C   0  0  0  0  0  0  0  0  0  0  0  0
   23.5477   11.0373   55.0540 C   0  0  0  0  0  0  0  0  0  0  0  0
   23.1659    9.6517   54.7836 C   0  0  0  0  0  0  0  0  0  0  0  0
   28.5742    7.3859   53.4064 C   0  0  0  0  0  0  0  0  0  0  0  0
   27.6831    8.0186   54.3972 C   0  0  0  0  0  0  0  0  0  0  0  0
   26.3161    8.0204   54.1684 C   0  0  0  0  0  0  0  0  0  0  0  0
   25.5103    8.6177   55.1099 C   0  0  0  0  0  0  0  0  0  0  0  0
   26.0940    9.1734   56.2112 C   0  0  0  0  0  0  0  0  0  0  0  0
   27.4565    9.1700   56.4363 C   0  0  0  0  0  0  0  0  0  0  0  0
   28.0843    9.7769   57.6380 C   0  0  0  0  0  0  0  0  0  0  0  0
   28.2200    8.5792   55.5000 N   0  0  0  0  0  0  0  0  0  0  0  0
   21.1078    6.7013   54.1049 C   0  0  0  0  0  0  0  0  0  0  0  0
   19.7362    7.0145   54.0447 C   0  0  0  0  0  0  0  0  0  0  0  0
   18.8170    6.0556   53.7052 C   0  0  0  0  0  0  0  0  0  0  0  0
   19.1577    4.7576   53.4078 C   0  0  0  0  0  0  0  0  0  0  0  0
   20.5035    4.4352   53.4618 C   0  0  0  0  0  0  0  0  0  0  0  0
   20.9494    3.1932   53.1894 F   0  0  0  0  0  0  0  0  0  0  0  0
   21.4267    5.4046   53.8034 C   0  0  0  0  0  0  0  0  0  0  0  0
   18.2452    3.7744   53.0638 O   0  0  0  0  0  0  0  0  0  0  0  0
   17.0657    3.5117   53.7747 C   0  0  0  0  0  0  0  0  0  0  0  0
   16.4641    2.4015   53.2648 F   0  0  0  0  0  0  0  0  0  0  0  0
   16.2014    4.6061   53.7171 F   0  0  0  0  0  0  0  0  0  0  0  0
   17.4200    3.3394   55.1164 F   0  0  0  0  0  0  0  0  0  0  0  0
 11 12  1  0  0  0
 12 13  2  0  0  0
 13 14  1  0  0  0
 14 15  2  0  0  0
 15 16  1  0  0  0
 16 17  1  0  0  0
 16 18  2  0  0  0
 14  1  1  0  0  0
  1  2  1  0  0  0
  2  3  2  0  0  0
  3 19  1  0  0  0
 19 20  2  0  0  0
 20 21  1  0  0  0
 21 22  2  0  0  0
 22 26  1  0  0  0
 26 27  1  0  0  0
 27 28  1  0  0  0
 27 29  1  0  0  0
 27 30  1  0  0  0
 22 23  1  0  0  0
 23 24  1  0  0  0
 23 25  2  0  0  0
  3  4  1  0  0  0
  4  5  1  0  0  0
  5  6  1  0  0  0
  6  7  1  0  0  0
  7  8  1  0  0  0
  8  9  1  0  0  0
  9 10  1  0  0  0
 18 12  1  0  0  0
 10  1  2  0  0  0
 25 19  1  0  0  0
 10  4  1  0  0  0
M  END
> <minimizedAffinity>
33.06902

> <CNNscore>
0.4737918377

> <CNNaffinity>
6.2292528152

> <CNN_VS>
2.9513690472

> <CNNaffinity_variance>
0.4064776003

$$$$
[H]c1c([H])c(-c2nc(-c3c([H])c(C([H])([H])[H])nc(C([H])([H])[H])c3[H])c3n2C([H])([H])C([H])([H])OC([H])([H])C3([H])[H])c([H])c(F)c1OC(F)(F)F


 30 33  0  0  0  0  0  0  0  0999 V2000
   24.0619    8.4651   54.7569 C   0  0  0  0  0  0  0  0  0  0  0  0
   23.3704    7.3541   54.4958 N   0  0  0  0  0  0  0  0  0  0  0  0
   22.0271    7.6279   54.3953 C   0  0  0  0  0  0  0  0  0  0  0  0
   21.9347    8.9390   54.5988 N   0  0  0  0  0  0  0  0  0  0  0  0
   20.7138    9.6919   54.4994 C   0  0  0  0  0  0  0  0  0  0  0  0
   20.9735   10.9575   53.6798 C   0  0  0  0  0  0  0  0  0  0  0  0
   21.6801   11.9226   54.3258 O   0  0  0  0  0  0  0  0  0  0  0  0
   23.0615   11.7974   54.0953 C   0  0  0  0  0  0  0  0  0  0  0  0
   23.5590   10.8529   55.1652 C   0  0  0  0  0  0  0  0  0  0  0  0
   23.1605    9.4865   54.8292 C   0  0  0  0  0  0  0  0  0  0  0  0
   28.0025    9.7880   57.3394 C   0  0  0  0  0  0  0  0  0  0  0  0
   27.4160    9.0868   56.1817 C   0  0  0  0  0  0  0  0  0  0  0  0
   26.0412    9.1093   56.0071 C   0  0  0  0  0  0  0  0  0  0  0  0
   25.5232    8.4466   54.9186 C   0  0  0  0  0  0  0  0  0  0  0  0
   26.3829    7.8063   54.0740 C   0  0  0  0  0  0  0  0  0  0  0  0
   27.7524    7.7857   54.2507 C   0  0  0  0  0  0  0  0  0  0  0  0
   28.6817    7.0864   53.3265 C   0  0  0  0  0  0  0  0  0  0  0  0
   28.2312    8.4416   55.3226 N   0  0  0  0  0  0  0  0  0  0  0  0
   21.0627    6.5766   54.0994 C   0  0  0  0  0  0  0  0  0  0  0  0
   19.6949    6.9089   54.0562 C   0  0  0  0  0  0  0  0  0  0  0  0
   18.7597    5.9668   53.7137 C   0  0  0  0  0  0  0  0  0  0  0  0
   19.0799    4.6681   53.3972 C   0  0  0  0  0  0  0  0  0  0  0  0
   20.4216    4.3269   53.4343 C   0  0  0  0  0  0  0  0  0  0  0  0
   20.8480    3.0825   53.1425 F   0  0  0  0  0  0  0  0  0  0  0  0
   21.3610    5.2795   53.7790 C   0  0  0  0  0  0  0  0  0  0  0  0
   18.1509    3.7016   53.0499 O   0  0  0  0  0  0  0  0  0  0  0  0
   16.9433    3.4901   53.7301 C   0  0  0  0  0  0  0  0  0  0  0  0
   16.3394    2.3688   53.2480 F   0  0  0  0  0  0  0  0  0  0  0  0
   16.1015    4.5952   53.5951 F   0  0  0  0  0  0  0  0  0  0  0  0
   17.2486    3.3709   55.0894 F   0  0  0  0  0  0  0  0  0  0  0  0
 11 12  1  0  0  0
 12 13  2  0  0  0
 13 14  1  0  0  0
 14 15  2  0  0  0
 15 16  1  0  0  0
 16 17  1  0  0  0
 16 18  2  0  0  0
 14  1  1  0  0  0
  1  2  1  0  0  0
  2  3  2  0  0  0
  3 19  1  0  0  0
 19 20  2  0  0  0
 20 21  1  0  0  0
 21 22  2  0  0  0
 22 26  1  0  0  0
 26 27  1  0  0  0
 27 28  1  0  0  0
 27 29  1  0  0  0
 27 30  1  0  0  0
 22 23  1  0  0  0
 23 24  1  0  0  0
 23 25  2  0  0  0
  3  4  1  0  0  0
  4  5  1  0  0  0
  5  6  1  0  0  0
  6  7  1  0  0  0
  7  8  1  0  0  0
  8  9  1  0  0  0
  9 10  1  0  0  0
 18 12  1  0  0  0
 10  1  2  0  0  0
 25 19  1  0  0  0
 10  4  1  0  0  0
M  END
> <minimizedAffinity>
32.73245

> <CNNscore>
0.4733055234

> <CNNaffinity>
6.2367906570

> <CNN_VS>
2.9519073963

> <CNNaffinity_variance>
0.4391697049

$$$$
[H]c1c([H])c(-c2nc(-c3c([H])c(C([H])([H])[H])nc(C([H])([H])[H])c3[H])c3n2C([H])([H])C([H])([H])OC([H])([H])C3([H])[H])c([H])c(F)c1OC(F)(F)F


 30 33  0  0  0  0  0  0  0  0999 V2000
   24.6423    8.2458   54.1529 C   0  0  0  0  0  0  0  0  0  0  0  0
   24.1400    9.2347   53.4109 N   0  0  0  0  0  0  0  0  0  0  0  0
   22.8613    8.9375   53.0034 C   0  0  0  0  0  0  0  0  0  0  0  0
   22.6100    7.7418   53.5286 N   0  0  0  0  0  0  0  0  0  0  0  0
   21.3449    7.0644   53.4370 C   0  0  0  0  0  0  0  0  0  0  0  0
   20.9686    6.5217   54.8171 C   0  0  0  0  0  0  0  0  0  0  0  0
   21.6798    5.4347   55.2179 O   0  0  0  0  0  0  0  0  0  0  0  0
   22.8193    5.8022   55.9552 C   0  0  0  0  0  0  0  0  0  0  0  0
   23.9067    6.0140   54.9271 C   0  0  0  0  0  0  0  0  0  0  0  0
   23.6798    7.2826   54.2357 C   0  0  0  0  0  0  0  0  0  0  0  0
   27.6176    9.6809   57.7635 C   0  0  0  0  0  0  0  0  0  0  0  0
   27.4236    9.0039   56.4673 C   0  0  0  0  0  0  0  0  0  0  0  0
   26.1511    8.9488   55.9207 C   0  0  0  0  0  0  0  0  0  0  0  0
   26.0011    8.3110   54.7111 C   0  0  0  0  0  0  0  0  0  0  0  0
   27.1040    7.7697   54.1170 C   0  0  0  0  0  0  0  0  0  0  0  0
   28.3707    7.8263   54.6642 C   0  0  0  0  0  0  0  0  0  0  0  0
   29.5664    7.2347   54.0110 C   0  0  0  0  0  0  0  0  0  0  0  0
   28.4881    8.4557   55.8468 N   0  0  0  0  0  0  0  0  0  0  0  0
   22.0921    9.8708   52.1908 C   0  0  0  0  0  0  0  0  0  0  0  0
   21.1236    9.3563   51.3075 C   0  0  0  0  0  0  0  0  0  0  0  0
   20.3298   10.2009   50.5755 C   0  0  0  0  0  0  0  0  0  0  0  0
   20.4191   11.5707   50.6486 C   0  0  0  0  0  0  0  0  0  0  0  0
   21.3665   12.0912   51.5143 C   0  0  0  0  0  0  0  0  0  0  0  0
   21.5400   13.4189   51.6648 F   0  0  0  0  0  0  0  0  0  0  0  0
   22.1639   11.2366   52.2508 C   0  0  0  0  0  0  0  0  0  0  0  0
   19.6279   12.4408   49.9174 O   0  0  0  0  0  0  0  0  0  0  0  0
   20.1290   13.4821   49.1236 C   0  0  0  0  0  0  0  0  0  0  0  0
   19.9705   14.6678   49.7744 F   0  0  0  0  0  0  0  0  0  0  0  0
   19.4833   13.5133   47.8866 F   0  0  0  0  0  0  0  0  0  0  0  0
   21.4765   13.2028   48.8757 F   0  0  0  0  0  0  0  0  0  0  0  0
 11 12  1  0  0  0
 12 13  2  0  0  0
 13 14  1  0  0  0
 14 15  2  0  0  0
 15 16  1  0  0  0
 16 17  1  0  0  0
 16 18  2  0  0  0
 14  1  1  0  0  0
  1  2  1  0  0  0
  2  3  2  0  0  0
  3 19  1  0  0  0
 19 20  2  0  0  0
 20 21  1  0  0  0
 21 22  2  0  0  0
 22 26  1  0  0  0
 26 27  1  0  0  0
 27 28  1  0  0  0
 27 29  1  0  0  0
 27 30  1  0  0  0
 22 23  1  0  0  0
 23 24  1  0  0  0
 23 25  2  0  0  0
  3  4  1  0  0  0
  4  5  1  0  0  0
  5  6  1  0  0  0
  6  7  1  0  0  0
  7  8  1  0  0  0
  8  9  1  0  0  0
  9 10  1  0  0  0
 18 12  1  0  0  0
 10  1  2  0  0  0
 25 19  1  0  0  0
 10  4  1  0  0  0
M  END
> <minimizedAffinity>
42.65406

> <CNNscore>
0.4054157436

> <CNNaffinity>
5.7760124207

> <CNN_VS>
2.3416864872

> <CNNaffinity_variance>
0.2105383873

$$$$
[H]c1c([H])c(-c2nc(-c3c([H])c(C([H])([H])[H])nc(C([H])([H])[H])c3[H])c3n2C([H])([H])C([H])([H])OC([H])([H])C3([H])[H])c([H])c(F)c1OC(F)(F)F


 30 33  0  0  0  0  0  0  0  0999 V2000
   23.3117    8.2370   53.9904 C   0  0  0  0  0  0  0  0  0  0  0  0
   22.6422    7.0879   54.0999 N   0  0  0  0  0  0  0  0  0  0  0  0
   21.3575    7.2254   53.6306 C   0  0  0  0  0  0  0  0  0  0  0  0
   21.2788    8.4914   53.2309 N   0  0  0  0  0  0  0  0  0  0  0  0
   20.1328    9.0680   52.5816 C   0  0  0  0  0  0  0  0  0  0  0  0
   20.6001    9.8738   51.3678 C   0  0  0  0  0  0  0  0  0  0  0  0
   21.2023   11.0562   51.6633 O   0  0  0  0  0  0  0  0  0  0  0  0
   22.5959   10.9136   51.7844 C   0  0  0  0  0  0  0  0  0  0  0  0
   22.8332   10.5423   53.2301 C   0  0  0  0  0  0  0  0  0  0  0  0
   22.4553    9.1452   53.4403 C   0  0  0  0  0  0  0  0  0  0  0  0
   26.5407    9.9509   57.2438 C   0  0  0  0  0  0  0  0  0  0  0  0
   26.2562    9.1902   56.0124 C   0  0  0  0  0  0  0  0  0  0  0  0
   24.9445    9.0774   55.5789 C   0  0  0  0  0  0  0  0  0  0  0  0
   24.7101    8.3621   54.4275 C   0  0  0  0  0  0  0  0  0  0  0  0
   25.7725    7.8048   53.7772 C   0  0  0  0  0  0  0  0  0  0  0  0
   27.0784    7.9189   54.2116 C   0  0  0  0  0  0  0  0  0  0  0  0
   28.2296    7.3093   53.4978 C   0  0  0  0  0  0  0  0  0  0  0  0
   27.2784    8.6236   55.3395 N   0  0  0  0  0  0  0  0  0  0  0  0
   20.4299    6.1017   53.6303 C   0  0  0  0  0  0  0  0  0  0  0  0
   19.0793    6.3422   53.9484 C   0  0  0  0  0  0  0  0  0  0  0  0
   18.1593    5.3274   53.8928 C   0  0  0  0  0  0  0  0  0  0  0  0
   18.4790    4.0398   53.5332 C   0  0  0  0  0  0  0  0  0  0  0  0
   19.8036    3.7886   53.2165 C   0  0  0  0  0  0  0  0  0  0  0  0
   20.2280    2.5631   52.8508 F   0  0  0  0  0  0  0  0  0  0  0  0
   20.7275    4.8142   53.2729 C   0  0  0  0  0  0  0  0  0  0  0  0
   17.5655    3.0009   53.4719 O   0  0  0  0  0  0  0  0  0  0  0  0
   16.1992    3.1363   53.7556 C   0  0  0  0  0  0  0  0  0  0  0  0
   15.5366    2.0180   53.3497 F   0  0  0  0  0  0  0  0  0  0  0  0
   15.6758    4.2688   53.1297 F   0  0  0  0  0  0  0  0  0  0  0  0
   16.0800    3.3379   55.1341 F   0  0  0  0  0  0  0  0  0  0  0  0
 11 12  1  0  0  0
 12 13  2  0  0  0
 13 14  1  0  0  0
 14 15  2  0  0  0
 15 16  1  0  0  0
 16 17  1  0  0  0
 16 18  2  0  0  0
 14  1  1  0  0  0
  1  2  1  0  0  0
  2  3  2  0  0  0
  3 19  1  0  0  0
 19 20  2  0  0  0
 20 21  1  0  0  0
 21 22  2  0  0  0
 22 26  1  0  0  0
 26 27  1  0  0  0
 27 28  1  0  0  0
 27 29  1  0  0  0
 27 30  1  0  0  0
 22 23  1  0  0  0
 23 24  1  0  0  0
 23 25  2  0  0  0
  3  4  1  0  0  0
  4  5  1  0  0  0
  5  6  1  0  0  0
  6  7  1  0  0  0
  7  8  1  0  0  0
  8  9  1  0  0  0
  9 10  1  0  0  0
 18 12  1  0  0  0
 10  1  2  0  0  0
 25 19  1  0  0  0
 10  4  1  0  0  0
M  END
> <minimizedAffinity>
32.81571

> <CNNscore>
0.3991822898

> <CNNaffinity>
6.0565624237

> <CNN_VS>
2.4176723957

> <CNNaffinity_variance>
0.5029126406

$$$$
[H]c1c([H])c(-c2nc(-c3c([H])c(C([H])([H])[H])nc(C([H])([H])[H])c3[H])c3n2C([H])([H])[C@@]([H])(C([H])([H])[H])OC([H])([H])C3([H])[H])c([H])c(C([H])([H])[H])c1F


 27 30  0  0  0  0  0  0  0  0999 V2000
   22.0111   11.9655   53.0927 C   0  0  0  0  0  0  0  0  0  0  0  0
   21.7127   10.5015   53.1319 C   0  0  0  0  0  0  0  0  0  0  0  0
   22.7832    9.6729   52.4403 C   0  0  0  0  0  0  0  0  0  0  0  0
   22.7118    8.3301   52.9741 N   0  0  0  0  0  0  0  0  0  0  0  0
   21.6067    7.5010   52.7832 C   0  0  0  0  0  0  0  0  0  0  0  0
   20.3710    7.9511   52.0873 C   0  0  0  0  0  0  0  0  0  0  0  0
   19.8569    9.1199   52.9285 C   0  0  0  0  0  0  0  0  0  0  0  0
   20.4764   10.2699   52.5170 O   0  0  0  0  0  0  0  0  0  0  0  0
   21.9024    6.2994   53.3521 C   0  0  0  0  0  0  0  0  0  0  0  0
   23.1297    6.4077   53.8617 N   0  0  0  0  0  0  0  0  0  0  0  0
   23.6444    7.6748   53.6338 C   0  0  0  0  0  0  0  0  0  0  0  0
   24.9819    8.0656   54.0581 C   0  0  0  0  0  0  0  0  0  0  0  0
   26.0553    7.8911   53.1634 C   0  0  0  0  0  0  0  0  0  0  0  0
   27.3569    8.1634   53.4857 C   0  0  0  0  0  0  0  0  0  0  0  0
   27.6708    8.6332   54.7393 C   0  0  0  0  0  0  0  0  0  0  0  0
   28.9510    8.9196   55.1076 F   0  0  0  0  0  0  0  0  0  0  0  0
   26.6594    8.8192   55.6487 C   0  0  0  0  0  0  0  0  0  0  0  0
   26.9764    9.3267   57.0131 C   0  0  0  0  0  0  0  0  0  0  0  0
   25.3397    8.5297   55.2856 C   0  0  0  0  0  0  0  0  0  0  0  0
   21.0085    5.1446   53.3613 C   0  0  0  0  0  0  0  0  0  0  0  0
   19.7008    5.3302   53.7801 C   0  0  0  0  0  0  0  0  0  0  0  0
   18.7970    4.3160   53.8062 C   0  0  0  0  0  0  0  0  0  0  0  0
   17.4050    4.5758   54.2663 C   0  0  0  0  0  0  0  0  0  0  0  0
   19.1948    3.0973   53.4112 N   0  0  0  0  0  0  0  0  0  0  0  0
   20.4333    2.8446   52.9967 C   0  0  0  0  0  0  0  0  0  0  0  0
   20.8868    1.5004   52.5567 C   0  0  0  0  0  0  0  0  0  0  0  0
   21.3575    3.8752   52.9683 C   0  0  0  0  0  0  0  0  0  0  0  0
  1  2  1  0  0  0
  2  3  1  0  0  0
  3  4  1  0  0  0
  4  5  1  0  0  0
  5  6  1  0  0  0
  6  7  1  0  0  0
  7  8  1  0  0  0
  5  9  2  0  0  0
  9 10  1  0  0  0
 10 11  2  0  0  0
 11 12  1  0  0  0
 12 13  2  0  0  0
 13 14  1  0  0  0
 14 15  2  0  0  0
 15 16  1  0  0  0
 15 17  1  0  0  0
 17 18  1  0  0  0
 17 19  2  0  0  0
  9 20  1  0  0  0
 20 21  2  0  0  0
 21 22  1  0  0  0
 22 23  1  0  0  0
 22 24  2  0  0  0
 24 25  1  0  0  0
 25 26  1  0  0  0
 25 27  2  0  0  0
  8  2  1  0  0  0
 19 12  1  0  0  0
 27 20  1  0  0  0
 11  4  1  0  0  0
M  END
> <minimizedAffinity>
31.42109

> <CNNscore>
0.5321960449

> <CNNaffinity>
6.4567155838

> <CNN_VS>
3.4362385273

> <CNNaffinity_variance>
0.5728781223

$$$$
[H]c1c([H])c(-c2nc(-c3c([H])c(C([H])([H])[H])nc(C([H])([H])[H])c3[H])c3n2C([H])([H])[C@@]([H])(C([H])([H])[H])OC([H])([H])C3([H])[H])c([H])c(C([H])([H])[H])c1F


 27 30  0  0  0  0  0  0  0  0999 V2000
   21.9569   11.7130   51.9616 C   0  0  0  0  0  0  0  0  0  0  0  0
   21.5521   10.3014   52.2398 C   0  0  0  0  0  0  0  0  0  0  0  0
   22.7001    9.3221   52.0559 C   0  0  0  0  0  0  0  0  0  0  0  0
   22.3968    8.1396   52.8322 N   0  0  0  0  0  0  0  0  0  0  0  0
   21.3195    7.3030   52.5415 C   0  0  0  0  0  0  0  0  0  0  0  0
   20.3387    7.5963   51.4617 C   0  0  0  0  0  0  0  0  0  0  0  0
   19.7138    8.9340   51.8592 C   0  0  0  0  0  0  0  0  0  0  0  0
   20.5002    9.9501   51.3852 O   0  0  0  0  0  0  0  0  0  0  0  0
   21.3713    6.2612   53.4173 C   0  0  0  0  0  0  0  0  0  0  0  0
   22.4324    6.4684   54.1975 N   0  0  0  0  0  0  0  0  0  0  0  0
   23.0796    7.6422   53.8426 C   0  0  0  0  0  0  0  0  0  0  0  0
   24.2893    8.1032   54.5102 C   0  0  0  0  0  0  0  0  0  0  0  0
   24.1668    8.9715   55.6121 C   0  0  0  0  0  0  0  0  0  0  0  0
   25.2389    9.5138   56.2670 C   0  0  0  0  0  0  0  0  0  0  0  0
   26.5171    9.2182   55.8554 C   0  0  0  0  0  0  0  0  0  0  0  0
   27.6164    9.7323   56.4752 F   0  0  0  0  0  0  0  0  0  0  0  0
   26.6896    8.3771   54.7843 C   0  0  0  0  0  0  0  0  0  0  0  0
   28.0656    8.0435   54.3207 C   0  0  0  0  0  0  0  0  0  0  0  0
   25.5709    7.8411   54.1375 C   0  0  0  0  0  0  0  0  0  0  0  0
   20.4227    5.1512   53.4417 C   0  0  0  0  0  0  0  0  0  0  0  0
   20.8588    3.9058   53.0188 C   0  0  0  0  0  0  0  0  0  0  0  0
   20.0493    2.8146   53.0222 C   0  0  0  0  0  0  0  0  0  0  0  0
   20.5739    1.5015   52.5559 C   0  0  0  0  0  0  0  0  0  0  0  0
   18.7867    2.9588   53.4516 N   0  0  0  0  0  0  0  0  0  0  0  0
   18.2989    4.1227   53.8723 C   0  0  0  0  0  0  0  0  0  0  0  0
   16.9034    4.2963   54.3502 C   0  0  0  0  0  0  0  0  0  0  0  0
   19.1204    5.2374   53.8707 C   0  0  0  0  0  0  0  0  0  0  0  0
  1  2  1  0  0  0
  2  3  1  0  0  0
  3  4  1  0  0  0
  4  5  1  0  0  0
  5  6  1  0  0  0
  6  7  1  0  0  0
  7  8  1  0  0  0
  5  9  2  0  0  0
  9 10  1  0  0  0
 10 11  2  0  0  0
 11 12  1  0  0  0
 12 13  2  0  0  0
 13 14  1  0  0  0
 14 15  2  0  0  0
 15 16  1  0  0  0
 15 17  1  0  0  0
 17 18  1  0  0  0
 17 19  2  0  0  0
  9 20  1  0  0  0
 20 21  2  0  0  0
 21 22  1  0  0  0
 22 23  1  0  0  0
 22 24  2  0  0  0
 24 25  1  0  0  0
 25 26  1  0  0  0
 25 27  2  0  0  0
  8  2  1  0  0  0
 19 12  1  0  0  0
 27 20  1  0  0  0
 11  4  1  0  0  0
M  END
> <minimizedAffinity>
26.50141

> <CNNscore>
0.5224993825

> <CNNaffinity>
6.5144834518

> <CNN_VS>
3.4038136005

> <CNNaffinity_variance>
0.5155700445

$$$$
[H]c1c([H])c(-c2nc(-c3c([H])c(C([H])([H])[H])nc(C([H])([H])[H])c3[H])c3n2C([H])([H])[C@@]([H])(C([H])([H])[H])OC([H])([H])C3([H])[H])c([H])c(C([H])([H])[H])c1F


 27 30  0  0  0  0  0  0  0  0999 V2000
   21.9510   11.7566   52.0695 C   0  0  0  0  0  0  0  0  0  0  0  0
   21.5762   10.3309   52.3164 C   0  0  0  0  0  0  0  0  0  0  0  0
   22.7432    9.3799   52.1053 C   0  0  0  0  0  0  0  0  0  0  0  0
   22.4674    8.1737   52.8550 N   0  0  0  0  0  0  0  0  0  0  0  0
   21.4061    7.3222   52.5490 C   0  0  0  0  0  0  0  0  0  0  0  0
   20.4149    7.6203   51.4802 C   0  0  0  0  0  0  0  0  0  0  0  0
   19.7646    8.9354   51.9111 C   0  0  0  0  0  0  0  0  0  0  0  0
   20.5281    9.9781   51.4579 O   0  0  0  0  0  0  0  0  0  0  0  0
   21.4830    6.2617   53.4002 C   0  0  0  0  0  0  0  0  0  0  0  0
   22.5430    6.4724   54.1809 N   0  0  0  0  0  0  0  0  0  0  0  0
   23.1646    7.6671   53.8509 C   0  0  0  0  0  0  0  0  0  0  0  0
   24.3675    8.1372   54.5244 C   0  0  0  0  0  0  0  0  0  0  0  0
   24.2333    9.0080   55.6229 C   0  0  0  0  0  0  0  0  0  0  0  0
   25.2982    9.5586   56.2825 C   0  0  0  0  0  0  0  0  0  0  0  0
   26.5807    9.2693   55.8796 C   0  0  0  0  0  0  0  0  0  0  0  0
   27.6731    9.7916   56.5044 F   0  0  0  0  0  0  0  0  0  0  0  0
   26.7645    8.4259   54.8121 C   0  0  0  0  0  0  0  0  0  0  0  0
   28.1452    8.0990   54.3578 C   0  0  0  0  0  0  0  0  0  0  0  0
   25.6528    7.8814   54.1602 C   0  0  0  0  0  0  0  0  0  0  0  0
   20.5573    5.1322   53.4024 C   0  0  0  0  0  0  0  0  0  0  0  0
   19.2576    5.3497   53.8304 C   0  0  0  0  0  0  0  0  0  0  0  0
   18.3261    4.3608   53.8512 C   0  0  0  0  0  0  0  0  0  0  0  0
   16.9443    4.6543   54.3218 C   0  0  0  0  0  0  0  0  0  0  0  0
   18.6876    3.1358   53.4413 N   0  0  0  0  0  0  0  0  0  0  0  0
   19.9163    2.8531   53.0171 C   0  0  0  0  0  0  0  0  0  0  0  0
   20.3298    1.5016   52.5607 C   0  0  0  0  0  0  0  0  0  0  0  0
   20.8687    3.8579   52.9942 C   0  0  0  0  0  0  0  0  0  0  0  0
  1  2  1  0  0  0
  2  3  1  0  0  0
  3  4  1  0  0  0
  4  5  1  0  0  0
  5  6  1  0  0  0
  6  7  1  0  0  0
  7  8  1  0  0  0
  5  9  2  0  0  0
  9 10  1  0  0  0
 10 11  2  0  0  0
 11 12  1  0  0  0
 12 13  2  0  0  0
 13 14  1  0  0  0
 14 15  2  0  0  0
 15 16  1  0  0  0
 15 17  1  0  0  0
 17 18  1  0  0  0
 17 19  2  0  0  0
  9 20  1  0  0  0
 20 21  2  0  0  0
 21 22  1  0  0  0
 22 23  1  0  0  0
 22 24  2  0  0  0
 24 25  1  0  0  0
 25 26  1  0  0  0
 25 27  2  0  0  0
  8  2  1  0  0  0
 19 12  1  0  0  0
 27 20  1  0  0  0
 11  4  1  0  0  0
M  END
> <minimizedAffinity>
27.24113

> <CNNscore>
0.5085336566

> <CNNaffinity>
6.4833879471

> <CNN_VS>
3.2970209122

> <CNNaffinity_variance>
0.5249041319

$$$$
[H]c1c([H])c(-c2nc(-c3c([H])c(C([H])([H])[H])nc(C([H])([H])[H])c3[H])c3n2C([H])([H])[C@@]([H])(C([H])([H])[H])OC([H])([H])C3([H])[H])c([H])c(C([H])([H])[H])c1F


 27 30  0  0  0  0  0  0  0  0999 V2000
   25.9608    8.6133   54.1203 C   0  0  0  0  0  0  0  0  0  0  0  0
   24.7131    7.7980   54.0090 C   0  0  0  0  0  0  0  0  0  0  0  0
   23.4978    8.5186   54.5697 C   0  0  0  0  0  0  0  0  0  0  0  0
   22.3224    7.9379   53.9579 N   0  0  0  0  0  0  0  0  0  0  0  0
   21.9366    6.6149   54.1725 C   0  0  0  0  0  0  0  0  0  0  0  0
   22.7428    5.6604   54.9805 C   0  0  0  0  0  0  0  0  0  0  0  0
   24.0852    5.5754   54.2535 C   0  0  0  0  0  0  0  0  0  0  0  0
   24.8936    6.5898   54.6930 O   0  0  0  0  0  0  0  0  0  0  0  0
   20.7623    6.4256   53.5089 C   0  0  0  0  0  0  0  0  0  0  0  0
   20.4618    7.5848   52.9226 N   0  0  0  0  0  0  0  0  0  0  0  0
   21.4324    8.5370   53.1941 C   0  0  0  0  0  0  0  0  0  0  0  0
   21.3470    9.9056   52.7029 C   0  0  0  0  0  0  0  0  0  0  0  0
   21.6056   10.1548   51.3412 C   0  0  0  0  0  0  0  0  0  0  0  0
   21.6169   11.4086   50.7934 C   0  0  0  0  0  0  0  0  0  0  0  0
   21.3674   12.5061   51.5833 C   0  0  0  0  0  0  0  0  0  0  0  0
   21.3666   13.7742   51.0847 F   0  0  0  0  0  0  0  0  0  0  0  0
   21.1108   12.3159   52.9184 C   0  0  0  0  0  0  0  0  0  0  0  0
   20.8384   13.4906   53.7933 C   0  0  0  0  0  0  0  0  0  0  0  0
   21.1079   11.0199   53.4453 C   0  0  0  0  0  0  0  0  0  0  0  0
   20.0147    5.1713   53.4888 C   0  0  0  0  0  0  0  0  0  0  0  0
   18.6934    5.1881   53.9056 C   0  0  0  0  0  0  0  0  0  0  0  0
   17.9190    4.0717   53.9055 C   0  0  0  0  0  0  0  0  0  0  0  0
   16.5048    4.1510   54.3649 C   0  0  0  0  0  0  0  0  0  0  0  0
   18.4620    2.9192   53.4858 N   0  0  0  0  0  0  0  0  0  0  0  0
   19.7227    2.8273   53.0715 C   0  0  0  0  0  0  0  0  0  0  0  0
   20.3363    1.5580   52.6043 C   0  0  0  0  0  0  0  0  0  0  0  0
   20.5155    3.9626   53.0697 C   0  0  0  0  0  0  0  0  0  0  0  0
  1  2  1  0  0  0
  2  3  1  0  0  0
  3  4  1  0  0  0
  4  5  1  0  0  0
  5  6  1  0  0  0
  6  7  1  0  0  0
  7  8  1  0  0  0
  5  9  2  0  0  0
  9 10  1  0  0  0
 10 11  2  0  0  0
 11 12  1  0  0  0
 12 13  2  0  0  0
 13 14  1  0  0  0
 14 15  2  0  0  0
 15 16  1  0  0  0
 15 17  1  0  0  0
 17 18  1  0  0  0
 17 19  2  0  0  0
  9 20  1  0  0  0
 20 21  2  0  0  0
 21 22  1  0  0  0
 22 23  1  0  0  0
 22 24  2  0  0  0
 24 25  1  0  0  0
 25 26  1  0  0  0
 25 27  2  0  0  0
  8  2  1  0  0  0
 19 12  1  0  0  0
 27 20  1  0  0  0
 11  4  1  0  0  0
M  END
> <minimizedAffinity>
30.07883

> <CNNscore>
0.4731819630

> <CNNaffinity>
6.3646707535

> <CNN_VS>
3.0116474628

> <CNNaffinity_variance>
0.4538050294

$$$$
[H]c1c([H])c(-c2nc(-c3c([H])c(C([H])([H])[H])nc(C([H])([H])[H])c3[H])c3n2C([H])([H])[C@@]([H])(C([H])([H])[H])OC([H])([H])C3([H])[H])c([H])c(C([H])([H])[H])c1F


 27 30  0  0  0  0  0  0  0  0999 V2000
   19.1636    8.9833   50.6267 C   0  0  0  0  0  0  0  0  0  0  0  0
   20.3964    8.8494   51.4610 C   0  0  0  0  0  0  0  0  0  0  0  0
   20.1052    8.2733   52.8373 C   0  0  0  0  0  0  0  0  0  0  0  0
   21.3319    7.6925   53.3383 N   0  0  0  0  0  0  0  0  0  0  0  0
   22.4619    8.4553   53.6321 C   0  0  0  0  0  0  0  0  0  0  0  0
   22.5354    9.9195   53.3781 C   0  0  0  0  0  0  0  0  0  0  0  0
   22.3354   10.0611   51.8688 C   0  0  0  0  0  0  0  0  0  0  0  0
   20.9931   10.1082   51.6009 O   0  0  0  0  0  0  0  0  0  0  0  0
   23.3978    7.6077   54.1428 C   0  0  0  0  0  0  0  0  0  0  0  0
   22.8504    6.3920   54.1515 N   0  0  0  0  0  0  0  0  0  0  0  0
   21.5593    6.4327   53.6475 C   0  0  0  0  0  0  0  0  0  0  0  0
   20.7122    5.2506   53.5653 C   0  0  0  0  0  0  0  0  0  0  0  0
   21.2281    4.0871   52.9626 C   0  0  0  0  0  0  0  0  0  0  0  0
   20.4953    2.9468   52.7759 C   0  0  0  0  0  0  0  0  0  0  0  0
   19.1835    2.8979   53.1852 C   0  0  0  0  0  0  0  0  0  0  0  0
   18.4132    1.7858   53.0223 F   0  0  0  0  0  0  0  0  0  0  0  0
   18.6334    4.0075   53.7775 C   0  0  0  0  0  0  0  0  0  0  0  0
   17.2137    3.9773   54.2282 C   0  0  0  0  0  0  0  0  0  0  0  0
   19.4115    5.1570   53.9520 C   0  0  0  0  0  0  0  0  0  0  0  0
   24.7277    8.0135   54.5893 C   0  0  0  0  0  0  0  0  0  0  0  0
   25.8273    7.5363   53.8943 C   0  0  0  0  0  0  0  0  0  0  0  0
   27.0997    7.8742   54.2303 C   0  0  0  0  0  0  0  0  0  0  0  0
   28.2424    7.3299   53.4460 C   0  0  0  0  0  0  0  0  0  0  0  0
   27.2866    8.6983   55.2720 N   0  0  0  0  0  0  0  0  0  0  0  0
   26.2796    9.1954   55.9851 C   0  0  0  0  0  0  0  0  0  0  0  0
   26.4724   10.1086   57.1405 C   0  0  0  0  0  0  0  0  0  0  0  0
   24.9813    8.8539   55.6462 C   0  0  0  0  0  0  0  0  0  0  0  0
  1  2  1  0  0  0
  2  3  1  0  0  0
  3  4  1  0  0  0
  4  5  1  0  0  0
  5  6  1  0  0  0
  6  7  1  0  0  0
  7  8  1  0  0  0
  5  9  2  0  0  0
  9 10  1  0  0  0
 10 11  2  0  0  0
 11 12  1  0  0  0
 12 13  2  0  0  0
 13 14  1  0  0  0
 14 15  2  0  0  0
 15 16  1  0  0  0
 15 17  1  0  0  0
 17 18  1  0  0  0
 17 19  2  0  0  0
  9 20  1  0  0  0
 20 21  2  0  0  0
 21 22  1  0  0  0
 22 23  1  0  0  0
 22 24  2  0  0  0
 24 25  1  0  0  0
 25 26  1  0  0  0
 25 27  2  0  0  0
  8  2  1  0  0  0
 19 12  1  0  0  0
 27 20  1  0  0  0
 11  4  1  0  0  0
M  END
> <minimizedAffinity>
34.88199

> <CNNscore>
0.4610313177

> <CNNaffinity>
6.1471085548

> <CNN_VS>
2.8340096474

> <CNNaffinity_variance>
0.5839805603

$$$$
[H]c1c([H])c(-c2nc(-c3c([H])c(C([H])([H])[H])nc(C([H])([H])[H])c3[H])c3n2C([H])([H])[C@@]([H])(C([H])([H])[H])OC([H])([H])C3([H])[H])c([H])c(C([H])([H])[H])c1F


 27 30  0  0  0  0  0  0  0  0999 V2000
   22.4833   11.7012   55.7869 C   0  0  0  0  0  0  0  0  0  0  0  0
   22.0282   10.3514   55.3342 C   0  0  0  0  0  0  0  0  0  0  0  0
   22.7967    9.8581   54.1189 C   0  0  0  0  0  0  0  0  0  0  0  0
   22.6921    8.4154   54.0897 N   0  0  0  0  0  0  0  0  0  0  0  0
   21.4815    7.7513   53.8934 C   0  0  0  0  0  0  0  0  0  0  0  0
   20.1798    8.4632   53.7807 C   0  0  0  0  0  0  0  0  0  0  0  0
   20.0243    9.1987   55.1122 C   0  0  0  0  0  0  0  0  0  0  0  0
   20.6629   10.4074   55.0294 O   0  0  0  0  0  0  0  0  0  0  0  0
   21.7562    6.4179   53.8525 C   0  0  0  0  0  0  0  0  0  0  0  0
   23.0730    6.2921   54.0189 N   0  0  0  0  0  0  0  0  0  0  0  0
   23.6683    7.5351   54.1714 C   0  0  0  0  0  0  0  0  0  0  0  0
   25.1053    7.7005   54.3427 C   0  0  0  0  0  0  0  0  0  0  0  0
   25.9635    6.6761   53.8986 C   0  0  0  0  0  0  0  0  0  0  0  0
   27.3206    6.7023   54.0710 C   0  0  0  0  0  0  0  0  0  0  0  0
   27.9122    7.7683   54.7069 C   0  0  0  0  0  0  0  0  0  0  0  0
   29.2589    7.8410   54.9018 F   0  0  0  0  0  0  0  0  0  0  0  0
   27.1182    8.7924   55.1598 C   0  0  0  0  0  0  0  0  0  0  0  0
   27.7375    9.9571   55.8522 C   0  0  0  0  0  0  0  0  0  0  0  0
   25.7337    8.7325   54.9672 C   0  0  0  0  0  0  0  0  0  0  0  0
   20.7572    5.3719   53.6508 C   0  0  0  0  0  0  0  0  0  0  0  0
   21.1935    4.1112   53.2764 C   0  0  0  0  0  0  0  0  0  0  0  0
   20.3359    3.0754   53.0820 C   0  0  0  0  0  0  0  0  0  0  0  0
   20.8634    1.7423   52.6800 C   0  0  0  0  0  0  0  0  0  0  0  0
   19.0242    3.2915   53.2614 N   0  0  0  0  0  0  0  0  0  0  0  0
   18.5330    4.4744   53.6205 C   0  0  0  0  0  0  0  0  0  0  0  0
   17.0834    4.7273   53.8224 C   0  0  0  0  0  0  0  0  0  0  0  0
   19.4033    5.5328   53.8198 C   0  0  0  0  0  0  0  0  0  0  0  0
  1  2  1  0  0  0
  2  3  1  0  0  0
  3  4  1  0  0  0
  4  5  1  0  0  0
  5  6  1  0  0  0
  6  7  1  0  0  0
  7  8  1  0  0  0
  5  9  2  0  0  0
  9 10  1  0  0  0
 10 11  2  0  0  0
 11 12  1  0  0  0
 12 13  2  0  0  0
 13 14  1  0  0  0
 14 15  2  0  0  0
 15 16  1  0  0  0
 15 17  1  0  0  0
 17 18  1  0  0  0
 17 19  2  0  0  0
  9 20  1  0  0  0
 20 21  2  0  0  0
 21 22  1  0  0  0
 22 23  1  0  0  0
 22 24  2  0  0  0
 24 25  1  0  0  0
 25 26  1  0  0  0
 25 27  2  0  0  0
  8  2  1  0  0  0
 19 12  1  0  0  0
 27 20  1  0  0  0
 11  4  1  0  0  0
M  END
> <minimizedAffinity>
39.05731

> <CNNscore>
0.4536330402

> <CNNaffinity>
6.1601247787

> <CNN_VS>
2.7944362164

> <CNNaffinity_variance>
0.8906098604

$$$$
[H]c1c([H])c(-c2nc(-c3c([H])c(C([H])([H])[H])nc(C([H])([H])[H])c3[H])c3n2C([H])([H])[C@@]([H])(C([H])([H])[H])OC([H])([H])C3([H])[H])c([H])c(C([H])([H])[H])c1F


 27 30  0  0  0  0  0  0  0  0999 V2000
   19.6394    5.9934   53.5333 C   0  0  0  0  0  0  0  0  0  0  0  0
   21.0134    6.4896   53.8494 C   0  0  0  0  0  0  0  0  0  0  0  0
   21.7282    7.0366   52.6244 C   0  0  0  0  0  0  0  0  0  0  0  0
   22.7557    7.9450   53.0852 N   0  0  0  0  0  0  0  0  0  0  0  0
   23.8536    7.5233   53.8348 C   0  0  0  0  0  0  0  0  0  0  0  0
   24.0229    6.1196   54.2983 C   0  0  0  0  0  0  0  0  0  0  0  0
   22.8050    5.8548   55.1840 C   0  0  0  0  0  0  0  0  0  0  0  0
   21.7638    5.4416   54.3960 O   0  0  0  0  0  0  0  0  0  0  0  0
   24.6468    8.6124   54.0341 C   0  0  0  0  0  0  0  0  0  0  0  0
   24.0473    9.6392   53.4311 N   0  0  0  0  0  0  0  0  0  0  0  0
   22.8618    9.2340   52.8369 C   0  0  0  0  0  0  0  0  0  0  0  0
   22.0116   10.1448   52.0825 C   0  0  0  0  0  0  0  0  0  0  0  0
   21.0854    9.6073   51.1680 C   0  0  0  0  0  0  0  0  0  0  0  0
   20.2882   10.3752   50.3637 C   0  0  0  0  0  0  0  0  0  0  0  0
   20.3684   11.7466   50.4241 C   0  0  0  0  0  0  0  0  0  0  0  0
   19.5955   12.5539   49.6447 F   0  0  0  0  0  0  0  0  0  0  0  0
   21.2574   12.3196   51.2992 C   0  0  0  0  0  0  0  0  0  0  0  0
   21.3617   13.8035   51.3811 C   0  0  0  0  0  0  0  0  0  0  0  0
   22.0578   11.5040   52.1063 C   0  0  0  0  0  0  0  0  0  0  0  0
   25.9091    8.5949   54.7683 C   0  0  0  0  0  0  0  0  0  0  0  0
   27.0123    8.0146   54.1632 C   0  0  0  0  0  0  0  0  0  0  0  0
   28.2289    7.9677   54.7663 C   0  0  0  0  0  0  0  0  0  0  0  0
   29.3785    7.3306   54.0666 C   0  0  0  0  0  0  0  0  0  0  0  0
   28.3555    8.5044   55.9890 N   0  0  0  0  0  0  0  0  0  0  0  0
   27.3413    9.0781   56.6309 C   0  0  0  0  0  0  0  0  0  0  0  0
   27.4676    9.6759   57.9846 C   0  0  0  0  0  0  0  0  0  0  0  0
   26.0997    9.1282   56.0200 C   0  0  0  0  0  0  0  0  0  0  0  0
  1  2  1  0  0  0
  2  3  1  0  0  0
  3  4  1  0  0  0
  4  5  1  0  0  0
  5  6  1  0  0  0
  6  7  1  0  0  0
  7  8  1  0  0  0
  5  9  2  0  0  0
  9 10  1  0  0  0
 10 11  2  0  0  0
 11 12  1  0  0  0
 12 13  2  0  0  0
 13 14  1  0  0  0
 14 15  2  0  0  0
 15 16  1  0  0  0
 15 17  1  0  0  0
 17 18  1  0  0  0
 17 19  2  0  0  0
  9 20  1  0  0  0
 20 21  2  0  0  0
 21 22  1  0  0  0
 22 23  1  0  0  0
 22 24  2  0  0  0
 24 25  1  0  0  0
 25 26  1  0  0  0
 25 27  2  0  0  0
  8  2  1  0  0  0
 19 12  1  0  0  0
 27 20  1  0  0  0
 11  4  1  0  0  0
M  END
> <minimizedAffinity>
32.54651

> <CNNscore>
0.4532082081

> <CNNaffinity>
5.9292554855

> <CNN_VS>
2.6871871948

> <CNNaffinity_variance>
0.3046705127

$$$$
[H]c1c([H])c(-c2nc(-c3c([H])c(C([H])([H])[H])nc(C([H])([H])[H])c3[H])c3n2C([H])([H])[C@@]([H])(C([H])([H])[H])OC([H])([H])C3([H])[H])c([H])c(C([H])([H])[H])c1F


 27 30  0  0  0  0  0  0  0  0999 V2000
   19.0705    8.9654   50.6637 C   0  0  0  0  0  0  0  0  0  0  0  0
   20.3303    8.8059   51.4520 C   0  0  0  0  0  0  0  0  0  0  0  0
   20.0795    8.2254   52.8344 C   0  0  0  0  0  0  0  0  0  0  0  0
   21.3137    7.6214   53.2871 N   0  0  0  0  0  0  0  0  0  0  0  0
   22.4660    8.3636   53.5444 C   0  0  0  0  0  0  0  0  0  0  0  0
   22.5545    9.8282   53.2967 C   0  0  0  0  0  0  0  0  0  0  0  0
   22.3025    9.9830   51.7966 C   0  0  0  0  0  0  0  0  0  0  0  0
   20.9524   10.0538   51.5778 O   0  0  0  0  0  0  0  0  0  0  0  0
   23.4056    7.4975   54.0157 C   0  0  0  0  0  0  0  0  0  0  0  0
   22.8388    6.2909   54.0369 N   0  0  0  0  0  0  0  0  0  0  0  0
   21.5312    6.3560   53.5802 C   0  0  0  0  0  0  0  0  0  0  0  0
   20.6622    5.1885   53.5216 C   0  0  0  0  0  0  0  0  0  0  0  0
   21.1497    4.0095   52.9254 C   0  0  0  0  0  0  0  0  0  0  0  0
   20.3944    2.8805   52.7604 C   0  0  0  0  0  0  0  0  0  0  0  0
   19.0873    2.8596   53.1865 C   0  0  0  0  0  0  0  0  0  0  0  0
   18.2953    1.7598   53.0455 F   0  0  0  0  0  0  0  0  0  0  0  0
   18.5645    3.9852   53.7734 C   0  0  0  0  0  0  0  0  0  0  0  0
   17.1503    3.9854   54.2420 C   0  0  0  0  0  0  0  0  0  0  0  0
   19.3650    5.1224   53.9255 C   0  0  0  0  0  0  0  0  0  0  0  0
   24.7572    7.8786   54.4162 C   0  0  0  0  0  0  0  0  0  0  0  0
   24.9035    8.7768   55.4611 C   0  0  0  0  0  0  0  0  0  0  0  0
   26.1227    9.1750   55.9095 C   0  0  0  0  0  0  0  0  0  0  0  0
   26.2175   10.1432   57.0367 C   0  0  0  0  0  0  0  0  0  0  0  0
   27.2155    8.6755   55.3133 N   0  0  0  0  0  0  0  0  0  0  0  0
   27.1524    7.8096   54.3054 C   0  0  0  0  0  0  0  0  0  0  0  0
   28.3541    7.2489   53.6365 C   0  0  0  0  0  0  0  0  0  0  0  0
   25.9120    7.4010   53.8453 C   0  0  0  0  0  0  0  0  0  0  0  0
  1  2  1  0  0  0
  2  3  1  0  0  0
  3  4  1  0  0  0
  4  5  1  0  0  0
  5  6  1  0  0  0
  6  7  1  0  0  0
  7  8  1  0  0  0
  5  9  2  0  0  0
  9 10  1  0  0  0
 10 11  2  0  0  0
 11 12  1  0  0  0
 12 13  2  0  0  0
 13 14  1  0  0  0
 14 15  2  0  0  0
 15 16  1  0  0  0
 15 17  1  0  0  0
 17 18  1  0  0  0
 17 19  2  0  0  0
  9 20  1  0  0  0
 20 21  2  0  0  0
 21 22  1  0  0  0
 22 23  1  0  0  0
 22 24  2  0  0  0
 24 25  1  0  0  0
 25 26  1  0  0  0
 25 27  2  0  0  0
  8  2  1  0  0  0
 19 12  1  0  0  0
 27 20  1  0  0  0
 11  4  1  0  0  0
M  END
> <minimizedAffinity>
35.12906

> <CNNscore>
0.4528480172

> <CNNaffinity>
6.0942945480

> <CNN_VS>
2.7597892284

> <CNNaffinity_variance>
0.5490527153

$$$$
[H]c1c([H])c(-c2nc(-c3c([H])c(C([H])([H])[H])nc(C([H])([H])[H])c3[H])c3n2C([H])([H])[C@@]([H])(C([H])([H])[H])OC([H])([H])C3([H])[H])c([H])c(C([H])([H])[H])c1F


 27 30  0  0  0  0  0  0  0  0999 V2000
   21.8613   11.7962   54.6592 C   0  0  0  0  0  0  0  0  0  0  0  0
   21.5762   10.3497   54.4135 C   0  0  0  0  0  0  0  0  0  0  0  0
   22.5971    9.7066   53.4888 C   0  0  0  0  0  0  0  0  0  0  0  0
   22.5749    8.2811   53.7343 N   0  0  0  0  0  0  0  0  0  0  0  0
   21.4640    7.4854   53.4550 C   0  0  0  0  0  0  0  0  0  0  0  0
   20.1765    8.0428   52.9594 C   0  0  0  0  0  0  0  0  0  0  0  0
   19.7195    8.9998   54.0608 C   0  0  0  0  0  0  0  0  0  0  0  0
   20.2987   10.2236   53.8547 O   0  0  0  0  0  0  0  0  0  0  0  0
   21.8095    6.1987   53.7378 C   0  0  0  0  0  0  0  0  0  0  0  0
   23.0709    6.2259   54.1687 N   0  0  0  0  0  0  0  0  0  0  0  0
   23.5587    7.5238   54.1737 C   0  0  0  0  0  0  0  0  0  0  0  0
   24.9218    7.8475   54.5725 C   0  0  0  0  0  0  0  0  0  0  0  0
   25.1223    8.7956   55.5942 C   0  0  0  0  0  0  0  0  0  0  0  0
   26.3596    9.2187   55.9973 C   0  0  0  0  0  0  0  0  0  0  0  0
   27.4884    8.7138   55.3960 C   0  0  0  0  0  0  0  0  0  0  0  0
   28.7418    9.1028   55.7625 F   0  0  0  0  0  0  0  0  0  0  0  0
   27.3458    7.7872   54.3932 C   0  0  0  0  0  0  0  0  0  0  0  0
   28.5550    7.2271   53.7271 C   0  0  0  0  0  0  0  0  0  0  0  0
   26.0654    7.3777   54.0056 C   0  0  0  0  0  0  0  0  0  0  0  0
   20.9264    5.0477   53.5703 C   0  0  0  0  0  0  0  0  0  0  0  0
   21.4711    3.8666   53.0926 C   0  0  0  0  0  0  0  0  0  0  0  0
   20.7272    2.7427   52.9204 C   0  0  0  0  0  0  0  0  0  0  0  0
   21.3680    1.5022   52.4032 C   0  0  0  0  0  0  0  0  0  0  0  0
   19.4220    2.7890   53.2264 N   0  0  0  0  0  0  0  0  0  0  0  0
   18.8307    3.8868   53.6897 C   0  0  0  0  0  0  0  0  0  0  0  0
   17.3870    3.9517   54.0323 C   0  0  0  0  0  0  0  0  0  0  0  0
   19.5850    5.0344   53.8668 C   0  0  0  0  0  0  0  0  0  0  0  0
  1  2  1  0  0  0
  2  3  1  0  0  0
  3  4  1  0  0  0
  4  5  1  0  0  0
  5  6  1  0  0  0
  6  7  1  0  0  0
  7  8  1  0  0  0
  5  9  2  0  0  0
  9 10  1  0  0  0
 10 11  2  0  0  0
 11 12  1  0  0  0
 12 13  2  0  0  0
 13 14  1  0  0  0
 14 15  2  0  0  0
 15 16  1  0  0  0
 15 17  1  0  0  0
 17 18  1  0  0  0
 17 19  2  0  0  0
  9 20  1  0  0  0
 20 21  2  0  0  0
 21 22  1  0  0  0
 22 23  1  0  0  0
 22 24  2  0  0  0
 24 25  1  0  0  0
 25 26  1  0  0  0
 25 27  2  0  0  0
  8  2  1  0  0  0
 19 12  1  0  0  0
 27 20  1  0  0  0
 11  4  1  0  0  0
M  END
> <minimizedAffinity>
36.88226

> <CNNscore>
0.4467686415

> <CNNaffinity>
6.2059030533

> <CNN_VS>
2.7726027966

> <CNNaffinity_variance>
0.7218160033

$$$$
[H]c1nc([H])n(-c2c([H])c([H])c([H])c(C3=Nc4c([H])c(C([H])([H])[H])c(C(F)(F)F)c([H])c4N([H])C(=O)C3([H])[H])c2[H])c1[H]


 29 32  0  0  0  0  0  0  0  0999 V2000
   20.0189    3.0689   54.9815 C   0  0  0  0  0  0  0  0  0  0  0  0
   20.1435    4.4366   54.3639 C   0  0  0  0  0  0  0  0  0  0  0  0
   21.3443    5.1010   54.3379 C   0  0  0  0  0  0  0  0  0  0  0  0
   21.4523    6.3489   53.7740 C   0  0  0  0  0  0  0  0  0  0  0  0
   22.7689    6.8729   53.8402 N   0  0  0  0  0  0  0  0  0  0  0  0
   23.1793    8.1270   53.8402 C   0  0  0  0  0  0  0  0  0  0  0  0
   22.3389    9.3297   53.7684 C   0  0  0  0  0  0  0  0  0  0  0  0
   21.2745    9.2422   52.7007 C   0  0  0  0  0  0  0  0  0  0  0  0
   21.2430   10.1406   51.8207 O   0  0  0  0  0  0  0  0  0  0  0  0
   20.2996    8.2139   52.6165 N   0  0  0  0  0  0  0  0  0  0  0  0
   20.2985    6.9258   53.2247 C   0  0  0  0  0  0  0  0  0  0  0  0
   19.0938    6.2793   53.2412 C   0  0  0  0  0  0  0  0  0  0  0  0
   19.0221    5.0333   53.8130 C   0  0  0  0  0  0  0  0  0  0  0  0
   19.4429    8.4020   52.0266 H   0  0  0  0  0  0  0  0  0  0  0  0
   24.6428    8.2686   53.9252 C   0  0  0  0  0  0  0  0  0  0  0  0
   25.4245    8.0381   52.8052 C   0  0  0  0  0  0  0  0  0  0  0  0
   26.7857    8.1617   52.8954 C   0  0  0  0  0  0  0  0  0  0  0  0
   27.3856    8.5119   54.0850 C   0  0  0  0  0  0  0  0  0  0  0  0
   26.6392    8.7460   55.2096 C   0  0  0  0  0  0  0  0  0  0  0  0
   25.2471    8.6145   55.0980 C   0  0  0  0  0  0  0  0  0  0  0  0
   27.2492    9.1079   56.4414 N   0  0  0  0  0  0  0  0  0  0  0  0
   26.7996   10.0236   57.3189 C   0  0  0  0  0  0  0  0  0  0  0  0
   27.6682   10.0841   58.3861 C   0  0  0  0  0  0  0  0  0  0  0  0
   28.6524    9.1891   58.1411 N   0  0  0  0  0  0  0  0  0  0  0  0
   28.3814    8.5965   56.9418 C   0  0  0  0  0  0  0  0  0  0  0  0
   17.7246    4.3344   53.8299 C   0  0  0  0  0  0  0  0  0  0  0  0
   16.6697    5.1875   53.4758 F   0  0  0  0  0  0  0  0  0  0  0  0
   17.7361    3.3661   52.8456 F   0  0  0  0  0  0  0  0  0  0  0  0
   17.4667    3.6716   55.0134 F   0  0  0  0  0  0  0  0  0  0  0  0
  1  2  1  0  0  0
  2  3  2  0  0  0
  3  4  1  0  0  0
  4  5  1  0  0  0
  5  6  2  0  0  0
  6  7  1  0  0  0
  7  8  1  0  0  0
  8  9  2  0  0  0
  8 10  1  0  0  0
 10 11  1  0  0  0
 11 12  1  0  0  0
 12 13  2  0  0  0
 13 26  1  0  0  0
 26 27  1  0  0  0
 26 28  1  0  0  0
 26 29  1  0  0  0
  6 15  1  0  0  0
 15 16  2  0  0  0
 16 17  1  0  0  0
 17 18  2  0  0  0
 18 19  1  0  0  0
 19 20  2  0  0  0
 19 21  1  0  0  0
 21 22  1  0  0  0
 22 23  2  0  0  0
 23 24  1  0  0  0
 24 25  2  0  0  0
 13  2  1  0  0  0
 20 15  1  0  0  0
 25 21  1  0  0  0
 11  4  2  0  0  0
 10 14  1  0  0  0
M  END
> <minimizedAffinity>
28.91578

> <CNNscore>
0.5475285053

> <CNNaffinity>
6.3461036682

> <CNN_VS>
3.4746725559

> <CNNaffinity_variance>
0.4715573192

$$$$
[H]c1nc([H])n(-c2c([H])c([H])c([H])c(C3=Nc4c([H])c(C([H])([H])[H])c(C(F)(F)F)c([H])c4N([H])C(=O)C3([H])[H])c2[H])c1[H]


 29 32  0  0  0  0  0  0  0  0999 V2000
   21.2822    9.7588   54.8687 C   0  0  0  0  0  0  0  0  0  0  0  0
   22.6471    9.1837   54.5975 C   0  0  0  0  0  0  0  0  0  0  0  0
   23.6922    9.3874   55.4638 C   0  0  0  0  0  0  0  0  0  0  0  0
   24.9357    8.8612   55.2113 C   0  0  0  0  0  0  0  0  0  0  0  0
   25.8838    9.1765   56.2183 N   0  0  0  0  0  0  0  0  0  0  0  0
   27.1984    9.2609   56.1433 C   0  0  0  0  0  0  0  0  0  0  0  0
   28.0296    9.0398   54.9523 C   0  0  0  0  0  0  0  0  0  0  0  0
   27.6507    7.7909   54.1927 C   0  0  0  0  0  0  0  0  0  0  0  0
   28.5420    6.9260   53.9926 O   0  0  0  0  0  0  0  0  0  0  0  0
   26.3539    7.5192   53.6834 N   0  0  0  0  0  0  0  0  0  0  0  0
   25.1073    8.1087   54.0408 C   0  0  0  0  0  0  0  0  0  0  0  0
   24.0784    7.8950   53.1661 C   0  0  0  0  0  0  0  0  0  0  0  0
   22.8489    8.4357   53.4499 C   0  0  0  0  0  0  0  0  0  0  0  0
   26.2705    6.7802   52.9324 H   0  0  0  0  0  0  0  0  0  0  0  0
   27.8402    9.6199   57.4193 C   0  0  0  0  0  0  0  0  0  0  0  0
   28.2897    8.6233   58.2699 C   0  0  0  0  0  0  0  0  0  0  0  0
   28.8759    8.9655   59.4596 C   0  0  0  0  0  0  0  0  0  0  0  0
   29.0235   10.2869   59.8199 C   0  0  0  0  0  0  0  0  0  0  0  0
   28.5888   11.2945   58.9999 C   0  0  0  0  0  0  0  0  0  0  0  0
   27.9910   10.9249   57.7860 C   0  0  0  0  0  0  0  0  0  0  0  0
   28.7368   12.6608   59.3630 N   0  0  0  0  0  0  0  0  0  0  0  0
   29.7539   13.1981   60.0610 C   0  0  0  0  0  0  0  0  0  0  0  0
   29.5314   14.5495   60.2065 C   0  0  0  0  0  0  0  0  0  0  0  0
   28.3618   14.8229   59.5846 N   0  0  0  0  0  0  0  0  0  0  0  0
   27.8847   13.6519   59.0706 C   0  0  0  0  0  0  0  0  0  0  0  0
   21.7382    8.2047   52.5089 C   0  0  0  0  0  0  0  0  0  0  0  0
   21.5120    9.3187   51.6880 F   0  0  0  0  0  0  0  0  0  0  0  0
   22.1046    7.1978   51.6380 F   0  0  0  0  0  0  0  0  0  0  0  0
   20.5749    7.7774   53.1176 F   0  0  0  0  0  0  0  0  0  0  0  0
  1  2  1  0  0  0
  2  3  2  0  0  0
  3  4  1  0  0  0
  4  5  1  0  0  0
  5  6  2  0  0  0
  6  7  1  0  0  0
  7  8  1  0  0  0
  8  9  2  0  0  0
  8 10  1  0  0  0
 10 11  1  0  0  0
 11 12  1  0  0  0
 12 13  2  0  0  0
 13 26  1  0  0  0
 26 27  1  0  0  0
 26 28  1  0  0  0
 26 29  1  0  0  0
  6 15  1  0  0  0
 15 16  2  0  0  0
 16 17  1  0  0  0
 17 18  2  0  0  0
 18 19  1  0  0  0
 19 20  2  0  0  0
 19 21  1  0  0  0
 21 22  1  0  0  0
 22 23  2  0  0  0
 23 24  1  0  0  0
 24 25  2  0  0  0
 13  2  1  0  0  0
 20 15  1  0  0  0
 25 21  1  0  0  0
 11  4  2  0  0  0
 10 14  1  0  0  0
M  END
> <minimizedAffinity>
5.78609

> <CNNscore>
0.4883464873

> <CNNaffinity>
6.1323866844

> <CNN_VS>
2.9947295189

> <CNNaffinity_variance>
0.0547127500

$$$$
[H]c1nc([H])n(-c2c([H])c([H])c([H])c(C3=Nc4c([H])c(C([H])([H])[H])c(C(F)(F)F)c([H])c4N([H])C(=O)C3([H])[H])c2[H])c1[H]


 29 32  0  0  0  0  0  0  0  0999 V2000
   21.2444    3.2742   53.4639 C   0  0  0  0  0  0  0  0  0  0  0  0
   21.2455    4.7685   53.6495 C   0  0  0  0  0  0  0  0  0  0  0  0
   22.4062    5.4547   53.9064 C   0  0  0  0  0  0  0  0  0  0  0  0
   22.4016    6.8178   54.0758 C   0  0  0  0  0  0  0  0  0  0  0  0
   23.6929    7.3471   54.3307 N   0  0  0  0  0  0  0  0  0  0  0  0
   24.0429    8.4501   54.9648 C   0  0  0  0  0  0  0  0  0  0  0  0
   23.1448    9.4344   55.5832 C   0  0  0  0  0  0  0  0  0  0  0  0
   21.9878    9.8184   54.6920 C   0  0  0  0  0  0  0  0  0  0  0  0
   21.8302   11.0360   54.4175 O   0  0  0  0  0  0  0  0  0  0  0  0
   21.0579    8.9004   54.1375 N   0  0  0  0  0  0  0  0  0  0  0  0
   21.1749    7.4897   53.9785 C   0  0  0  0  0  0  0  0  0  0  0  0
   20.0085    6.8234   53.7231 C   0  0  0  0  0  0  0  0  0  0  0  0
   20.0499    5.4610   53.5594 C   0  0  0  0  0  0  0  0  0  0  0  0
   20.1406    9.2895   53.7846 H   0  0  0  0  0  0  0  0  0  0  0  0
   25.4997    8.6578   55.0266 C   0  0  0  0  0  0  0  0  0  0  0  0
   26.2803    8.4081   53.9099 C   0  0  0  0  0  0  0  0  0  0  0  0
   27.6356    8.5937   53.9790 C   0  0  0  0  0  0  0  0  0  0  0  0
   28.2308    9.0250   55.1441 C   0  0  0  0  0  0  0  0  0  0  0  0
   27.4853    9.2800   56.2648 C   0  0  0  0  0  0  0  0  0  0  0  0
   26.0993    9.0841   56.1751 C   0  0  0  0  0  0  0  0  0  0  0  0
   28.0905    9.7253   57.4714 N   0  0  0  0  0  0  0  0  0  0  0  0
   28.3999    8.9672   58.5392 C   0  0  0  0  0  0  0  0  0  0  0  0
   28.9710    9.7667   59.5045 C   0  0  0  0  0  0  0  0  0  0  0  0
   29.0030   11.0228   59.0038 N   0  0  0  0  0  0  0  0  0  0  0  0
   28.4582   10.9820   57.7530 C   0  0  0  0  0  0  0  0  0  0  0  0
   18.7938    4.7416   53.2822 C   0  0  0  0  0  0  0  0  0  0  0  0
   18.8435    4.0613   52.0572 F   0  0  0  0  0  0  0  0  0  0  0  0
   18.6411    3.7471   54.2279 F   0  0  0  0  0  0  0  0  0  0  0  0
   17.6674    5.5344   53.3778 F   0  0  0  0  0  0  0  0  0  0  0  0
  1  2  1  0  0  0
  2  3  2  0  0  0
  3  4  1  0  0  0
  4  5  1  0  0  0
  5  6  2  0  0  0
  6  7  1  0  0  0
  7  8  1  0  0  0
  8  9  2  0  0  0
  8 10  1  0  0  0
 10 11  1  0  0  0
 11 12  1  0  0  0
 12 13  2  0  0  0
 13 26  1  0  0  0
 26 27  1  0  0  0
 26 28  1  0  0  0
 26 29  1  0  0  0
  6 15  1  0  0  0
 15 16  2  0  0  0
 16 17  1  0  0  0
 17 18  2  0  0  0
 18 19  1  0  0  0
 19 20  2  0  0  0
 19 21  1  0  0  0
 21 22  1  0  0  0
 22 23  2  0  0  0
 23 24  1  0  0  0
 24 25  2  0  0  0
 13  2  1  0  0  0
 20 15  1  0  0  0
 25 21  1  0  0  0
 11  4  2  0  0  0
 10 14  1  0  0  0
M  END
> <minimizedAffinity>
18.56870

> <CNNscore>
0.4767787457

> <CNNaffinity>
6.2519440651

> <CNN_VS>
2.9807939529

> <CNNaffinity_variance>
0.0521786809

$$$$
[H]c1nc([H])n(-c2c([H])c([H])c([H])c(C3=Nc4c([H])c(C([H])([H])[H])c(C(F)(F)F)c([H])c4N([H])C(=O)C3([H])[H])c2[H])c1[H]


 29 32  0  0  0  0  0  0  0  0999 V2000
   22.9013    2.4297   53.2973 C   0  0  0  0  0  0  0  0  0  0  0  0
   22.6581    3.9149   53.3466 C   0  0  0  0  0  0  0  0  0  0  0  0
   23.6772    4.7965   53.6082 C   0  0  0  0  0  0  0  0  0  0  0  0
   23.4499    6.1504   53.6529 C   0  0  0  0  0  0  0  0  0  0  0  0
   24.6219    6.8983   53.9344 N   0  0  0  0  0  0  0  0  0  0  0  0
   24.7506    8.0903   54.4855 C   0  0  0  0  0  0  0  0  0  0  0  0
   23.6688    8.9645   54.9584 C   0  0  0  0  0  0  0  0  0  0  0  0
   22.5339    9.0856   53.9696 C   0  0  0  0  0  0  0  0  0  0  0  0
   22.2104   10.2363   53.5773 O   0  0  0  0  0  0  0  0  0  0  0  0
   21.7996    7.9891   53.4468 N   0  0  0  0  0  0  0  0  0  0  0  0
   22.1443    6.6072   53.4233 C   0  0  0  0  0  0  0  0  0  0  0  0
   21.1164    5.7444   53.1611 C   0  0  0  0  0  0  0  0  0  0  0  0
   21.3795    4.3976   53.1241 C   0  0  0  0  0  0  0  0  0  0  0  0
   20.8612    8.1967   53.0068 H   0  0  0  0  0  0  0  0  0  0  0  0
   26.1494    8.5329   54.6138 C   0  0  0  0  0  0  0  0  0  0  0  0
   26.9763    8.5379   53.5025 C   0  0  0  0  0  0  0  0  0  0  0  0
   28.2789    8.9409   53.6326 C   0  0  0  0  0  0  0  0  0  0  0  0
   28.7758    9.3407   54.8536 C   0  0  0  0  0  0  0  0  0  0  0  0
   27.9826    9.3464   55.9705 C   0  0  0  0  0  0  0  0  0  0  0  0
   26.6518    8.9303   55.8180 C   0  0  0  0  0  0  0  0  0  0  0  0
   28.4864    9.7571   57.2346 N   0  0  0  0  0  0  0  0  0  0  0  0
   28.2652   10.9388   57.8391 C   0  0  0  0  0  0  0  0  0  0  0  0
   28.9248   10.9527   59.0481 C   0  0  0  0  0  0  0  0  0  0  0  0
   29.5498    9.7591   59.1669 N   0  0  0  0  0  0  0  0  0  0  0  0
   29.2712    9.0344   58.0443 C   0  0  0  0  0  0  0  0  0  0  0  0
   20.2730    3.4664   52.8398 C   0  0  0  0  0  0  0  0  0  0  0  0
   19.1598    4.1296   52.3042 F   0  0  0  0  0  0  0  0  0  0  0  0
   20.6757    2.5992   51.8435 F   0  0  0  0  0  0  0  0  0  0  0  0
   19.9237    2.6747   53.9157 F   0  0  0  0  0  0  0  0  0  0  0  0
  1  2  1  0  0  0
  2  3  2  0  0  0
  3  4  1  0  0  0
  4  5  1  0  0  0
  5  6  2  0  0  0
  6  7  1  0  0  0
  7  8  1  0  0  0
  8  9  2  0  0  0
  8 10  1  0  0  0
 10 11  1  0  0  0
 11 12  1  0  0  0
 12 13  2  0  0  0
 13 26  1  0  0  0
 26 27  1  0  0  0
 26 28  1  0  0  0
 26 29  1  0  0  0
  6 15  1  0  0  0
 15 16  2  0  0  0
 16 17  1  0  0  0
 17 18  2  0  0  0
 18 19  1  0  0  0
 19 20  2  0  0  0
 19 21  1  0  0  0
 21 22  1  0  0  0
 22 23  2  0  0  0
 23 24  1  0  0  0
 24 25  2  0  0  0
 13  2  1  0  0  0
 20 15  1  0  0  0
 25 21  1  0  0  0
 11  4  2  0  0  0
 10 14  1  0  0  0
M  END
> <minimizedAffinity>
37.49265

> <CNNscore>
0.4756788611

> <CNNaffinity>
5.9938378334

> <CNN_VS>
2.8511419296

> <CNNaffinity_variance>
0.1300192177

$$$$
[H]c1nc([H])n(-c2c([H])c([H])c([H])c(C3=Nc4c([H])c(C([H])([H])[H])c(C(F)(F)F)c([H])c4N([H])C(=O)C3([H])[H])c2[H])c1[H]


 29 32  0  0  0  0  0  0  0  0999 V2000
   21.1343    7.6159   52.4299 C   0  0  0  0  0  0  0  0  0  0  0  0
   22.4382    7.8456   53.1472 C   0  0  0  0  0  0  0  0  0  0  0  0
   23.5497    8.2970   52.4800 C   0  0  0  0  0  0  0  0  0  0  0  0
   24.7370    8.5041   53.1389 C   0  0  0  0  0  0  0  0  0  0  0  0
   25.7684    8.9720   52.2847 N   0  0  0  0  0  0  0  0  0  0  0  0
   27.0779    8.8599   52.4026 C   0  0  0  0  0  0  0  0  0  0  0  0
   27.8119    8.1982   53.4895 C   0  0  0  0  0  0  0  0  0  0  0  0
   27.3035    8.5769   54.8601 C   0  0  0  0  0  0  0  0  0  0  0  0
   28.1219    9.0650   55.6814 O   0  0  0  0  0  0  0  0  0  0  0  0
   25.9608    8.4210   55.2935 N   0  0  0  0  0  0  0  0  0  0  0  0
   24.7814    8.2405   54.5153 C   0  0  0  0  0  0  0  0  0  0  0  0
   23.6848    7.7905   55.1968 C   0  0  0  0  0  0  0  0  0  0  0  0
   22.5144    7.5945   54.5067 C   0  0  0  0  0  0  0  0  0  0  0  0
   25.7800    8.4370   56.3348 H   0  0  0  0  0  0  0  0  0  0  0  0
   27.8250    9.4817   51.2962 C   0  0  0  0  0  0  0  0  0  0  0  0
   28.4451   10.7060   51.4845 C   0  0  0  0  0  0  0  0  0  0  0  0
   29.1291   11.2824   50.4471 C   0  0  0  0  0  0  0  0  0  0  0  0
   29.2076   10.6602   49.2206 C   0  0  0  0  0  0  0  0  0  0  0  0
   28.6046    9.4492   49.0040 C   0  0  0  0  0  0  0  0  0  0  0  0
   27.9087    8.8745   50.0777 C   0  0  0  0  0  0  0  0  0  0  0  0
   28.6801    8.7995   47.7420 N   0  0  0  0  0  0  0  0  0  0  0  0
   28.2146    9.2696   46.5703 C   0  0  0  0  0  0  0  0  0  0  0  0
   28.4797    8.3479   45.5819 C   0  0  0  0  0  0  0  0  0  0  0  0
   29.1143    7.3105   46.1740 N   0  0  0  0  0  0  0  0  0  0  0  0
   29.2305    7.6023   47.5023 C   0  0  0  0  0  0  0  0  0  0  0  0
   21.3310    7.1111   55.2403 C   0  0  0  0  0  0  0  0  0  0  0  0
   20.2773    8.0350   55.1939 F   0  0  0  0  0  0  0  0  0  0  0  0
   20.8430    5.9921   54.5952 F   0  0  0  0  0  0  0  0  0  0  0  0
   21.6037    6.7160   56.5348 F   0  0  0  0  0  0  0  0  0  0  0  0
  1  2  1  0  0  0
  2  3  2  0  0  0
  3  4  1  0  0  0
  4  5  1  0  0  0
  5  6  2  0  0  0
  6  7  1  0  0  0
  7  8  1  0  0  0
  8  9  2  0  0  0
  8 10  1  0  0  0
 10 11  1  0  0  0
 11 12  1  0  0  0
 12 13  2  0  0  0
 13 26  1  0  0  0
 26 27  1  0  0  0
 26 28  1  0  0  0
 26 29  1  0  0  0
  6 15  1  0  0  0
 15 16  2  0  0  0
 16 17  1  0  0  0
 17 18  2  0  0  0
 18 19  1  0  0  0
 19 20  2  0  0  0
 19 21  1  0  0  0
 21 22  1  0  0  0
 22 23  2  0  0  0
 23 24  1  0  0  0
 24 25  2  0  0  0
 13  2  1  0  0  0
 20 15  1  0  0  0
 25 21  1  0  0  0
 11  4  2  0  0  0
 10 14  1  0  0  0
M  END
> <minimizedAffinity>
26.54435

> <CNNscore>
0.4650210738

> <CNNaffinity>
5.8781781197

> <CNN_VS>
2.7334766388

> <CNNaffinity_variance>
0.0870750695

$$$$
[H]c1nc([H])n(-c2c([H])c([H])c([H])c(C3=Nc4c([H])c(C([H])([H])[H])c(C(F)(F)F)c([H])c4N([H])C(=O)C3([H])[H])c2[H])c1[H]


 29 32  0  0  0  0  0  0  0  0999 V2000
   21.0539    3.0032   53.1388 C   0  0  0  0  0  0  0  0  0  0  0  0
   21.0892    4.4890   53.3809 C   0  0  0  0  0  0  0  0  0  0  0  0
   22.2745    5.1811   53.3980 C   0  0  0  0  0  0  0  0  0  0  0  0
   22.3012    6.5364   53.6201 C   0  0  0  0  0  0  0  0  0  0  0  0
   23.6139    7.0737   53.5995 N   0  0  0  0  0  0  0  0  0  0  0  0
   24.0923    8.1560   54.1834 C   0  0  0  0  0  0  0  0  0  0  0  0
   23.3517    9.1025   55.0282 C   0  0  0  0  0  0  0  0  0  0  0  0
   22.0216    9.5044   54.4369 C   0  0  0  0  0  0  0  0  0  0  0  0
   21.8000   10.7294   54.2554 O   0  0  0  0  0  0  0  0  0  0  0  0
   20.9953    8.5956   54.0686 N   0  0  0  0  0  0  0  0  0  0  0  0
   21.0807    7.1940   53.8293 C   0  0  0  0  0  0  0  0  0  0  0  0
   19.8902    6.5216   53.8157 C   0  0  0  0  0  0  0  0  0  0  0  0
   19.9005    5.1674   53.5908 C   0  0  0  0  0  0  0  0  0  0  0  0
   20.0202    8.9850   53.9476 H   0  0  0  0  0  0  0  0  0  0  0  0
   25.5244    8.3819   53.9243 C   0  0  0  0  0  0  0  0  0  0  0  0
   26.4441    8.2249   54.9482 C   0  0  0  0  0  0  0  0  0  0  0  0
   27.7729    8.4472   54.7014 C   0  0  0  0  0  0  0  0  0  0  0  0
   28.2051    8.8245   53.4490 C   0  0  0  0  0  0  0  0  0  0  0  0
   27.3195    8.9879   52.4165 C   0  0  0  0  0  0  0  0  0  0  0  0
   25.9631    8.7561   52.6882 C   0  0  0  0  0  0  0  0  0  0  0  0
   27.7560    9.3769   51.1209 N   0  0  0  0  0  0  0  0  0  0  0  0
   28.1910   10.5966   50.7553 C   0  0  0  0  0  0  0  0  0  0  0  0
   28.5214   10.5710   49.4184 C   0  0  0  0  0  0  0  0  0  0  0  0
   28.2795    9.3147   48.9793 N   0  0  0  0  0  0  0  0  0  0  0  0
   27.8093    8.5917   50.0372 C   0  0  0  0  0  0  0  0  0  0  0  0
   18.6180    4.4414   53.5741 C   0  0  0  0  0  0  0  0  0  0  0  0
   18.5529    3.5249   52.5150 F   0  0  0  0  0  0  0  0  0  0  0  0
   18.5396    3.6649   54.7132 F   0  0  0  0  0  0  0  0  0  0  0  0
   17.5122    5.2678   53.5996 F   0  0  0  0  0  0  0  0  0  0  0  0
  1  2  1  0  0  0
  2  3  2  0  0  0
  3  4  1  0  0  0
  4  5  1  0  0  0
  5  6  2  0  0  0
  6  7  1  0  0  0
  7  8  1  0  0  0
  8  9  2  0  0  0
  8 10  1  0  0  0
 10 11  1  0  0  0
 11 12  1  0  0  0
 12 13  2  0  0  0
 13 26  1  0  0  0
 26 27  1  0  0  0
 26 28  1  0  0  0
 26 29  1  0  0  0
  6 15  1  0  0  0
 15 16  2  0  0  0
 16 17  1  0  0  0
 17 18  2  0  0  0
 18 19  1  0  0  0
 19 20  2  0  0  0
 19 21  1  0  0  0
 21 22  1  0  0  0
 22 23  2  0  0  0
 23 24  1  0  0  0
 24 25  2  0  0  0
 13  2  1  0  0  0
 20 15  1  0  0  0
 25 21  1  0  0  0
 11  4  2  0  0  0
 10 14  1  0  0  0
M  END
> <minimizedAffinity>
31.20081

> <CNNscore>
0.4587472975

> <CNNaffinity>
6.0351781845

> <CNN_VS>
2.7686216831

> <CNNaffinity_variance>
0.4366939962

$$$$
[H]c1nc([H])n(-c2c([H])c([H])c([H])c(C3=Nc4c([H])c(C([H])([H])[H])c(C(F)(F)F)c([H])c4N([H])C(=O)C3([H])[H])c2[H])c1[H]


 29 32  0  0  0  0  0  0  0  0999 V2000
   21.2354    3.6464   53.4620 C   0  0  0  0  0  0  0  0  0  0  0  0
   21.2934    5.1340   53.6881 C   0  0  0  0  0  0  0  0  0  0  0  0
   22.4739    5.7636   53.9947 C   0  0  0  0  0  0  0  0  0  0  0  0
   22.5212    7.1208   54.2009 C   0  0  0  0  0  0  0  0  0  0  0  0
   23.8257    7.5883   54.5046 N   0  0  0  0  0  0  0  0  0  0  0  0
   24.2034    8.6586   55.1776 C   0  0  0  0  0  0  0  0  0  0  0  0
   23.3300    9.6635   55.7984 C   0  0  0  0  0  0  0  0  0  0  0  0
   22.2152   10.1191   54.8873 C   0  0  0  0  0  0  0  0  0  0  0  0
   22.1159   11.3490   54.6420 O   0  0  0  0  0  0  0  0  0  0  0  0
   21.2638    9.2560   54.2833 N   0  0  0  0  0  0  0  0  0  0  0  0
   21.3265    7.8462   54.0892 C   0  0  0  0  0  0  0  0  0  0  0  0
   20.1411    7.2367   53.7846 C   0  0  0  0  0  0  0  0  0  0  0  0
   20.1305    5.8785   53.5850 C   0  0  0  0  0  0  0  0  0  0  0  0
   20.3737    9.6925   53.9168 H   0  0  0  0  0  0  0  0  0  0  0  0
   25.6652    8.8029   55.2841 C   0  0  0  0  0  0  0  0  0  0  0  0
   26.4701    8.4904   54.2009 C   0  0  0  0  0  0  0  0  0  0  0  0
   27.8294    8.6173   54.3117 C   0  0  0  0  0  0  0  0  0  0  0  0
   28.4048    9.0514   55.4856 C   0  0  0  0  0  0  0  0  0  0  0  0
   27.6351    9.3678   56.5738 C   0  0  0  0  0  0  0  0  0  0  0  0
   26.2453    9.2314   56.4417 C   0  0  0  0  0  0  0  0  0  0  0  0
   28.2197    9.8165   57.7893 N   0  0  0  0  0  0  0  0  0  0  0  0
   28.5374   11.0855   58.1043 C   0  0  0  0  0  0  0  0  0  0  0  0
   29.0818   11.1091   59.3692 C   0  0  0  0  0  0  0  0  0  0  0  0
   29.0888    9.8325   59.8163 N   0  0  0  0  0  0  0  0  0  0  0  0
   28.5556    9.0488   58.8341 C   0  0  0  0  0  0  0  0  0  0  0  0
   18.8538    5.2202   53.2548 C   0  0  0  0  0  0  0  0  0  0  0  0
   17.7718    6.1069   53.3492 F   0  0  0  0  0  0  0  0  0  0  0  0
   18.8847    4.8470   51.9257 F   0  0  0  0  0  0  0  0  0  0  0  0
   18.6254    4.0618   53.9705 F   0  0  0  0  0  0  0  0  0  0  0  0
  1  2  1  0  0  0
  2  3  2  0  0  0
  3  4  1  0  0  0
  4  5  1  0  0  0
  5  6  2  0  0  0
  6  7  1  0  0  0
  7  8  1  0  0  0
  8  9  2  0  0  0
  8 10  1  0  0  0
 10 11  1  0  0  0
 11 12  1  0  0  0
 12 13  2  0  0  0
 13 26  1  0  0  0
 26 27  1  0  0  0
 26 28  1  0  0  0
 26 29  1  0  0  0
  6 15  1  0  0  0
 15 16  2  0  0  0
 16 17  1  0  0  0
 17 18  2  0  0  0
 18 19  1  0  0  0
 19 20  2  0  0  0
 19 21  1  0  0  0
 21 22  1  0  0  0
 22 23  2  0  0  0
 23 24  1  0  0  0
 24 25  2  0  0  0
 13  2  1  0  0  0
 20 15  1  0  0  0
 25 21  1  0  0  0
 11  4  2  0  0  0
 10 14  1  0  0  0
M  END
> <minimizedAffinity>
19.41497

> <CNNscore>
0.4577367604

> <CNNaffinity>
6.2039732933

> <CNN_VS>
2.8397865295

> <CNNaffinity_variance>
0.0527370349

$$$$
[H]c1nc([H])n(-c2c([H])c([H])c([H])c(C3=Nc4c([H])c(C([H])([H])[H])c(C(F)(F)F)c([H])c4N([H])C(=O)C3([H])[H])c2[H])c1[H]


 29 32  0  0  0  0  0  0  0  0999 V2000
   16.4297    4.7896   53.5980 C   0  0  0  0  0  0  0  0  0  0  0  0
   17.9313    4.8843   53.5387 C   0  0  0  0  0  0  0  0  0  0  0  0
   18.5763    6.0882   53.6754 C   0  0  0  0  0  0  0  0  0  0  0  0
   19.9464    6.1692   53.6197 C   0  0  0  0  0  0  0  0  0  0  0  0
   20.4285    7.4933   53.7829 N   0  0  0  0  0  0  0  0  0  0  0  0
   21.5537    8.0397   53.3627 C   0  0  0  0  0  0  0  0  0  0  0  0
   22.6201    7.3828   52.5950 C   0  0  0  0  0  0  0  0  0  0  0  0
   22.9983    6.0302   53.1499 C   0  0  0  0  0  0  0  0  0  0  0  0
   24.2007    5.8339   53.4636 O   0  0  0  0  0  0  0  0  0  0  0  0
   22.0910    4.9561   53.3446 N   0  0  0  0  0  0  0  0  0  0  0  0
   20.6688    4.9845   53.4185 C   0  0  0  0  0  0  0  0  0  0  0  0
   20.0440    3.7761   53.2803 C   0  0  0  0  0  0  0  0  0  0  0  0
   18.6732    3.7320   53.3412 C   0  0  0  0  0  0  0  0  0  0  0  0
   22.4992    3.9872   53.4531 H   0  0  0  0  0  0  0  0  0  0  0  0
   21.6943    9.4585   53.7320 C   0  0  0  0  0  0  0  0  0  0  0  0
   22.1121    9.8014   55.0074 C   0  0  0  0  0  0  0  0  0  0  0  0
   22.2301   11.1233   55.3460 C   0  0  0  0  0  0  0  0  0  0  0  0
   21.9386   12.1145   54.4348 C   0  0  0  0  0  0  0  0  0  0  0  0
   21.5230   11.8066   53.1662 C   0  0  0  0  0  0  0  0  0  0  0  0
   21.4079   10.4478   52.8377 C   0  0  0  0  0  0  0  0  0  0  0  0
   21.2200   12.8223   52.2191 N   0  0  0  0  0  0  0  0  0  0  0  0
   21.6193   12.8644   50.9349 C   0  0  0  0  0  0  0  0  0  0  0  0
   21.1201   14.0065   50.3489 C   0  0  0  0  0  0  0  0  0  0  0  0
   20.4109   14.6565   51.2996 N   0  0  0  0  0  0  0  0  0  0  0  0
   20.4812   13.9165   52.4444 C   0  0  0  0  0  0  0  0  0  0  0  0
   17.9983    2.4300   53.1941 C   0  0  0  0  0  0  0  0  0  0  0  0
   18.8913    1.3606   53.3518 F   0  0  0  0  0  0  0  0  0  0  0  0
   17.0949    2.2860   54.2283 F   0  0  0  0  0  0  0  0  0  0  0  0
   17.2660    2.3129   52.0295 F   0  0  0  0  0  0  0  0  0  0  0  0
  1  2  1  0  0  0
  2  3  2  0  0  0
  3  4  1  0  0  0
  4  5  1  0  0  0
  5  6  2  0  0  0
  6  7  1  0  0  0
  7  8  1  0  0  0
  8  9  2  0  0  0
  8 10  1  0  0  0
 10 11  1  0  0  0
 11 12  1  0  0  0
 12 13  2  0  0  0
 13 26  1  0  0  0
 26 27  1  0  0  0
 26 28  1  0  0  0
 26 29  1  0  0  0
  6 15  1  0  0  0
 15 16  2  0  0  0
 16 17  1  0  0  0
 17 18  2  0  0  0
 18 19  1  0  0  0
 19 20  2  0  0  0
 19 21  1  0  0  0
 21 22  1  0  0  0
 22 23  2  0  0  0
 23 24  1  0  0  0
 24 25  2  0  0  0
 13  2  1  0  0  0
 20 15  1  0  0  0
 25 21  1  0  0  0
 11  4  2  0  0  0
 10 14  1  0  0  0
M  END
> <minimizedAffinity>
44.84391

> <CNNscore>
0.4576938450

> <CNNaffinity>
6.2423391342

> <CNN_VS>
2.8570802212

> <CNNaffinity_variance>
0.4928959012

$$$$
[H]c1nc([H])n(-c2c([H])c([H])c([H])c(C3=Nc4c([H])c(C([H])([H])[H])c(C(F)(F)F)c([H])c4N([H])C(=O)C3([H])[H])c2[H])c1[H]


 29 32  0  0  0  0  0  0  0  0999 V2000
   27.6966    6.5161   53.9152 C   0  0  0  0  0  0  0  0  0  0  0  0
   26.3442    7.1027   54.2223 C   0  0  0  0  0  0  0  0  0  0  0  0
   25.1914    6.3892   54.0072 C   0  0  0  0  0  0  0  0  0  0  0  0
   23.9602    6.9294   54.2883 C   0  0  0  0  0  0  0  0  0  0  0  0
   22.8899    6.0431   54.0026 N   0  0  0  0  0  0  0  0  0  0  0  0
   21.6313    6.3071   53.7071 C   0  0  0  0  0  0  0  0  0  0  0  0
   21.0107    7.6342   53.5989 C   0  0  0  0  0  0  0  0  0  0  0  0
   21.3665    8.5468   54.7483 C   0  0  0  0  0  0  0  0  0  0  0  0
   20.4278    9.0446   55.4219 O   0  0  0  0  0  0  0  0  0  0  0  0
   22.6914    8.8873   55.1270 N   0  0  0  0  0  0  0  0  0  0  0  0
   23.9144    8.2331   54.8020 C   0  0  0  0  0  0  0  0  0  0  0  0
   25.0517    8.9592   55.0230 C   0  0  0  0  0  0  0  0  0  0  0  0
   26.2655    8.3882   54.7308 C   0  0  0  0  0  0  0  0  0  0  0  0
   22.8197    9.7418   55.7358 H   0  0  0  0  0  0  0  0  0  0  0  0
   20.8162    5.1036   53.4701 C   0  0  0  0  0  0  0  0  0  0  0  0
   21.4134    3.9491   52.9912 C   0  0  0  0  0  0  0  0  0  0  0  0
   20.6463    2.8374   52.7635 C   0  0  0  0  0  0  0  0  0  0  0  0
   19.2902    2.8536   53.0045 C   0  0  0  0  0  0  0  0  0  0  0  0
   18.6712    3.9803   53.4780 C   0  0  0  0  0  0  0  0  0  0  0  0
   19.4727    5.1088   53.7050 C   0  0  0  0  0  0  0  0  0  0  0  0
   17.2725    4.0066   53.7299 N   0  0  0  0  0  0  0  0  0  0  0  0
   16.3814    3.0542   53.3992 C   0  0  0  0  0  0  0  0  0  0  0  0
   15.1291    3.4506   53.8135 C   0  0  0  0  0  0  0  0  0  0  0  0
   15.2758    4.6599   54.4015 N   0  0  0  0  0  0  0  0  0  0  0  0
   16.5992    4.9890   54.3426 C   0  0  0  0  0  0  0  0  0  0  0  0
   27.4925    9.1688   54.9701 C   0  0  0  0  0  0  0  0  0  0  0  0
   27.3345   10.0744   56.0288 F   0  0  0  0  0  0  0  0  0  0  0  0
   28.4844    8.3064   55.3933 F   0  0  0  0  0  0  0  0  0  0  0  0
   27.9845    9.7898   53.8393 F   0  0  0  0  0  0  0  0  0  0  0  0
  1  2  1  0  0  0
  2  3  2  0  0  0
  3  4  1  0  0  0
  4  5  1  0  0  0
  5  6  2  0  0  0
  6  7  1  0  0  0
  7  8  1  0  0  0
  8  9  2  0  0  0
  8 10  1  0  0  0
 10 11  1  0  0  0
 11 12  1  0  0  0
 12 13  2  0  0  0
 13 26  1  0  0  0
 26 27  1  0  0  0
 26 28  1  0  0  0
 26 29  1  0  0  0
  6 15  1  0  0  0
 15 16  2  0  0  0
 16 17  1  0  0  0
 17 18  2  0  0  0
 18 19  1  0  0  0
 19 20  2  0  0  0
 19 21  1  0  0  0
 21 22  1  0  0  0
 22 23  2  0  0  0
 23 24  1  0  0  0
 24 25  2  0  0  0
 13  2  1  0  0  0
 20 15  1  0  0  0
 25 21  1  0  0  0
 11  4  2  0  0  0
 10 14  1  0  0  0
M  END
> <minimizedAffinity>
31.03270

> <CNNscore>
0.4524905682

> <CNNaffinity>
6.3115544319

> <CNN_VS>
2.8559188843

> <CNNaffinity_variance>
0.5840060115

$$$$
[H]c1c([H])c(-c2nc(-c3c([H])c(C([H])([H])[H])nc(C([H])([H])[H])c3[H])c3n2C([H])([H])[C@@]([H])(C([H])([H])[H])OC([H])([H])C3([H])[H])c([H])c(C#N)c1F


 28 31  0  0  0  0  0  0  0  0999 V2000
   21.6173   11.8906   52.1492 C   0  0  0  0  0  0  0  0  0  0  0  0
   21.3474   10.3781   52.3183 C   0  0  0  0  0  0  0  0  0  0  0  0
   22.6441    9.7012   52.6228 C   0  0  0  0  0  0  0  0  0  0  0  0
   22.5667    8.3348   52.9722 N   0  0  0  0  0  0  0  0  0  0  0  0
   21.4862    7.5097   52.8450 C   0  0  0  0  0  0  0  0  0  0  0  0
   20.1986    7.9409   52.2800 C   0  0  0  0  0  0  0  0  0  0  0  0
   20.4356    8.6806   50.9791 C   0  0  0  0  0  0  0  0  0  0  0  0
   20.6031    9.9851   51.2887 O   0  0  0  0  0  0  0  0  0  0  0  0
   21.7915    6.2779   53.3232 C   0  0  0  0  0  0  0  0  0  0  0  0
   23.0599    6.3653   53.7393 N   0  0  0  0  0  0  0  0  0  0  0  0
   23.5594    7.6378   53.5273 C   0  0  0  0  0  0  0  0  0  0  0  0
   20.9140    5.1050   53.3899 C   0  0  0  0  0  0  0  0  0  0  0  0
   21.3144    3.8305   53.0836 C   0  0  0  0  0  0  0  0  0  0  0  0
   20.3896    2.7856   53.1657 C   0  0  0  0  0  0  0  0  0  0  0  0
   20.8367    1.3995   52.8289 C   0  0  0  0  0  0  0  0  0  0  0  0
   19.1277    3.0529   53.5438 N   0  0  0  0  0  0  0  0  0  0  0  0
   18.6985    4.2811   53.8511 C   0  0  0  0  0  0  0  0  0  0  0  0
   17.3029    4.5715   54.2686 C   0  0  0  0  0  0  0  0  0  0  0  0
   19.5853    5.3123   53.7766 C   0  0  0  0  0  0  0  0  0  0  0  0
   24.9138    7.9542   53.9298 C   0  0  0  0  0  0  0  0  0  0  0  0
   25.9103    7.9675   52.9546 C   0  0  0  0  0  0  0  0  0  0  0  0
   27.2141    8.2954   53.2417 C   0  0  0  0  0  0  0  0  0  0  0  0
   27.5649    8.6215   54.5159 C   0  0  0  0  0  0  0  0  0  0  0  0
   28.8613    8.9494   54.8130 F   0  0  0  0  0  0  0  0  0  0  0  0
   26.6269    8.6245   55.5084 C   0  0  0  0  0  0  0  0  0  0  0  0
   25.2917    8.2856   55.1960 C   0  0  0  0  0  0  0  0  0  0  0  0
   26.9717    8.9650   56.8604 C   0  0  0  0  0  0  0  0  0  0  0  0
   27.2735    9.2417   57.9602 N   0  0  0  0  0  0  0  0  0  0  0  0
  1  2  1  0  0  0
  2  3  1  0  0  0
  3  4  1  0  0  0
  4  5  1  0  0  0
  5  6  1  0  0  0
  6  7  1  0  0  0
  7  8  1  0  0  0
  5  9  2  0  0  0
  9 10  1  0  0  0
 10 11  2  0  0  0
 11 20  1  0  0  0
 20 21  2  0  0  0
 21 22  1  0  0  0
 22 23  2  0  0  0
 23 24  1  0  0  0
 23 25  1  0  0  0
 25 26  2  0  0  0
 25 27  1  0  0  0
 27 28  3  0  0  0
  9 12  1  0  0  0
 12 13  2  0  0  0
 13 14  1  0  0  0
 14 15  1  0  0  0
 14 16  2  0  0  0
 16 17  1  0  0  0
 17 18  1  0  0  0
 17 19  2  0  0  0
  8  2  1  0  0  0
 26 20  1  0  0  0
 19 12  1  0  0  0
 11  4  1  0  0  0
M  END
> <minimizedAffinity>
24.21389

> <CNNscore>
0.5911679268

> <CNNaffinity>
6.6652846336

> <CNN_VS>
3.9403026104

> <CNNaffinity_variance>
0.4922561646

$$$$
[H]c1c([H])c(-c2nc(-c3c([H])c(C([H])([H])[H])nc(C([H])([H])[H])c3[H])c3n2C([H])([H])[C@@]([H])(C([H])([H])[H])OC([H])([H])C3([H])[H])c([H])c(C#N)c1F


 28 31  0  0  0  0  0  0  0  0999 V2000
   21.6544   11.9572   52.0149 C   0  0  0  0  0  0  0  0  0  0  0  0
   21.3247   10.4612   52.2206 C   0  0  0  0  0  0  0  0  0  0  0  0
   22.5925    9.7420   52.5488 C   0  0  0  0  0  0  0  0  0  0  0  0
   22.4600    8.3890   52.9319 N   0  0  0  0  0  0  0  0  0  0  0  0
   21.3485    7.6038   52.8197 C   0  0  0  0  0  0  0  0  0  0  0  0
   20.0813    8.0706   52.2373 C   0  0  0  0  0  0  0  0  0  0  0  0
   20.3527    8.7674   50.9195 C   0  0  0  0  0  0  0  0  0  0  0  0
   20.5699   10.0717   51.1972 O   0  0  0  0  0  0  0  0  0  0  0  0
   21.6031    6.3734   53.3303 C   0  0  0  0  0  0  0  0  0  0  0  0
   22.8723    6.4216   53.7508 N   0  0  0  0  0  0  0  0  0  0  0  0
   23.4222    7.6678   53.5096 C   0  0  0  0  0  0  0  0  0  0  0  0
   20.6800    5.2378   53.4218 C   0  0  0  0  0  0  0  0  0  0  0  0
   19.3825    5.3383   53.8518 C   0  0  0  0  0  0  0  0  0  0  0  0
   18.5930    4.1866   53.9157 C   0  0  0  0  0  0  0  0  0  0  0  0
   17.1794    4.3072   54.3867 C   0  0  0  0  0  0  0  0  0  0  0  0
   19.1228    3.0055   53.5536 N   0  0  0  0  0  0  0  0  0  0  0  0
   20.3826    2.8660   53.1286 C   0  0  0  0  0  0  0  0  0  0  0  0
   20.9636    1.5587   52.7292 C   0  0  0  0  0  0  0  0  0  0  0  0
   21.1675    3.9771   53.0599 C   0  0  0  0  0  0  0  0  0  0  0  0
   24.7862    7.9412   53.9112 C   0  0  0  0  0  0  0  0  0  0  0  0
   25.7896    7.8695   52.9457 C   0  0  0  0  0  0  0  0  0  0  0  0
   27.1045    8.1515   53.2310 C   0  0  0  0  0  0  0  0  0  0  0  0
   27.4598    8.5154   54.4937 C   0  0  0  0  0  0  0  0  0  0  0  0
   28.7672    8.7982   54.7890 F   0  0  0  0  0  0  0  0  0  0  0  0
   26.5154    8.6015   55.4763 C   0  0  0  0  0  0  0  0  0  0  0  0
   25.1689    8.3087   55.1659 C   0  0  0  0  0  0  0  0  0  0  0  0
   26.8648    8.9832   56.8161 C   0  0  0  0  0  0  0  0  0  0  0  0
   27.1654    9.2811   57.9106 N   0  0  0  0  0  0  0  0  0  0  0  0
  1  2  1  0  0  0
  2  3  1  0  0  0
  3  4  1  0  0  0
  4  5  1  0  0  0
  5  6  1  0  0  0
  6  7  1  0  0  0
  7  8  1  0  0  0
  5  9  2  0  0  0
  9 10  1  0  0  0
 10 11  2  0  0  0
 11 20  1  0  0  0
 20 21  2  0  0  0
 21 22  1  0  0  0
 22 23  2  0  0  0
 23 24  1  0  0  0
 23 25  1  0  0  0
 25 26  2  0  0  0
 25 27  1  0  0  0
 27 28  3  0  0  0
  9 12  1  0  0  0
 12 13  2  0  0  0
 13 14  1  0  0  0
 14 15  1  0  0  0
 14 16  2  0  0  0
 16 17  1  0  0  0
 17 18  1  0  0  0
 17 19  2  0  0  0
  8  2  1  0  0  0
 26 20  1  0  0  0
 19 12  1  0  0  0
 11  4  1  0  0  0
M  END
> <minimizedAffinity>
24.43293

> <CNNscore>
0.5845012665

> <CNNaffinity>
6.6840476990

> <CNN_VS>
3.9068343639

> <CNNaffinity_variance>
0.5315043330

$$$$
[H]c1c([H])c(-c2nc(-c3c([H])c(C([H])([H])[H])nc(C([H])([H])[H])c3[H])c3n2C([H])([H])[C@@]([H])(C([H])([H])[H])OC([H])([H])C3([H])[H])c([H])c(C#N)c1F


 28 31  0  0  0  0  0  0  0  0999 V2000
   19.2349   10.2951   55.7066 C   0  0  0  0  0  0  0  0  0  0  0  0
   20.6932    9.9384   55.3389 C   0  0  0  0  0  0  0  0  0  0  0  0
   20.7553    8.4780   55.0293 C   0  0  0  0  0  0  0  0  0  0  0  0
   21.9805    8.0024   54.5120 N   0  0  0  0  0  0  0  0  0  0  0  0
   23.1742    8.6645   54.4750 C   0  0  0  0  0  0  0  0  0  0  0  0
   23.3669   10.0195   55.0133 C   0  0  0  0  0  0  0  0  0  0  0  0
   22.7765   10.1029   56.4061 C   0  0  0  0  0  0  0  0  0  0  0  0
   21.4831   10.4684   56.2682 O   0  0  0  0  0  0  0  0  0  0  0  0
   24.1086    7.8911   53.8685 C   0  0  0  0  0  0  0  0  0  0  0  0
   23.4723    6.7611   53.5400 N   0  0  0  0  0  0  0  0  0  0  0  0
   22.1472    6.8116   53.9341 C   0  0  0  0  0  0  0  0  0  0  0  0
   25.5120    8.2274   53.6087 C   0  0  0  0  0  0  0  0  0  0  0  0
   26.0008    8.5745   52.3761 C   0  0  0  0  0  0  0  0  0  0  0  0
   27.3619    8.8607   52.2369 C   0  0  0  0  0  0  0  0  0  0  0  0
   27.8848    9.2375   50.8881 C   0  0  0  0  0  0  0  0  0  0  0  0
   28.1620    8.7901   53.3147 N   0  0  0  0  0  0  0  0  0  0  0  0
   27.7241    8.4563   54.5329 C   0  0  0  0  0  0  0  0  0  0  0  0
   28.6121    8.3799   55.7210 C   0  0  0  0  0  0  0  0  0  0  0  0
   26.4007    8.1735   54.6881 C   0  0  0  0  0  0  0  0  0  0  0  0
   21.2706    5.6943   53.6520 C   0  0  0  0  0  0  0  0  0  0  0  0
   21.8222    4.5424   53.0924 C   0  0  0  0  0  0  0  0  0  0  0  0
   21.0707    3.4219   52.8288 C   0  0  0  0  0  0  0  0  0  0  0  0
   19.7403    3.4164   53.1169 C   0  0  0  0  0  0  0  0  0  0  0  0
   18.9821    2.3053   52.8579 F   0  0  0  0  0  0  0  0  0  0  0  0
   19.1508    4.5187   53.6665 C   0  0  0  0  0  0  0  0  0  0  0  0
   19.9377    5.6615   53.9314 C   0  0  0  0  0  0  0  0  0  0  0  0
   17.7492    4.5379   53.9797 C   0  0  0  0  0  0  0  0  0  0  0  0
   16.6023    4.5718   54.2259 N   0  0  0  0  0  0  0  0  0  0  0  0
  1  2  1  0  0  0
  2  3  1  0  0  0
  3  4  1  0  0  0
  4  5  1  0  0  0
  5  6  1  0  0  0
  6  7  1  0  0  0
  7  8  1  0  0  0
  5  9  2  0  0  0
  9 10  1  0  0  0
 10 11  2  0  0  0
 11 20  1  0  0  0
 20 21  2  0  0  0
 21 22  1  0  0  0
 22 23  2  0  0  0
 23 24  1  0  0  0
 23 25  1  0  0  0
 25 26  2  0  0  0
 25 27  1  0  0  0
 27 28  3  0  0  0
  9 12  1  0  0  0
 12 13  2  0  0  0
 13 14  1  0  0  0
 14 15  1  0  0  0
 14 16  2  0  0  0
 16 17  1  0  0  0
 17 18  1  0  0  0
 17 19  2  0  0  0
  8  2  1  0  0  0
 26 20  1  0  0  0
 19 12  1  0  0  0
 11  4  1  0  0  0
M  END
> <minimizedAffinity>
38.66443

> <CNNscore>
0.5709739327

> <CNNaffinity>
6.4006433487

> <CNN_VS>
3.6546006203

> <CNNaffinity_variance>
0.8375903368

$$$$
[H]c1c([H])c(-c2nc(-c3c([H])c(C([H])([H])[H])nc(C([H])([H])[H])c3[H])c3n2C([H])([H])[C@@]([H])(C([H])([H])[H])OC([H])([H])C3([H])[H])c([H])c(C#N)c1F


 28 31  0  0  0  0  0  0  0  0999 V2000
   19.6211    9.8914   50.6068 C   0  0  0  0  0  0  0  0  0  0  0  0
   20.8460    9.6418   51.5159 C   0  0  0  0  0  0  0  0  0  0  0  0
   20.6483    8.3405   52.2229 C   0  0  0  0  0  0  0  0  0  0  0  0
   21.7460    7.8671   52.9751 N   0  0  0  0  0  0  0  0  0  0  0  0
   22.8734    8.5582   53.3158 C   0  0  0  0  0  0  0  0  0  0  0  0
   23.1045    9.9637   52.9499 C   0  0  0  0  0  0  0  0  0  0  0  0
   21.8772   10.7860   53.2862 C   0  0  0  0  0  0  0  0  0  0  0  0
   21.0714   10.7586   52.2020 O   0  0  0  0  0  0  0  0  0  0  0  0
   23.7133    7.7511   54.0103 C   0  0  0  0  0  0  0  0  0  0  0  0
   23.0870    6.5712   54.0856 N   0  0  0  0  0  0  0  0  0  0  0  0
   21.8604    6.6251   53.4483 C   0  0  0  0  0  0  0  0  0  0  0  0
   25.0349    8.0906   54.5471 C   0  0  0  0  0  0  0  0  0  0  0  0
   25.2343    8.8894   55.6429 C   0  0  0  0  0  0  0  0  0  0  0  0
   26.5400    9.1625   56.0605 C   0  0  0  0  0  0  0  0  0  0  0  0
   26.7463   10.0354   57.2564 C   0  0  0  0  0  0  0  0  0  0  0  0
   27.5719    8.6354   55.3792 N   0  0  0  0  0  0  0  0  0  0  0  0
   27.4193    7.8519   54.3069 C   0  0  0  0  0  0  0  0  0  0  0  0
   28.5627    7.2715   53.5573 C   0  0  0  0  0  0  0  0  0  0  0  0
   26.1542    7.5748   53.8846 C   0  0  0  0  0  0  0  0  0  0  0  0
   21.0272    5.4423   53.3926 C   0  0  0  0  0  0  0  0  0  0  0  0
   21.6084    4.2389   52.9947 C   0  0  0  0  0  0  0  0  0  0  0  0
   20.9009    3.0609   52.9513 C   0  0  0  0  0  0  0  0  0  0  0  0
   19.5865    3.0477   53.3052 C   0  0  0  0  0  0  0  0  0  0  0  0
   18.8722    1.8795   53.2651 F   0  0  0  0  0  0  0  0  0  0  0  0
   18.9695    4.1991   53.7030 C   0  0  0  0  0  0  0  0  0  0  0  0
   19.7113    5.4006   53.7424 C   0  0  0  0  0  0  0  0  0  0  0  0
   17.5840    4.2113   54.0814 C   0  0  0  0  0  0  0  0  0  0  0  0
   16.4484    4.2060   54.3770 N   0  0  0  0  0  0  0  0  0  0  0  0
  1  2  1  0  0  0
  2  3  1  0  0  0
  3  4  1  0  0  0
  4  5  1  0  0  0
  5  6  1  0  0  0
  6  7  1  0  0  0
  7  8  1  0  0  0
  5  9  2  0  0  0
  9 10  1  0  0  0
 10 11  2  0  0  0
 11 20  1  0  0  0
 20 21  2  0  0  0
 21 22  1  0  0  0
 22 23  2  0  0  0
 23 24  1  0  0  0
 23 25  1  0  0  0
 25 26  2  0  0  0
 25 27  1  0  0  0
 27 28  3  0  0  0
  9 12  1  0  0  0
 12 13  2  0  0  0
 13 14  1  0  0  0
 14 15  1  0  0  0
 14 16  2  0  0  0
 16 17  1  0  0  0
 17 18  1  0  0  0
 17 19  2  0  0  0
  8  2  1  0  0  0
 26 20  1  0  0  0
 19 12  1  0  0  0
 11  4  1  0  0  0
M  END
> <minimizedAffinity>
34.78889

> <CNNscore>
0.5414685607

> <CNNaffinity>
6.5001854897

> <CNN_VS>
3.5196461678

> <CNNaffinity_variance>
0.9803563356

$$$$
[H]c1c([H])c(-c2nc(-c3c([H])c(C([H])([H])[H])nc(C([H])([H])[H])c3[H])c3n2C([H])([H])[C@@]([H])(C([H])([H])[H])OC([H])([H])C3([H])[H])c([H])c(C#N)c1F


 28 31  0  0  0  0  0  0  0  0999 V2000
   21.4051   11.8455   51.7800 C   0  0  0  0  0  0  0  0  0  0  0  0
   21.1347   10.3444   52.0298 C   0  0  0  0  0  0  0  0  0  0  0  0
   22.3618    9.7401   52.6310 C   0  0  0  0  0  0  0  0  0  0  0  0
   22.2435    8.4062   53.0800 N   0  0  0  0  0  0  0  0  0  0  0  0
   21.2214    7.5369   52.8267 C   0  0  0  0  0  0  0  0  0  0  0  0
   20.0570    7.8749   51.9942 C   0  0  0  0  0  0  0  0  0  0  0  0
   20.5233    8.5100   50.7001 C   0  0  0  0  0  0  0  0  0  0  0  0
   20.6061    9.8409   50.9181 O   0  0  0  0  0  0  0  0  0  0  0  0
   21.4520    6.3609   53.4615 C   0  0  0  0  0  0  0  0  0  0  0  0
   22.6168    6.5262   54.0985 N   0  0  0  0  0  0  0  0  0  0  0  0
   23.1250    7.7926   53.8713 C   0  0  0  0  0  0  0  0  0  0  0  0
   20.5985    5.1686   53.4669 C   0  0  0  0  0  0  0  0  0  0  0  0
   21.0225    3.9215   53.0879 C   0  0  0  0  0  0  0  0  0  0  0  0
   20.1192    2.8552   53.1160 C   0  0  0  0  0  0  0  0  0  0  0  0
   20.5918    1.4993   52.7001 C   0  0  0  0  0  0  0  0  0  0  0  0
   18.8546    3.0753   53.5147 N   0  0  0  0  0  0  0  0  0  0  0  0
   18.4028    4.2755   53.8922 C   0  0  0  0  0  0  0  0  0  0  0  0
   17.0043    4.5138   54.3323 C   0  0  0  0  0  0  0  0  0  0  0  0
   19.2683    5.3270   53.8711 C   0  0  0  0  0  0  0  0  0  0  0  0
   24.3727    8.1878   54.4906 C   0  0  0  0  0  0  0  0  0  0  0  0
   24.3246    9.0173   55.6104 C   0  0  0  0  0  0  0  0  0  0  0  0
   25.4577    9.4088   56.2832 C   0  0  0  0  0  0  0  0  0  0  0  0
   26.6784    8.9828   55.8576 C   0  0  0  0  0  0  0  0  0  0  0  0
   27.8139    9.3673   56.5204 F   0  0  0  0  0  0  0  0  0  0  0  0
   26.7809    8.1685   54.7662 C   0  0  0  0  0  0  0  0  0  0  0  0
   25.6066    7.7753   54.0868 C   0  0  0  0  0  0  0  0  0  0  0  0
   28.0571    7.7054   54.2974 C   0  0  0  0  0  0  0  0  0  0  0  0
   29.0965    7.3089   53.9240 N   0  0  0  0  0  0  0  0  0  0  0  0
  1  2  1  0  0  0
  2  3  1  0  0  0
  3  4  1  0  0  0
  4  5  1  0  0  0
  5  6  1  0  0  0
  6  7  1  0  0  0
  7  8  1  0  0  0
  5  9  2  0  0  0
  9 10  1  0  0  0
 10 11  2  0  0  0
 11 20  1  0  0  0
 20 21  2  0  0  0
 21 22  1  0  0  0
 22 23  2  0  0  0
 23 24  1  0  0  0
 23 25  1  0  0  0
 25 26  2  0  0  0
 25 27  1  0  0  0
 27 28  3  0  0  0
  9 12  1  0  0  0
 12 13  2  0  0  0
 13 14  1  0  0  0
 14 15  1  0  0  0
 14 16  2  0  0  0
 16 17  1  0  0  0
 17 18  1  0  0  0
 17 19  2  0  0  0
  8  2  1  0  0  0
 26 20  1  0  0  0
 19 12  1  0  0  0
 11  4  1  0  0  0
M  END
> <minimizedAffinity>
25.22074

> <CNNscore>
0.5340173244

> <CNNaffinity>
6.5603494644

> <CNN_VS>
3.5033402443

> <CNNaffinity_variance>
0.5339574218

$$$$
[H]c1c([H])c(-c2nc(-c3c([H])c(C([H])([H])[H])nc(C([H])([H])[H])c3[H])c3n2C([H])([H])[C@@]([H])(C([H])([H])[H])OC([H])([H])C3([H])[H])c([H])c(C#N)c1F


 28 31  0  0  0  0  0  0  0  0999 V2000
   21.4633   11.9019   51.6724 C   0  0  0  0  0  0  0  0  0  0  0  0
   21.1305   10.4193   51.9554 C   0  0  0  0  0  0  0  0  0  0  0  0
   22.3338    9.7762   52.5644 C   0  0  0  0  0  0  0  0  0  0  0  0
   22.1612    8.4584   53.0423 N   0  0  0  0  0  0  0  0  0  0  0  0
   21.1017    7.6283   52.8119 C   0  0  0  0  0  0  0  0  0  0  0  0
   19.9486    7.9978   51.9773 C   0  0  0  0  0  0  0  0  0  0  0  0
   20.4350    8.5849   50.6679 C   0  0  0  0  0  0  0  0  0  0  0  0
   20.5754    9.9153   50.8570 O   0  0  0  0  0  0  0  0  0  0  0  0
   21.2854    6.4572   53.4708 C   0  0  0  0  0  0  0  0  0  0  0  0
   22.4593    6.5862   54.0993 N   0  0  0  0  0  0  0  0  0  0  0  0
   23.0198    7.8247   53.8429 C   0  0  0  0  0  0  0  0  0  0  0  0
   20.3820    5.3027   53.5054 C   0  0  0  0  0  0  0  0  0  0  0  0
   19.0770    5.3635   53.9200 C   0  0  0  0  0  0  0  0  0  0  0  0
   18.3079    4.1964   53.9283 C   0  0  0  0  0  0  0  0  0  0  0  0
   16.8859    4.2737   54.3829 C   0  0  0  0  0  0  0  0  0  0  0  0
   18.8642    3.0398   53.5289 N   0  0  0  0  0  0  0  0  0  0  0  0
   20.1321    2.9391   53.1173 C   0  0  0  0  0  0  0  0  0  0  0  0
   20.7423    1.6586   52.6767 C   0  0  0  0  0  0  0  0  0  0  0  0
   20.8974    4.0658   53.1027 C   0  0  0  0  0  0  0  0  0  0  0  0
   24.2862    8.1795   54.4485 C   0  0  0  0  0  0  0  0  0  0  0  0
   24.2771    9.0098   55.5686 C   0  0  0  0  0  0  0  0  0  0  0  0
   25.4295    9.3645   56.2289 C   0  0  0  0  0  0  0  0  0  0  0  0
   26.6312    8.8995   55.7900 C   0  0  0  0  0  0  0  0  0  0  0  0
   27.7857    9.2472   56.4403 F   0  0  0  0  0  0  0  0  0  0  0  0
   26.6955    8.0826   54.6976 C   0  0  0  0  0  0  0  0  0  0  0  0
   25.5017    7.7275   54.0312 C   0  0  0  0  0  0  0  0  0  0  0  0
   27.9509    7.5788   54.2149 C   0  0  0  0  0  0  0  0  0  0  0  0
   28.9745    7.1507   53.8328 N   0  0  0  0  0  0  0  0  0  0  0  0
  1  2  1  0  0  0
  2  3  1  0  0  0
  3  4  1  0  0  0
  4  5  1  0  0  0
  5  6  1  0  0  0
  6  7  1  0  0  0
  7  8  1  0  0  0
  5  9  2  0  0  0
  9 10  1  0  0  0
 10 11  2  0  0  0
 11 20  1  0  0  0
 20 21  2  0  0  0
 21 22  1  0  0  0
 22 23  2  0  0  0
 23 24  1  0  0  0
 23 25  1  0  0  0
 25 26  2  0  0  0
 25 27  1  0  0  0
 27 28  3  0  0  0
  9 12  1  0  0  0
 12 13  2  0  0  0
 13 14  1  0  0  0
 14 15  1  0  0  0
 14 16  2  0  0  0
 16 17  1  0  0  0
 17 18  1  0  0  0
 17 19  2  0  0  0
  8  2  1  0  0  0
 26 20  1  0  0  0
 19 12  1  0  0  0
 11  4  1  0  0  0
M  END
> <minimizedAffinity>
24.89850

> <CNNscore>
0.5286516547

> <CNNaffinity>
6.5749635696

> <CNN_VS>
3.4758653641

> <CNNaffinity_variance>
0.5874444246

$$$$
[H]c1c([H])c(-c2nc(-c3c([H])c(C([H])([H])[H])nc(C([H])([H])[H])c3[H])c3n2C([H])([H])[C@@]([H])(C([H])([H])[H])OC([H])([H])C3([H])[H])c([H])c(C#N)c1F


 28 31  0  0  0  0  0  0  0  0999 V2000
   21.4986   11.4065   56.0167 C   0  0  0  0  0  0  0  0  0  0  0  0
   21.3261    9.9867   55.4306 C   0  0  0  0  0  0  0  0  0  0  0  0
   22.6591    9.5121   54.9506 C   0  0  0  0  0  0  0  0  0  0  0  0
   22.7268    8.1650   54.5315 N   0  0  0  0  0  0  0  0  0  0  0  0
   21.6808    7.3183   54.3000 C   0  0  0  0  0  0  0  0  0  0  0  0
   20.2712    7.7140   54.4391 C   0  0  0  0  0  0  0  0  0  0  0  0
   20.0375    9.0271   53.7203 C   0  0  0  0  0  0  0  0  0  0  0  0
   20.2807   10.0153   54.6092 O   0  0  0  0  0  0  0  0  0  0  0  0
   22.1501    6.0959   53.9468 C   0  0  0  0  0  0  0  0  0  0  0  0
   23.4829    6.2102   53.9673 N   0  0  0  0  0  0  0  0  0  0  0  0
   23.8601    7.4915   54.3275 C   0  0  0  0  0  0  0  0  0  0  0  0
   21.3665    4.8978   53.6297 C   0  0  0  0  0  0  0  0  0  0  0  0
   21.9124    3.7197   53.1907 C   0  0  0  0  0  0  0  0  0  0  0  0
   21.0699    2.6425   52.9014 C   0  0  0  0  0  0  0  0  0  0  0  0
   21.6756    1.3624   52.4226 C   0  0  0  0  0  0  0  0  0  0  0  0
   19.7428    2.7847   53.0605 N   0  0  0  0  0  0  0  0  0  0  0  0
   19.1721    3.9160   53.4866 C   0  0  0  0  0  0  0  0  0  0  0  0
   17.7049    4.0683   53.6612 C   0  0  0  0  0  0  0  0  0  0  0  0
   19.9769    4.9769   53.7732 C   0  0  0  0  0  0  0  0  0  0  0  0
   25.2654    7.8235   54.4337 C   0  0  0  0  0  0  0  0  0  0  0  0
   26.0779    7.6378   53.3158 C   0  0  0  0  0  0  0  0  0  0  0  0
   27.4135    7.9635   53.3167 C   0  0  0  0  0  0  0  0  0  0  0  0
   27.9815    8.4868   54.4376 C   0  0  0  0  0  0  0  0  0  0  0  0
   29.3116    8.8144   54.4494 F   0  0  0  0  0  0  0  0  0  0  0  0
   27.2298    8.6894   55.5595 C   0  0  0  0  0  0  0  0  0  0  0  0
   25.8589    8.3497   55.5413 C   0  0  0  0  0  0  0  0  0  0  0  0
   27.8056    9.2402   56.7545 C   0  0  0  0  0  0  0  0  0  0  0  0
   28.2942    9.6818   57.7257 N   0  0  0  0  0  0  0  0  0  0  0  0
  1  2  1  0  0  0
  2  3  1  0  0  0
  3  4  1  0  0  0
  4  5  1  0  0  0
  5  6  1  0  0  0
  6  7  1  0  0  0
  7  8  1  0  0  0
  5  9  2  0  0  0
  9 10  1  0  0  0
 10 11  2  0  0  0
 11 20  1  0  0  0
 20 21  2  0  0  0
 21 22  1  0  0  0
 22 23  2  0  0  0
 23 24  1  0  0  0
 23 25  1  0  0  0
 25 26  2  0  0  0
 25 27  1  0  0  0
 27 28  3  0  0  0
  9 12  1  0  0  0
 12 13  2  0  0  0
 13 14  1  0  0  0
 14 15  1  0  0  0
 14 16  2  0  0  0
 16 17  1  0  0  0
 17 18  1  0  0  0
 17 19  2  0  0  0
  8  2  1  0  0  0
 26 20  1  0  0  0
 19 12  1  0  0  0
 11  4  1  0  0  0
M  END
> <minimizedAffinity>
35.82046

> <CNNscore>
0.5209242702

> <CNNaffinity>
6.3853039742

> <CNN_VS>
3.3262598515

> <CNNaffinity_variance>
0.4725000262

$$$$
[H]c1c([H])c(-c2nc(-c3c([H])c(C([H])([H])[H])nc(C([H])([H])[H])c3[H])c3n2C([H])([H])[C@@]([H])(C([H])([H])[H])OC([H])([H])C3([H])[H])c([H])c(C#N)c1F


 28 31  0  0  0  0  0  0  0  0999 V2000
   22.5635    7.5888   52.3521 C   0  0  0  0  0  0  0  0  0  0  0  0
   23.6534    7.9502   53.3868 C   0  0  0  0  0  0  0  0  0  0  0  0
   24.9625    8.0511   52.6737 C   0  0  0  0  0  0  0  0  0  0  0  0
   26.0500    8.5358   53.4335 N   0  0  0  0  0  0  0  0  0  0  0  0
   26.1012    8.7059   54.7874 C   0  0  0  0  0  0  0  0  0  0  0  0
   24.9883    8.3723   55.6892 C   0  0  0  0  0  0  0  0  0  0  0  0
   24.4682    6.9866   55.3652 C   0  0  0  0  0  0  0  0  0  0  0  0
   23.5085    7.1322   54.4254 O   0  0  0  0  0  0  0  0  0  0  0  0
   27.3029    9.2270   55.1386 C   0  0  0  0  0  0  0  0  0  0  0  0
   27.9745    9.3705   53.9905 N   0  0  0  0  0  0  0  0  0  0  0  0
   27.2111    8.9440   52.9187 C   0  0  0  0  0  0  0  0  0  0  0  0
   27.7626    9.5783   56.4860 C   0  0  0  0  0  0  0  0  0  0  0  0
   27.8314   10.8620   56.9614 C   0  0  0  0  0  0  0  0  0  0  0  0
   28.3011   11.0857   58.2587 C   0  0  0  0  0  0  0  0  0  0  0  0
   28.3726   12.4897   58.7671 C   0  0  0  0  0  0  0  0  0  0  0  0
   28.6745   10.0373   59.0125 N   0  0  0  0  0  0  0  0  0  0  0  0
   28.6220    8.7714   58.5861 C   0  0  0  0  0  0  0  0  0  0  0  0
   29.0355    7.6161   59.4230 C   0  0  0  0  0  0  0  0  0  0  0  0
   28.1673    8.5336   57.3243 C   0  0  0  0  0  0  0  0  0  0  0  0
   27.7439    9.0354   51.5755 C   0  0  0  0  0  0  0  0  0  0  0  0
   28.1366    7.8604   50.9356 C   0  0  0  0  0  0  0  0  0  0  0  0
   28.6161    7.8511   49.6472 C   0  0  0  0  0  0  0  0  0  0  0  0
   28.7186    9.0187   48.9550 C   0  0  0  0  0  0  0  0  0  0  0  0
   29.1954    9.0208   47.6709 F   0  0  0  0  0  0  0  0  0  0  0  0
   28.3468   10.1976   49.5355 C   0  0  0  0  0  0  0  0  0  0  0  0
   27.8557   10.1891   50.8599 C   0  0  0  0  0  0  0  0  0  0  0  0
   28.4452   11.4426   48.8262 C   0  0  0  0  0  0  0  0  0  0  0  0
   28.5452   12.4620   48.2536 N   0  0  0  0  0  0  0  0  0  0  0  0
  1  2  1  0  0  0
  2  3  1  0  0  0
  3  4  1  0  0  0
  4  5  1  0  0  0
  5  6  1  0  0  0
  6  7  1  0  0  0
  7  8  1  0  0  0
  5  9  2  0  0  0
  9 10  1  0  0  0
 10 11  2  0  0  0
 11 20  1  0  0  0
 20 21  2  0  0  0
 21 22  1  0  0  0
 22 23  2  0  0  0
 23 24  1  0  0  0
 23 25  1  0  0  0
 25 26  2  0  0  0
 25 27  1  0  0  0
 27 28  3  0  0  0
  9 12  1  0  0  0
 12 13  2  0  0  0
 13 14  1  0  0  0
 14 15  1  0  0  0
 14 16  2  0  0  0
 16 17  1  0  0  0
 17 18  1  0  0  0
 17 19  2  0  0  0
  8  2  1  0  0  0
 26 20  1  0  0  0
 19 12  1  0  0  0
 11  4  1  0  0  0
M  END
> <minimizedAffinity>
36.53546

> <CNNscore>
0.4954377711

> <CNNaffinity>
5.7470259666

> <CNN_VS>
2.8472938538

> <CNNaffinity_variance>
0.3019058108

$$$$
[H]c1c([H])c(-c2nc(-c3c([H])c(C([H])([H])[H])nc(C([H])([H])[H])c3[H])c3n2C([H])([H])[C@@]([H])(C([H])([H])[H])OC([H])([H])C3([H])[H])c([H])c(C#N)c1F


 28 31  0  0  0  0  0  0  0  0999 V2000
   21.4015   11.5828   55.0526 C   0  0  0  0  0  0  0  0  0  0  0  0
   21.1305   10.1134   54.6570 C   0  0  0  0  0  0  0  0  0  0  0  0
   22.4168    9.5052   54.2013 C   0  0  0  0  0  0  0  0  0  0  0  0
   22.3956    8.1146   53.9547 N   0  0  0  0  0  0  0  0  0  0  0  0
   21.2971    7.3085   53.8640 C   0  0  0  0  0  0  0  0  0  0  0  0
   19.9173    7.8004   53.9941 C   0  0  0  0  0  0  0  0  0  0  0  0
   19.7289    9.0248   53.1217 C   0  0  0  0  0  0  0  0  0  0  0  0
   20.0583   10.1004   53.8702 O   0  0  0  0  0  0  0  0  0  0  0  0
   21.6859    6.0261   53.6550 C   0  0  0  0  0  0  0  0  0  0  0  0
   23.0227    6.0637   53.6209 N   0  0  0  0  0  0  0  0  0  0  0  0
   23.4822    7.3556   53.8040 C   0  0  0  0  0  0  0  0  0  0  0  0
   20.8270    4.8458   53.5162 C   0  0  0  0  0  0  0  0  0  0  0  0
   19.4630    4.8712   53.6485 C   0  0  0  0  0  0  0  0  0  0  0  0
   18.7413    3.6820   53.5123 C   0  0  0  0  0  0  0  0  0  0  0  0
   17.2541    3.7208   53.6590 C   0  0  0  0  0  0  0  0  0  0  0  0
   19.4000    2.5392   53.2539 N   0  0  0  0  0  0  0  0  0  0  0  0
   20.7282    2.4728   53.1174 C   0  0  0  0  0  0  0  0  0  0  0  0
   21.4517    1.2075   52.8316 C   0  0  0  0  0  0  0  0  0  0  0  0
   21.4487    3.6214   53.2471 C   0  0  0  0  0  0  0  0  0  0  0  0
   24.9065    7.6153   53.8250 C   0  0  0  0  0  0  0  0  0  0  0  0
   25.6445    7.1806   54.9253 C   0  0  0  0  0  0  0  0  0  0  0  0
   27.0061    7.3505   55.0095 C   0  0  0  0  0  0  0  0  0  0  0  0
   27.6757    7.9617   53.9941 C   0  0  0  0  0  0  0  0  0  0  0  0
   29.0324    8.1364   54.0679 F   0  0  0  0  0  0  0  0  0  0  0  0
   27.0002    8.4056   52.8934 C   0  0  0  0  0  0  0  0  0  0  0  0
   25.6013    8.2226   52.8229 C   0  0  0  0  0  0  0  0  0  0  0  0
   27.6836    9.0534   51.8089 C   0  0  0  0  0  0  0  0  0  0  0  0
   28.2397    9.5655   50.9114 N   0  0  0  0  0  0  0  0  0  0  0  0
  1  2  1  0  0  0
  2  3  1  0  0  0
  3  4  1  0  0  0
  4  5  1  0  0  0
  5  6  1  0  0  0
  6  7  1  0  0  0
  7  8  1  0  0  0
  5  9  2  0  0  0
  9 10  1  0  0  0
 10 11  2  0  0  0
 11 20  1  0  0  0
 20 21  2  0  0  0
 21 22  1  0  0  0
 22 23  2  0  0  0
 23 24  1  0  0  0
 23 25  1  0  0  0
 25 26  2  0  0  0
 25 27  1  0  0  0
 27 28  3  0  0  0
  9 12  1  0  0  0
 12 13  2  0  0  0
 13 14  1  0  0  0
 14 15  1  0  0  0
 14 16  2  0  0  0
 16 17  1  0  0  0
 17 18  1  0  0  0
 17 19  2  0  0  0
  8  2  1  0  0  0
 26 20  1  0  0  0
 19 12  1  0  0  0
 11  4  1  0  0  0
M  END
> <minimizedAffinity>
44.49712

> <CNNscore>
0.4755261242

> <CNNaffinity>
6.1880559921

> <CNN_VS>
2.9425823689

> <CNNaffinity_variance>
0.7863005996

$$$$
[H]c1nc(C([H])([H])[H])c([H])c(-c2nc(-c3c([H])c([H])c(C(F)(F)F)c(OC([H])([H])[H])c3[H])n3c2C([H])([H])C([H])([H])O[C@]([H])(C([H])([H])F)C3([H])[H])c1[H]


 31 34  0  0  0  0  0  0  0  0999 V2000
   23.1888    7.6530   53.8033 C   0  0  0  0  0  0  0  0  0  0  0  0
   22.6395    6.3922   53.9351 N   0  0  0  0  0  0  0  0  0  0  0  0
   21.3973    6.3467   53.4584 C   0  0  0  0  0  0  0  0  0  0  0  0
   21.1328    7.6084   53.0039 C   0  0  0  0  0  0  0  0  0  0  0  0
   19.8578    8.0009   52.3637 C   0  0  0  0  0  0  0  0  0  0  0  0
   20.1857    8.5461   50.9667 C   0  0  0  0  0  0  0  0  0  0  0  0
   20.7788    9.7541   51.0169 O   0  0  0  0  0  0  0  0  0  0  0  0
   21.1356   10.3111   52.1753 C   0  0  0  0  0  0  0  0  0  0  0  0
   22.3653    9.7759   52.8754 C   0  0  0  0  0  0  0  0  0  0  0  0
   22.2415    8.3872   53.2263 N   0  0  0  0  0  0  0  0  0  0  0  0
   20.5365    5.1373   53.4484 C   0  0  0  0  0  0  0  0  0  0  0  0
   21.0657    3.9519   53.0325 C   0  0  0  0  0  0  0  0  0  0  0  0
   20.2757    2.8142   53.0474 C   0  0  0  0  0  0  0  0  0  0  0  0
   19.0050    2.9055   53.4716 N   0  0  0  0  0  0  0  0  0  0  0  0
   18.4807    4.0688   53.8813 C   0  0  0  0  0  0  0  0  0  0  0  0
   17.0760    4.1753   54.3515 C   0  0  0  0  0  0  0  0  0  0  0  0
   19.2558    5.2244   53.8750 C   0  0  0  0  0  0  0  0  0  0  0  0
   26.2268    8.9268   55.6168 C   0  0  0  0  0  0  0  0  0  0  0  0
   24.8874    8.6565   55.3083 C   0  0  0  0  0  0  0  0  0  0  0  0
   24.5517    7.9407   54.2227 C   0  0  0  0  0  0  0  0  0  0  0  0
   25.5759    7.4576   53.3881 C   0  0  0  0  0  0  0  0  0  0  0  0
   26.8926    7.7161   53.6807 C   0  0  0  0  0  0  0  0  0  0  0  0
   27.2062    8.4449   54.7866 C   0  0  0  0  0  0  0  0  0  0  0  0
   28.6593    8.7087   55.0756 C   0  0  0  0  0  0  0  0  0  0  0  0
   29.3781    7.7483   54.3805 F   0  0  0  0  0  0  0  0  0  0  0  0
   29.0364    9.9691   54.7252 F   0  0  0  0  0  0  0  0  0  0  0  0
   28.9150    8.5114   56.4113 F   0  0  0  0  0  0  0  0  0  0  0  0
   27.5025    9.2670   57.6932 C   0  0  0  0  0  0  0  0  0  0  0  0
   26.5769    9.6579   56.7231 O   0  0  0  0  0  0  0  0  0  0  0  0
   21.4774   11.7880   51.8908 C   0  0  0  0  0  0  0  0  0  0  0  0
   21.5577   12.0162   50.5315 F   0  0  0  0  0  0  0  0  0  0  0  0
 28 29  1  0  0  0
 29 18  1  0  0  0
 18 19  2  0  0  0
 19 20  1  0  0  0
 20 21  2  0  0  0
 21 22  1  0  0  0
 22 23  2  0  0  0
 23 24  1  0  0  0
 24 25  1  0  0  0
 24 26  1  0  0  0
 24 27  1  0  0  0
 20  1  1  0  0  0
  1  2  2  0  0  0
  2  3  1  0  0  0
  3  4  2  0  0  0
  4  5  1  0  0  0
  5  6  1  0  0  0
  6  7  1  0  0  0
  7  8  1  0  0  0
  8 30  1  0  0  0
 30 31  1  0  0  0
  8  9  1  0  0  0
  9 10  1  0  0  0
  3 11  1  0  0  0
 11 12  2  0  0  0
 12 13  1  0  0  0
 13 14  2  0  0  0
 14 15  1  0  0  0
 15 16  1  0  0  0
 15 17  2  0  0  0
 23 18  1  0  0  0
 10  1  1  0  0  0
 17 11  1  0  0  0
 10  4  1  0  0  0
M  END
> <minimizedAffinity>
19.49465

> <CNNscore>
0.4799908102

> <CNNaffinity>
6.5359869003

> <CNN_VS>
3.1372137070

> <CNNaffinity_variance>
0.5250722766

$$$$
[H]c1nc(C([H])([H])[H])c([H])c(-c2nc(-c3c([H])c([H])c(C(F)(F)F)c(OC([H])([H])[H])c3[H])n3c2C([H])([H])C([H])([H])O[C@]([H])(C([H])([H])F)C3([H])[H])c1[H]


 31 34  0  0  0  0  0  0  0  0999 V2000
   21.5912    8.0971   52.8319 C   0  0  0  0  0  0  0  0  0  0  0  0
   20.5442    7.1961   52.8029 N   0  0  0  0  0  0  0  0  0  0  0  0
   20.9294    5.9845   53.1976 C   0  0  0  0  0  0  0  0  0  0  0  0
   22.2591    6.1006   53.4921 C   0  0  0  0  0  0  0  0  0  0  0  0
   23.0892    4.9853   53.9986 C   0  0  0  0  0  0  0  0  0  0  0  0
   23.6824    5.4198   55.3461 C   0  0  0  0  0  0  0  0  0  0  0  0
   24.6438    6.3521   55.2033 O   0  0  0  0  0  0  0  0  0  0  0  0
   24.9204    6.8962   54.0171 C   0  0  0  0  0  0  0  0  0  0  0  0
   23.9613    7.9270   53.4639 C   0  0  0  0  0  0  0  0  0  0  0  0
   22.6395    7.3994   53.2602 N   0  0  0  0  0  0  0  0  0  0  0  0
   20.0413    4.7980   53.2828 C   0  0  0  0  0  0  0  0  0  0  0  0
   20.5028    3.5930   52.8434 C   0  0  0  0  0  0  0  0  0  0  0  0
   19.6891    2.4767   52.9461 C   0  0  0  0  0  0  0  0  0  0  0  0
   18.4627    2.6077   53.4767 N   0  0  0  0  0  0  0  0  0  0  0  0
   18.0049    3.7904   53.9099 C   0  0  0  0  0  0  0  0  0  0  0  0
   16.6493    3.9409   54.4976 C   0  0  0  0  0  0  0  0  0  0  0  0
   18.8050    4.9252   53.8167 C   0  0  0  0  0  0  0  0  0  0  0  0
   21.0180   11.3146   50.9717 C   0  0  0  0  0  0  0  0  0  0  0  0
   21.1360    9.9446   51.2391 C   0  0  0  0  0  0  0  0  0  0  0  0
   21.4065    9.4954   52.4755 C   0  0  0  0  0  0  0  0  0  0  0  0
   21.5707   10.4303   53.5138 C   0  0  0  0  0  0  0  0  0  0  0  0
   21.4569   11.7758   53.2635 C   0  0  0  0  0  0  0  0  0  0  0  0
   21.1831   12.2053   52.0013 C   0  0  0  0  0  0  0  0  0  0  0  0
   21.0659   13.6867   51.7643 C   0  0  0  0  0  0  0  0  0  0  0  0
   22.3325   14.2163   51.9576 F   0  0  0  0  0  0  0  0  0  0  0  0
   20.5848   13.9762   50.5240 F   0  0  0  0  0  0  0  0  0  0  0  0
   20.2471   14.2500   52.7133 F   0  0  0  0  0  0  0  0  0  0  0  0
   19.4803   11.8080   49.1152 C   0  0  0  0  0  0  0  0  0  0  0  0
   20.7430   11.7805   49.7115 O   0  0  0  0  0  0  0  0  0  0  0  0
   26.2527    7.6602   54.1599 C   0  0  0  0  0  0  0  0  0  0  0  0
   26.3641    8.6314   53.1849 F   0  0  0  0  0  0  0  0  0  0  0  0
 28 29  1  0  0  0
 29 18  1  0  0  0
 18 19  2  0  0  0
 19 20  1  0  0  0
 20 21  2  0  0  0
 21 22  1  0  0  0
 22 23  2  0  0  0
 23 24  1  0  0  0
 24 25  1  0  0  0
 24 26  1  0  0  0
 24 27  1  0  0  0
 20  1  1  0  0  0
  1  2  2  0  0  0
  2  3  1  0  0  0
  3  4  2  0  0  0
  4  5  1  0  0  0
  5  6  1  0  0  0
  6  7  1  0  0  0
  7  8  1  0  0  0
  8 30  1  0  0  0
 30 31  1  0  0  0
  8  9  1  0  0  0
  9 10  1  0  0  0
  3 11  1  0  0  0
 11 12  2  0  0  0
 12 13  1  0  0  0
 13 14  2  0  0  0
 14 15  1  0  0  0
 15 16  1  0  0  0
 15 17  2  0  0  0
 23 18  1  0  0  0
 10  1  1  0  0  0
 17 11  1  0  0  0
 10  4  1  0  0  0
M  END
> <minimizedAffinity>
31.42561

> <CNNscore>
0.4797601998

> <CNNaffinity>
6.4341888428

> <CNN_VS>
3.0868678093

> <CNNaffinity_variance>
0.5717417002

$$$$
[H]c1nc(C([H])([H])[H])c([H])c(-c2nc(-c3c([H])c([H])c(C(F)(F)F)c(OC([H])([H])[H])c3[H])n3c2C([H])([H])C([H])([H])O[C@]([H])(C([H])([H])F)C3([H])[H])c1[H]


 31 34  0  0  0  0  0  0  0  0999 V2000
   22.9890    7.8660   53.9694 C   0  0  0  0  0  0  0  0  0  0  0  0
   22.4720    6.5954   54.1346 N   0  0  0  0  0  0  0  0  0  0  0  0
   21.3039    6.4569   53.5111 C   0  0  0  0  0  0  0  0  0  0  0  0
   21.0560    7.6664   52.9246 C   0  0  0  0  0  0  0  0  0  0  0  0
   19.8611    7.9500   52.0992 C   0  0  0  0  0  0  0  0  0  0  0  0
   20.3468    8.4000   50.7142 C   0  0  0  0  0  0  0  0  0  0  0  0
   20.8856    9.6340   50.7388 O   0  0  0  0  0  0  0  0  0  0  0  0
   21.0704   10.2944   51.8831 C   0  0  0  0  0  0  0  0  0  0  0  0
   22.2178    9.8713   52.7737 C   0  0  0  0  0  0  0  0  0  0  0  0
   22.0988    8.5096   53.2195 N   0  0  0  0  0  0  0  0  0  0  0  0
   20.4947    5.2125   53.4927 C   0  0  0  0  0  0  0  0  0  0  0  0
   21.0770    4.0506   53.0816 C   0  0  0  0  0  0  0  0  0  0  0  0
   20.3353    2.8807   53.0889 C   0  0  0  0  0  0  0  0  0  0  0  0
   19.0579    2.9185   53.5010 N   0  0  0  0  0  0  0  0  0  0  0  0
   18.4815    4.0586   53.9060 C   0  0  0  0  0  0  0  0  0  0  0  0
   17.0692    4.1059   54.3629 C   0  0  0  0  0  0  0  0  0  0  0  0
   19.2076    5.2457   53.9072 C   0  0  0  0  0  0  0  0  0  0  0  0
   26.6644    8.2686   54.6553 C   0  0  0  0  0  0  0  0  0  0  0  0
   25.4696    7.8975   54.0253 C   0  0  0  0  0  0  0  0  0  0  0  0
   24.2756    8.2467   54.5315 C   0  0  0  0  0  0  0  0  0  0  0  0
   24.2388    9.0016   55.7179 C   0  0  0  0  0  0  0  0  0  0  0  0
   25.4038    9.3715   56.3442 C   0  0  0  0  0  0  0  0  0  0  0  0
   26.6010    9.0040   55.8111 C   0  0  0  0  0  0  0  0  0  0  0  0
   27.8566    9.4268   56.5247 C   0  0  0  0  0  0  0  0  0  0  0  0
   28.9071    9.1649   55.6586 F   0  0  0  0  0  0  0  0  0  0  0  0
   27.8258   10.7367   56.8947 F   0  0  0  0  0  0  0  0  0  0  0  0
   28.0500    8.6436   57.6372 F   0  0  0  0  0  0  0  0  0  0  0  0
   28.2808    6.6172   53.8099 C   0  0  0  0  0  0  0  0  0  0  0  0
   27.8870    7.9147   54.1447 O   0  0  0  0  0  0  0  0  0  0  0  0
   21.3938   11.7589   51.5230 C   0  0  0  0  0  0  0  0  0  0  0  0
   21.5024   12.5284   52.6643 F   0  0  0  0  0  0  0  0  0  0  0  0
 28 29  1  0  0  0
 29 18  1  0  0  0
 18 19  2  0  0  0
 19 20  1  0  0  0
 20 21  2  0  0  0
 21 22  1  0  0  0
 22 23  2  0  0  0
 23 24  1  0  0  0
 24 25  1  0  0  0
 24 26  1  0  0  0
 24 27  1  0  0  0
 20  1  1  0  0  0
  1  2  2  0  0  0
  2  3  1  0  0  0
  3  4  2  0  0  0
  4  5  1  0  0  0
  5  6  1  0  0  0
  6  7  1  0  0  0
  7  8  1  0  0  0
  8 30  1  0  0  0
 30 31  1  0  0  0
  8  9  1  0  0  0
  9 10  1  0  0  0
  3 11  1  0  0  0
 11 12  2  0  0  0
 12 13  1  0  0  0
 13 14  2  0  0  0
 14 15  1  0  0  0
 15 16  1  0  0  0
 15 17  2  0  0  0
 23 18  1  0  0  0
 10  1  1  0  0  0
 17 11  1  0  0  0
 10  4  1  0  0  0
M  END
> <minimizedAffinity>
22.71939

> <CNNscore>
0.4563414454

> <CNNaffinity>
6.5393295288

> <CNN_VS>
2.9841670990

> <CNNaffinity_variance>
0.6739639640

$$$$
[H]c1nc(C([H])([H])[H])c([H])c(-c2nc(-c3c([H])c([H])c(C(F)(F)F)c(OC([H])([H])[H])c3[H])n3c2C([H])([H])C([H])([H])O[C@]([H])(C([H])([H])F)C3([H])[H])c1[H]


 31 34  0  0  0  0  0  0  0  0999 V2000
   22.7870    7.2265   54.1602 C   0  0  0  0  0  0  0  0  0  0  0  0
   24.1555    7.0680   54.2646 N   0  0  0  0  0  0  0  0  0  0  0  0
   24.7506    8.1927   54.6561 C   0  0  0  0  0  0  0  0  0  0  0  0
   23.7443    9.1045   54.8118 C   0  0  0  0  0  0  0  0  0  0  0  0
   23.9593   10.4961   55.2669 C   0  0  0  0  0  0  0  0  0  0  0  0
   23.1188   10.7077   56.5338 C   0  0  0  0  0  0  0  0  0  0  0  0
   21.8005   10.7732   56.2662 O   0  0  0  0  0  0  0  0  0  0  0  0
   21.3226   10.5445   55.0419 C   0  0  0  0  0  0  0  0  0  0  0  0
   21.2607    9.1132   54.5559 C   0  0  0  0  0  0  0  0  0  0  0  0
   22.5556    8.4909   54.5025 N   0  0  0  0  0  0  0  0  0  0  0  0
   26.2116    8.3501   54.8670 C   0  0  0  0  0  0  0  0  0  0  0  0
   27.0682    7.9612   53.8806 C   0  0  0  0  0  0  0  0  0  0  0  0
   28.4311    8.1314   54.0599 C   0  0  0  0  0  0  0  0  0  0  0  0
   28.8776    8.6763   55.2030 N   0  0  0  0  0  0  0  0  0  0  0  0
   28.0390    9.0601   56.1754 C   0  0  0  0  0  0  0  0  0  0  0  0
   28.5274    9.6633   57.4416 C   0  0  0  0  0  0  0  0  0  0  0  0
   26.6659    8.8987   56.0169 C   0  0  0  0  0  0  0  0  0  0  0  0
   19.8074    5.0560   53.4175 C   0  0  0  0  0  0  0  0  0  0  0  0
   20.5749    6.1793   53.7510 C   0  0  0  0  0  0  0  0  0  0  0  0
   21.9165    6.1245   53.7808 C   0  0  0  0  0  0  0  0  0  0  0  0
   22.5507    4.9086   53.4671 C   0  0  0  0  0  0  0  0  0  0  0  0
   21.8085    3.8008   53.1383 C   0  0  0  0  0  0  0  0  0  0  0  0
   20.4500    3.8825   53.1163 C   0  0  0  0  0  0  0  0  0  0  0  0
   19.6695    2.6487   52.7518 C   0  0  0  0  0  0  0  0  0  0  0  0
   19.0234    2.9316   51.5583 F   0  0  0  0  0  0  0  0  0  0  0  0
   20.4625    1.5472   52.6444 F   0  0  0  0  0  0  0  0  0  0  0  0
   18.6931    2.4172   53.6907 F   0  0  0  0  0  0  0  0  0  0  0  0
   17.5816    4.4022   54.2378 C   0  0  0  0  0  0  0  0  0  0  0  0
   18.4372    5.1044   53.3860 O   0  0  0  0  0  0  0  0  0  0  0  0
   19.8526   11.0112   55.0263 C   0  0  0  0  0  0  0  0  0  0  0  0
   19.3173   10.9774   56.2986 F   0  0  0  0  0  0  0  0  0  0  0  0
 28 29  1  0  0  0
 29 18  1  0  0  0
 18 19  2  0  0  0
 19 20  1  0  0  0
 20 21  2  0  0  0
 21 22  1  0  0  0
 22 23  2  0  0  0
 23 24  1  0  0  0
 24 25  1  0  0  0
 24 26  1  0  0  0
 24 27  1  0  0  0
 20  1  1  0  0  0
  1  2  2  0  0  0
  2  3  1  0  0  0
  3  4  2  0  0  0
  4  5  1  0  0  0
  5  6  1  0  0  0
  6  7  1  0  0  0
  7  8  1  0  0  0
  8 30  1  0  0  0
 30 31  1  0  0  0
  8  9  1  0  0  0
  9 10  1  0  0  0
  3 11  1  0  0  0
 11 12  2  0  0  0
 12 13  1  0  0  0
 13 14  2  0  0  0
 14 15  1  0  0  0
 15 16  1  0  0  0
 15 17  2  0  0  0
 23 18  1  0  0  0
 10  1  1  0  0  0
 17 11  1  0  0  0
 10  4  1  0  0  0
M  END
> <minimizedAffinity>
37.50308

> <CNNscore>
0.4274913371

> <CNNaffinity>
6.1601715088

> <CNN_VS>
2.6334199905

> <CNNaffinity_variance>
0.2428430021

$$$$
[H]c1nc(C([H])([H])[H])c([H])c(-c2nc(-c3c([H])c([H])c(C(F)(F)F)c(OC([H])([H])[H])c3[H])n3c2C([H])([H])C([H])([H])O[C@]([H])(C([H])([H])F)C3([H])[H])c1[H]


 31 34  0  0  0  0  0  0  0  0999 V2000
   23.0732    8.0362   54.1708 C   0  0  0  0  0  0  0  0  0  0  0  0
   22.5306    6.7718   54.2970 N   0  0  0  0  0  0  0  0  0  0  0  0
   21.3595    6.6765   53.6711 C   0  0  0  0  0  0  0  0  0  0  0  0
   21.1357    7.9085   53.1230 C   0  0  0  0  0  0  0  0  0  0  0  0
   19.9460    8.2420   52.3087 C   0  0  0  0  0  0  0  0  0  0  0  0
   20.4396    8.7251   50.9378 C   0  0  0  0  0  0  0  0  0  0  0  0
   21.0033    9.9465   51.0001 O   0  0  0  0  0  0  0  0  0  0  0  0
   21.2025   10.5669   52.1641 C   0  0  0  0  0  0  0  0  0  0  0  0
   22.3417   10.0930   53.0394 C   0  0  0  0  0  0  0  0  0  0  0  0
   22.1955    8.7208   53.4426 N   0  0  0  0  0  0  0  0  0  0  0  0
   20.5251    5.4499   53.6151 C   0  0  0  0  0  0  0  0  0  0  0  0
   19.1956    5.5404   53.9018 C   0  0  0  0  0  0  0  0  0  0  0  0
   18.4063    4.4047   53.8240 C   0  0  0  0  0  0  0  0  0  0  0  0
   18.9700    3.2394   53.4676 N   0  0  0  0  0  0  0  0  0  0  0  0
   20.2767    3.1460   53.1848 C   0  0  0  0  0  0  0  0  0  0  0  0
   20.9052    1.8595   52.7900 C   0  0  0  0  0  0  0  0  0  0  0  0
   21.0886    4.2738   53.2563 C   0  0  0  0  0  0  0  0  0  0  0  0
   26.7429    8.2083   54.9736 C   0  0  0  0  0  0  0  0  0  0  0  0
   25.5430    7.8648   54.3375 C   0  0  0  0  0  0  0  0  0  0  0  0
   24.3677    8.3730   54.7425 C   0  0  0  0  0  0  0  0  0  0  0  0
   24.3561    9.2682   55.8276 C   0  0  0  0  0  0  0  0  0  0  0  0
   25.5263    9.6125   56.4587 C   0  0  0  0  0  0  0  0  0  0  0  0
   26.7042    9.0826   56.0293 C   0  0  0  0  0  0  0  0  0  0  0  0
   27.9662    9.4823   56.7449 C   0  0  0  0  0  0  0  0  0  0  0  0
   28.8447    9.9300   55.7703 F   0  0  0  0  0  0  0  0  0  0  0  0
   27.7442   10.4318   57.6950 F   0  0  0  0  0  0  0  0  0  0  0  0
   28.5433    8.3801   57.3286 F   0  0  0  0  0  0  0  0  0  0  0  0
   28.2665    7.3166   53.2594 C   0  0  0  0  0  0  0  0  0  0  0  0
   27.9465    7.6924   54.5660 O   0  0  0  0  0  0  0  0  0  0  0  0
   21.5552   12.0352   51.8495 C   0  0  0  0  0  0  0  0  0  0  0  0
   21.7010   12.2203   50.4890 F   0  0  0  0  0  0  0  0  0  0  0  0
 28 29  1  0  0  0
 29 18  1  0  0  0
 18 19  2  0  0  0
 19 20  1  0  0  0
 20 21  2  0  0  0
 21 22  1  0  0  0
 22 23  2  0  0  0
 23 24  1  0  0  0
 24 25  1  0  0  0
 24 26  1  0  0  0
 24 27  1  0  0  0
 20  1  1  0  0  0
  1  2  2  0  0  0
  2  3  1  0  0  0
  3  4  2  0  0  0
  4  5  1  0  0  0
  5  6  1  0  0  0
  6  7  1  0  0  0
  7  8  1  0  0  0
  8 30  1  0  0  0
 30 31  1  0  0  0
  8  9  1  0  0  0
  9 10  1  0  0  0
  3 11  1  0  0  0
 11 12  2  0  0  0
 12 13  1  0  0  0
 13 14  2  0  0  0
 14 15  1  0  0  0
 15 16  1  0  0  0
 15 17  2  0  0  0
 23 18  1  0  0  0
 10  1  1  0  0  0
 17 11  1  0  0  0
 10  4  1  0  0  0
M  END
> <minimizedAffinity>
26.68220

> <CNNscore>
0.4227191508

> <CNNaffinity>
6.3504667282

> <CNN_VS>
2.6844639778

> <CNNaffinity_variance>
0.5158029795

$$$$
[H]c1nc(C([H])([H])[H])c([H])c(-c2nc(-c3c([H])c([H])c(C(F)(F)F)c(OC([H])([H])[H])c3[H])n3c2C([H])([H])C([H])([H])O[C@]([H])(C([H])([H])F)C3([H])[H])c1[H]


 31 34  0  0  0  0  0  0  0  0999 V2000
   23.4957    9.2913   53.4008 C   0  0  0  0  0  0  0  0  0  0  0  0
   23.1415   10.5700   53.0157 N   0  0  0  0  0  0  0  0  0  0  0  0
   21.9239   10.6002   52.4782 C   0  0  0  0  0  0  0  0  0  0  0  0
   21.4746    9.3099   52.5161 C   0  0  0  0  0  0  0  0  0  0  0  0
   20.1387    8.8905   52.0374 C   0  0  0  0  0  0  0  0  0  0  0  0
   19.4116    8.2202   53.2115 C   0  0  0  0  0  0  0  0  0  0  0  0
   19.9226    7.0089   53.5032 O   0  0  0  0  0  0  0  0  0  0  0  0
   21.0172    6.5464   52.8970 C   0  0  0  0  0  0  0  0  0  0  0  0
   22.3566    7.1141   53.3123 C   0  0  0  0  0  0  0  0  0  0  0  0
   22.4522    8.5301   53.0830 N   0  0  0  0  0  0  0  0  0  0  0  0
   21.2516   11.8221   51.9693 C   0  0  0  0  0  0  0  0  0  0  0  0
   20.9514   12.8246   52.8428 C   0  0  0  0  0  0  0  0  0  0  0  0
   20.3495   13.9789   52.3694 C   0  0  0  0  0  0  0  0  0  0  0  0
   20.0751   14.0836   51.0592 N   0  0  0  0  0  0  0  0  0  0  0  0
   20.3686   13.1004   50.1970 C   0  0  0  0  0  0  0  0  0  0  0  0
   20.0674   13.2111   48.7469 C   0  0  0  0  0  0  0  0  0  0  0  0
   20.9735   11.9321   50.6502 C   0  0  0  0  0  0  0  0  0  0  0  0
   26.3115    8.9833   55.8741 C   0  0  0  0  0  0  0  0  0  0  0  0
   25.0413    9.2381   55.3413 C   0  0  0  0  0  0  0  0  0  0  0  0
   24.7696    9.0123   54.0456 C   0  0  0  0  0  0  0  0  0  0  0  0
   25.7898    8.5085   53.2185 C   0  0  0  0  0  0  0  0  0  0  0  0
   27.0389    8.2546   53.7299 C   0  0  0  0  0  0  0  0  0  0  0  0
   27.2888    8.4929   55.0465 C   0  0  0  0  0  0  0  0  0  0  0  0
   28.6689    8.2032   55.5718 C   0  0  0  0  0  0  0  0  0  0  0  0
   29.3764    9.3929   55.4926 F   0  0  0  0  0  0  0  0  0  0  0  0
   28.6474    7.7157   56.8428 F   0  0  0  0  0  0  0  0  0  0  0  0
   29.3043    7.3039   54.7497 F   0  0  0  0  0  0  0  0  0  0  0  0
   27.4921   10.1694   57.6780 C   0  0  0  0  0  0  0  0  0  0  0  0
   26.5964    9.2124   57.1960 O   0  0  0  0  0  0  0  0  0  0  0  0
   21.1268    5.0437   53.2267 C   0  0  0  0  0  0  0  0  0  0  0  0
   22.4128    4.7223   53.6132 F   0  0  0  0  0  0  0  0  0  0  0  0
 28 29  1  0  0  0
 29 18  1  0  0  0
 18 19  2  0  0  0
 19 20  1  0  0  0
 20 21  2  0  0  0
 21 22  1  0  0  0
 22 23  2  0  0  0
 23 24  1  0  0  0
 24 25  1  0  0  0
 24 26  1  0  0  0
 24 27  1  0  0  0
 20  1  1  0  0  0
  1  2  2  0  0  0
  2  3  1  0  0  0
  3  4  2  0  0  0
  4  5  1  0  0  0
  5  6  1  0  0  0
  6  7  1  0  0  0
  7  8  1  0  0  0
  8 30  1  0  0  0
 30 31  1  0  0  0
  8  9  1  0  0  0
  9 10  1  0  0  0
  3 11  1  0  0  0
 11 12  2  0  0  0
 12 13  1  0  0  0
 13 14  2  0  0  0
 14 15  1  0  0  0
 15 16  1  0  0  0
 15 17  2  0  0  0
 23 18  1  0  0  0
 10  1  1  0  0  0
 17 11  1  0  0  0
 10  4  1  0  0  0
M  END
> <minimizedAffinity>
42.11155

> <CNNscore>
0.4218057394

> <CNNaffinity>
5.9799365997

> <CNN_VS>
2.5223715305

> <CNNaffinity_variance>
0.7842254043

$$$$
[H]c1nc(C([H])([H])[H])c([H])c(-c2nc(-c3c([H])c([H])c(C(F)(F)F)c(OC([H])([H])[H])c3[H])n3c2C([H])([H])C([H])([H])O[C@]([H])(C([H])([H])F)C3([H])[H])c1[H]


 31 34  0  0  0  0  0  0  0  0999 V2000
   21.9437    7.0536   54.0110 C   0  0  0  0  0  0  0  0  0  0  0  0
   23.2452    6.5954   53.9395 N   0  0  0  0  0  0  0  0  0  0  0  0
   24.1220    7.5889   54.0679 C   0  0  0  0  0  0  0  0  0  0  0  0
   23.3726    8.7206   54.2286 C   0  0  0  0  0  0  0  0  0  0  0  0
   23.9509   10.0671   54.4339 C   0  0  0  0  0  0  0  0  0  0  0  0
   23.4073   10.6107   55.7626 C   0  0  0  0  0  0  0  0  0  0  0  0
   22.1062   10.9486   55.6812 O   0  0  0  0  0  0  0  0  0  0  0  0
   21.3852   10.6988   54.5869 C   0  0  0  0  0  0  0  0  0  0  0  0
   20.9405    9.2749   54.3352 C   0  0  0  0  0  0  0  0  0  0  0  0
   22.0463    8.3677   54.1896 N   0  0  0  0  0  0  0  0  0  0  0  0
   25.5974    7.4268   54.0398 C   0  0  0  0  0  0  0  0  0  0  0  0
   26.1316    6.3368   53.4197 C   0  0  0  0  0  0  0  0  0  0  0  0
   27.5084    6.1942   53.3657 C   0  0  0  0  0  0  0  0  0  0  0  0
   28.2860    7.1342   53.9264 N   0  0  0  0  0  0  0  0  0  0  0  0
   27.7650    8.2074   54.5371 C   0  0  0  0  0  0  0  0  0  0  0  0
   28.6205    9.2502   55.1589 C   0  0  0  0  0  0  0  0  0  0  0  0
   26.3848    8.3714   54.6033 C   0  0  0  0  0  0  0  0  0  0  0  0
   19.7477    4.0275   53.6099 C   0  0  0  0  0  0  0  0  0  0  0  0
   20.8949    4.8237   53.7194 C   0  0  0  0  0  0  0  0  0  0  0  0
   20.8087    6.1472   53.9309 C   0  0  0  0  0  0  0  0  0  0  0  0
   19.5344    6.7322   54.0443 C   0  0  0  0  0  0  0  0  0  0  0  0
   18.4026    5.9614   53.9390 C   0  0  0  0  0  0  0  0  0  0  0  0
   18.5173    4.6224   53.7236 C   0  0  0  0  0  0  0  0  0  0  0  0
   17.2557    3.8095   53.6134 C   0  0  0  0  0  0  0  0  0  0  0  0
   16.2444    4.6980   53.2817 F   0  0  0  0  0  0  0  0  0  0  0  0
   17.3637    2.8075   52.6980 F   0  0  0  0  0  0  0  0  0  0  0  0
   16.9338    3.2752   54.8378 F   0  0  0  0  0  0  0  0  0  0  0  0
   20.7515    2.0424   52.5581 C   0  0  0  0  0  0  0  0  0  0  0  0
   19.8282    2.6757   53.3930 O   0  0  0  0  0  0  0  0  0  0  0  0
   20.0662   11.4882   54.7137 C   0  0  0  0  0  0  0  0  0  0  0  0
   20.1809   12.7275   54.1160 F   0  0  0  0  0  0  0  0  0  0  0  0
 28 29  1  0  0  0
 29 18  1  0  0  0
 18 19  2  0  0  0
 19 20  1  0  0  0
 20 21  2  0  0  0
 21 22  1  0  0  0
 22 23  2  0  0  0
 23 24  1  0  0  0
 24 25  1  0  0  0
 24 26  1  0  0  0
 24 27  1  0  0  0
 20  1  1  0  0  0
  1  2  2  0  0  0
  2  3  1  0  0  0
  3  4  2  0  0  0
  4  5  1  0  0  0
  5  6  1  0  0  0
  6  7  1  0  0  0
  7  8  1  0  0  0
  8 30  1  0  0  0
 30 31  1  0  0  0
  8  9  1  0  0  0
  9 10  1  0  0  0
  3 11  1  0  0  0
 11 12  2  0  0  0
 12 13  1  0  0  0
 13 14  2  0  0  0
 14 15  1  0  0  0
 15 16  1  0  0  0
 15 17  2  0  0  0
 23 18  1  0  0  0
 10  1  1  0  0  0
 17 11  1  0  0  0
 10  4  1  0  0  0
M  END
> <minimizedAffinity>
43.15121

> <CNNscore>
0.4138208628

> <CNNaffinity>
6.1724481583

> <CNN_VS>
2.5542879105

> <CNNaffinity_variance>
0.5884117484

$$$$
[H]c1nc(C([H])([H])[H])c([H])c(-c2nc(-c3c([H])c([H])c(C(F)(F)F)c(OC([H])([H])[H])c3[H])n3c2C([H])([H])C([H])([H])O[C@]([H])(C([H])([H])F)C3([H])[H])c1[H]


 31 34  0  0  0  0  0  0  0  0999 V2000
   22.8901    9.3926   54.4617 C   0  0  0  0  0  0  0  0  0  0  0  0
   24.1976    9.6824   54.8014 N   0  0  0  0  0  0  0  0  0  0  0  0
   24.9439    8.5815   54.8608 C   0  0  0  0  0  0  0  0  0  0  0  0
   24.1016    7.5507   54.5505 C   0  0  0  0  0  0  0  0  0  0  0  0
   24.5279    6.1358   54.4733 C   0  0  0  0  0  0  0  0  0  0  0  0
   24.2031    5.6270   53.0620 C   0  0  0  0  0  0  0  0  0  0  0  0
   22.8803    5.4608   52.8716 O   0  0  0  0  0  0  0  0  0  0  0  0
   21.9886    5.8332   53.7912 C   0  0  0  0  0  0  0  0  0  0  0  0
   21.6924    7.3092   53.9412 C   0  0  0  0  0  0  0  0  0  0  0  0
   22.8538    8.0714   54.3116 N   0  0  0  0  0  0  0  0  0  0  0  0
   26.3901    8.5543   55.1950 C   0  0  0  0  0  0  0  0  0  0  0  0
   27.2733    8.0771   54.2730 C   0  0  0  0  0  0  0  0  0  0  0  0
   28.6268    8.0752   54.5680 C   0  0  0  0  0  0  0  0  0  0  0  0
   29.0378    8.5440   55.7572 N   0  0  0  0  0  0  0  0  0  0  0  0
   28.1729    9.0141   56.6665 C   0  0  0  0  0  0  0  0  0  0  0  0
   28.6221    9.5338   57.9833 C   0  0  0  0  0  0  0  0  0  0  0  0
   26.8088    9.0257   56.3917 C   0  0  0  0  0  0  0  0  0  0  0  0
   20.9034   12.3471   53.2515 C   0  0  0  0  0  0  0  0  0  0  0  0
   21.8768   11.3413   53.3072 C   0  0  0  0  0  0  0  0  0  0  0  0
   21.8920   10.4387   54.3016 C   0  0  0  0  0  0  0  0  0  0  0  0
   20.9039   10.5156   55.2998 C   0  0  0  0  0  0  0  0  0  0  0  0
   19.9443   11.4972   55.2554 C   0  0  0  0  0  0  0  0  0  0  0  0
   19.9515   12.4005   54.2373 C   0  0  0  0  0  0  0  0  0  0  0  0
   18.8851   13.4620   54.2213 C   0  0  0  0  0  0  0  0  0  0  0  0
   17.6735   12.7991   54.1005 F   0  0  0  0  0  0  0  0  0  0  0  0
   18.9190   14.2469   55.3333 F   0  0  0  0  0  0  0  0  0  0  0  0
   19.0240   14.2494   53.1036 F   0  0  0  0  0  0  0  0  0  0  0  0
   21.3022   13.0478   50.9267 C   0  0  0  0  0  0  0  0  0  0  0  0
   20.8823   13.2727   52.2397 O   0  0  0  0  0  0  0  0  0  0  0  0
   20.6320    5.2156   53.3946 C   0  0  0  0  0  0  0  0  0  0  0  0
   19.7329    6.2017   53.0401 F   0  0  0  0  0  0  0  0  0  0  0  0
 28 29  1  0  0  0
 29 18  1  0  0  0
 18 19  2  0  0  0
 19 20  1  0  0  0
 20 21  2  0  0  0
 21 22  1  0  0  0
 22 23  2  0  0  0
 23 24  1  0  0  0
 24 25  1  0  0  0
 24 26  1  0  0  0
 24 27  1  0  0  0
 20  1  1  0  0  0
  1  2  2  0  0  0
  2  3  1  0  0  0
  3  4  2  0  0  0
  4  5  1  0  0  0
  5  6  1  0  0  0
  6  7  1  0  0  0
  7  8  1  0  0  0
  8 30  1  0  0  0
 30 31  1  0  0  0
  8  9  1  0  0  0
  9 10  1  0  0  0
  3 11  1  0  0  0
 11 12  2  0  0  0
 12 13  1  0  0  0
 13 14  2  0  0  0
 14 15  1  0  0  0
 15 16  1  0  0  0
 15 17  2  0  0  0
 23 18  1  0  0  0
 10  1  1  0  0  0
 17 11  1  0  0  0
 10  4  1  0  0  0
M  END
> <minimizedAffinity>
40.65010

> <CNNscore>
0.4128699601

> <CNNaffinity>
5.8215398788

> <CNN_VS>
2.4035389423

> <CNNaffinity_variance>
0.3651940227

$$$$
[H]c1nc(C([H])([H])[H])c([H])c(-c2nc(-c3c([H])c([H])c(C(F)(F)F)c(OC([H])([H])[H])c3[H])n3c2C([H])([H])C([H])([H])O[C@]([H])(C([H])([H])F)C3([H])[H])c1[H]


 31 34  0  0  0  0  0  0  0  0999 V2000
   20.6236    6.9483   53.5946 C   0  0  0  0  0  0  0  0  0  0  0  0
   20.3704    8.1927   53.0501 N   0  0  0  0  0  0  0  0  0  0  0  0
   21.4312    8.9921   53.1406 C   0  0  0  0  0  0  0  0  0  0  0  0
   22.3984    8.2490   53.7575 C   0  0  0  0  0  0  0  0  0  0  0  0
   23.7635    8.7466   54.0376 C   0  0  0  0  0  0  0  0  0  0  0  0
   24.7557    7.8009   53.3466 C   0  0  0  0  0  0  0  0  0  0  0  0
   24.8348    6.6059   53.9625 O   0  0  0  0  0  0  0  0  0  0  0  0
   24.0275    6.2855   54.9749 C   0  0  0  0  0  0  0  0  0  0  0  0
   22.5922    5.9281   54.6573 C   0  0  0  0  0  0  0  0  0  0  0  0
   21.8809    7.0056   54.0250 N   0  0  0  0  0  0  0  0  0  0  0  0
   21.4840   10.3905   52.6451 C   0  0  0  0  0  0  0  0  0  0  0  0
   21.9356   11.3708   53.4776 C   0  0  0  0  0  0  0  0  0  0  0  0
   22.0137   12.6731   53.0121 C   0  0  0  0  0  0  0  0  0  0  0  0
   21.6421   12.9400   51.7498 N   0  0  0  0  0  0  0  0  0  0  0  0
   21.1976   11.9792   50.9279 C   0  0  0  0  0  0  0  0  0  0  0  0
   20.7853   12.2690   49.5308 C   0  0  0  0  0  0  0  0  0  0  0  0
   21.1108   10.6640   51.3741 C   0  0  0  0  0  0  0  0  0  0  0  0
   18.8124    3.6835   53.1462 C   0  0  0  0  0  0  0  0  0  0  0  0
   19.8434    4.6315   53.1694 C   0  0  0  0  0  0  0  0  0  0  0  0
   19.6248    5.8908   53.5818 C   0  0  0  0  0  0  0  0  0  0  0  0
   18.3301    6.2510   53.9975 C   0  0  0  0  0  0  0  0  0  0  0  0
   17.3115    5.3300   53.9794 C   0  0  0  0  0  0  0  0  0  0  0  0
   17.5591    4.0603   53.5560 C   0  0  0  0  0  0  0  0  0  0  0  0
   16.4190    3.0782   53.5494 C   0  0  0  0  0  0  0  0  0  0  0  0
   15.5080    3.5410   52.6124 F   0  0  0  0  0  0  0  0  0  0  0  0
   16.8289    1.8109   53.2674 F   0  0  0  0  0  0  0  0  0  0  0  0
   15.7824    3.0906   54.7671 F   0  0  0  0  0  0  0  0  0  0  0  0
   20.2228    1.6866   52.8671 C   0  0  0  0  0  0  0  0  0  0  0  0
   19.0281    2.3961   52.7254 O   0  0  0  0  0  0  0  0  0  0  0  0
   24.5960    5.0113   55.6324 C   0  0  0  0  0  0  0  0  0  0  0  0
   23.6637    4.4414   56.4765 F   0  0  0  0  0  0  0  0  0  0  0  0
 28 29  1  0  0  0
 29 18  1  0  0  0
 18 19  2  0  0  0
 19 20  1  0  0  0
 20 21  2  0  0  0
 21 22  1  0  0  0
 22 23  2  0  0  0
 23 24  1  0  0  0
 24 25  1  0  0  0
 24 26  1  0  0  0
 24 27  1  0  0  0
 20  1  1  0  0  0
  1  2  2  0  0  0
  2  3  1  0  0  0
  3  4  2  0  0  0
  4  5  1  0  0  0
  5  6  1  0  0  0
  6  7  1  0  0  0
  7  8  1  0  0  0
  8 30  1  0  0  0
 30 31  1  0  0  0
  8  9  1  0  0  0
  9 10  1  0  0  0
  3 11  1  0  0  0
 11 12  2  0  0  0
 12 13  1  0  0  0
 13 14  2  0  0  0
 14 15  1  0  0  0
 15 16  1  0  0  0
 15 17  2  0  0  0
 23 18  1  0  0  0
 10  1  1  0  0  0
 17 11  1  0  0  0
 10  4  1  0  0  0
M  END
> <minimizedAffinity>
38.00969

> <CNNscore>
0.4106411040

> <CNNaffinity>
6.0057430267

> <CNN_VS>
2.4662048817

> <CNNaffinity_variance>
0.4313127100

$$$$
[H]c1c([H])c(-c2nc(-c3c([H])c(C([H])([H])[H])nc(C([H])([H])[H])c3[H])c3n2C([H])([H])[C@@]([H])(C([H])([H])[H])OC([H])([H])C3([H])[H])c([H])c(Cl)c1Cl


 27 30  0  0  0  0  0  0  0  0999 V2000
   21.6069   11.7495   51.7646 C   0  0  0  0  0  0  0  0  0  0  0  0
   21.5124   10.4441   52.5088 C   0  0  0  0  0  0  0  0  0  0  0  0
   22.7243    9.5696   52.0982 C   0  0  0  0  0  0  0  0  0  0  0  0
   22.5275    8.3299   52.7782 N   0  0  0  0  0  0  0  0  0  0  0  0
   21.4904    7.4915   52.4423 C   0  0  0  0  0  0  0  0  0  0  0  0
   20.4539    7.6004   51.3841 C   0  0  0  0  0  0  0  0  0  0  0  0
   20.1453    9.0957   51.1990 C   0  0  0  0  0  0  0  0  0  0  0  0
   20.3239    9.7927   52.3656 O   0  0  0  0  0  0  0  0  0  0  0  0
   21.5436    6.4502   53.2909 C   0  0  0  0  0  0  0  0  0  0  0  0
   22.5809    6.6681   54.1020 N   0  0  0  0  0  0  0  0  0  0  0  0
   23.2167    7.8407   53.8005 C   0  0  0  0  0  0  0  0  0  0  0  0
   24.3448    8.3243   54.5802 C   0  0  0  0  0  0  0  0  0  0  0  0
   24.3135    9.0144   55.7404 C   0  0  0  0  0  0  0  0  0  0  0  0
   25.4926    9.3431   56.4330 C   0  0  0  0  0  0  0  0  0  0  0  0
   26.7049    8.9751   55.9507 C   0  0  0  0  0  0  0  0  0  0  0  0
   28.2190    9.3551   56.7692 Cl  0  0  0  0  0  0  0  0  0  0  0  0
   26.7885    8.2731   54.7725 C   0  0  0  0  0  0  0  0  0  0  0  0
   28.3537    7.7775   54.1207 Cl  0  0  0  0  0  0  0  0  0  0  0  0
   25.6331    7.9643   54.1178 C   0  0  0  0  0  0  0  0  0  0  0  0
   20.6592    5.2650   53.3661 C   0  0  0  0  0  0  0  0  0  0  0  0
   21.1073    4.0056   53.0507 C   0  0  0  0  0  0  0  0  0  0  0  0
   20.2049    2.9674   53.1529 C   0  0  0  0  0  0  0  0  0  0  0  0
   20.6659    1.6073   52.8188 C   0  0  0  0  0  0  0  0  0  0  0  0
   18.9310    3.1536   53.5434 N   0  0  0  0  0  0  0  0  0  0  0  0
   18.4579    4.3729   53.8599 C   0  0  0  0  0  0  0  0  0  0  0  0
   17.0461    4.5780   54.2924 C   0  0  0  0  0  0  0  0  0  0  0  0
   19.3505    5.4286   53.7630 C   0  0  0  0  0  0  0  0  0  0  0  0
  1  2  1  0  0  0
  2  3  1  0  0  0
  3  4  1  0  0  0
  4  5  1  0  0  0
  5  6  1  0  0  0
  6  7  1  0  0  0
  7  8  1  0  0  0
  5  9  2  0  0  0
  9 10  1  0  0  0
 10 11  2  0  0  0
 11 12  1  0  0  0
 12 13  2  0  0  0
 13 14  1  0  0  0
 14 15  2  0  0  0
 15 16  1  0  0  0
 15 17  1  0  0  0
 17 18  1  0  0  0
 17 19  2  0  0  0
  9 20  1  0  0  0
 20 21  2  0  0  0
 21 22  1  0  0  0
 22 23  1  0  0  0
 22 24  2  0  0  0
 24 25  1  0  0  0
 25 26  1  0  0  0
 25 27  2  0  0  0
  8  2  1  0  0  0
 19 12  1  0  0  0
 27 20  1  0  0  0
 11  4  1  0  0  0
M  END
> <minimizedAffinity>
28.66389

> <CNNscore>
0.4627014399

> <CNNaffinity>
6.4928946495

> <CNN_VS>
3.0042717457

> <CNNaffinity_variance>
0.4935649037

$$$$
[H]c1c([H])c(-c2nc(-c3c([H])c(C([H])([H])[H])nc(C([H])([H])[H])c3[H])c3n2C([H])([H])[C@@]([H])(C([H])([H])[H])OC([H])([H])C3([H])[H])c([H])c(Cl)c1Cl


 27 30  0  0  0  0  0  0  0  0999 V2000
   21.6331   11.7375   51.6934 C   0  0  0  0  0  0  0  0  0  0  0  0
   21.5147   10.4469   52.4596 C   0  0  0  0  0  0  0  0  0  0  0  0
   22.7104    9.5435   52.0642 C   0  0  0  0  0  0  0  0  0  0  0  0
   22.4910    8.3194   52.7651 N   0  0  0  0  0  0  0  0  0  0  0  0
   21.4387    7.4944   52.4431 C   0  0  0  0  0  0  0  0  0  0  0  0
   20.4044    7.6044   51.3829 C   0  0  0  0  0  0  0  0  0  0  0  0
   20.1232    9.1017   51.1724 C   0  0  0  0  0  0  0  0  0  0  0  0
   20.3145    9.8150   52.3271 O   0  0  0  0  0  0  0  0  0  0  0  0
   21.4728    6.4669   53.3093 C   0  0  0  0  0  0  0  0  0  0  0  0
   22.5140    6.6795   54.1169 N   0  0  0  0  0  0  0  0  0  0  0  0
   23.1711    7.8350   53.7957 C   0  0  0  0  0  0  0  0  0  0  0  0
   24.3079    8.3110   54.5675 C   0  0  0  0  0  0  0  0  0  0  0  0
   24.2894    9.0405   55.7037 C   0  0  0  0  0  0  0  0  0  0  0  0
   25.4731    9.3574   56.3939 C   0  0  0  0  0  0  0  0  0  0  0  0
   26.6771    8.9375   55.9336 C   0  0  0  0  0  0  0  0  0  0  0  0
   28.1963    9.3000   56.7505 Cl  0  0  0  0  0  0  0  0  0  0  0  0
   26.7477    8.1941   54.7802 C   0  0  0  0  0  0  0  0  0  0  0  0
   28.3017    7.6307   54.1575 Cl  0  0  0  0  0  0  0  0  0  0  0  0
   25.5879    7.8977   54.1273 C   0  0  0  0  0  0  0  0  0  0  0  0
   20.5669    5.2995   53.4042 C   0  0  0  0  0  0  0  0  0  0  0  0
   19.2678    5.4238   53.8324 C   0  0  0  0  0  0  0  0  0  0  0  0
   18.5051    4.2757   53.8854 C   0  0  0  0  0  0  0  0  0  0  0  0
   17.1077    4.3873   54.3424 C   0  0  0  0  0  0  0  0  0  0  0  0
   18.9898    3.0699   53.5375 N   0  0  0  0  0  0  0  0  0  0  0  0
   20.2571    2.9110   53.1138 C   0  0  0  0  0  0  0  0  0  0  0  0
   20.7931    1.5744   52.7285 C   0  0  0  0  0  0  0  0  0  0  0  0
   21.0387    4.0539   53.0539 C   0  0  0  0  0  0  0  0  0  0  0  0
  1  2  1  0  0  0
  2  3  1  0  0  0
  3  4  1  0  0  0
  4  5  1  0  0  0
  5  6  1  0  0  0
  6  7  1  0  0  0
  7  8  1  0  0  0
  5  9  2  0  0  0
  9 10  1  0  0  0
 10 11  2  0  0  0
 11 12  1  0  0  0
 12 13  2  0  0  0
 13 14  1  0  0  0
 14 15  2  0  0  0
 15 16  1  0  0  0
 15 17  1  0  0  0
 17 18  1  0  0  0
 17 19  2  0  0  0
  9 20  1  0  0  0
 20 21  2  0  0  0
 21 22  1  0  0  0
 22 23  1  0  0  0
 22 24  2  0  0  0
 24 25  1  0  0  0
 25 26  1  0  0  0
 25 27  2  0  0  0
  8  2  1  0  0  0
 19 12  1  0  0  0
 27 20  1  0  0  0
 11  4  1  0  0  0
M  END
> <minimizedAffinity>
28.59347

> <CNNscore>
0.4625195563

> <CNNaffinity>
6.4925889969

> <CNN_VS>
3.0029494762

> <CNNaffinity_variance>
0.4993034899

$$$$
[H]c1c([H])c(-c2nc(-c3c([H])c(C([H])([H])[H])nc(C([H])([H])[H])c3[H])c3n2C([H])([H])[C@@]([H])(C([H])([H])[H])OC([H])([H])C3([H])[H])c([H])c(Cl)c1Cl


 27 30  0  0  0  0  0  0  0  0999 V2000
   19.2259    9.4978   50.7801 C   0  0  0  0  0  0  0  0  0  0  0  0
   20.4257    8.8040   51.3684 C   0  0  0  0  0  0  0  0  0  0  0  0
   20.0499    8.3221   52.7927 C   0  0  0  0  0  0  0  0  0  0  0  0
   21.2489    7.7473   53.3122 N   0  0  0  0  0  0  0  0  0  0  0  0
   22.3466    8.5263   53.5946 C   0  0  0  0  0  0  0  0  0  0  0  0
   22.5484    9.9948   53.5010 C   0  0  0  0  0  0  0  0  0  0  0  0
   21.7009   10.4981   52.3204 C   0  0  0  0  0  0  0  0  0  0  0  0
   21.5733    9.5388   51.3498 O   0  0  0  0  0  0  0  0  0  0  0  0
   23.3169    7.6930   54.0086 C   0  0  0  0  0  0  0  0  0  0  0  0
   22.8064    6.4604   53.9718 N   0  0  0  0  0  0  0  0  0  0  0  0
   21.5089    6.4667   53.5395 C   0  0  0  0  0  0  0  0  0  0  0  0
   20.7534    5.2370   53.3624 C   0  0  0  0  0  0  0  0  0  0  0  0
   21.2166    4.0304   52.9711 C   0  0  0  0  0  0  0  0  0  0  0  0
   20.3806    2.9002   52.9272 C   0  0  0  0  0  0  0  0  0  0  0  0
   19.0743    2.9908   53.2776 C   0  0  0  0  0  0  0  0  0  0  0  0
   17.9742    1.6140   53.2449 Cl  0  0  0  0  0  0  0  0  0  0  0  0
   18.5556    4.1977   53.6807 C   0  0  0  0  0  0  0  0  0  0  0  0
   16.8581    4.3460   54.1459 Cl  0  0  0  0  0  0  0  0  0  0  0  0
   19.3838    5.2803   53.7167 C   0  0  0  0  0  0  0  0  0  0  0  0
   24.6985    8.0124   54.4347 C   0  0  0  0  0  0  0  0  0  0  0  0
   25.7940    7.4972   53.7859 C   0  0  0  0  0  0  0  0  0  0  0  0
   27.0385    7.8557   54.2605 C   0  0  0  0  0  0  0  0  0  0  0  0
   28.2278    7.3133   53.5781 C   0  0  0  0  0  0  0  0  0  0  0  0
   27.2009    8.6754   55.3147 N   0  0  0  0  0  0  0  0  0  0  0  0
   26.1509    9.1984   55.9740 C   0  0  0  0  0  0  0  0  0  0  0  0
   26.3320   10.1066   57.1422 C   0  0  0  0  0  0  0  0  0  0  0  0
   24.8920    8.8492   55.5113 C   0  0  0  0  0  0  0  0  0  0  0  0
  1  2  1  0  0  0
  2  3  1  0  0  0
  3  4  1  0  0  0
  4  5  1  0  0  0
  5  6  1  0  0  0
  6  7  1  0  0  0
  7  8  1  0  0  0
  5  9  2  0  0  0
  9 10  1  0  0  0
 10 11  2  0  0  0
 11 12  1  0  0  0
 12 13  2  0  0  0
 13 14  1  0  0  0
 14 15  2  0  0  0
 15 16  1  0  0  0
 15 17  1  0  0  0
 17 18  1  0  0  0
 17 19  2  0  0  0
  9 20  1  0  0  0
 20 21  2  0  0  0
 21 22  1  0  0  0
 22 23  1  0  0  0
 22 24  2  0  0  0
 24 25  1  0  0  0
 25 26  1  0  0  0
 25 27  2  0  0  0
  8  2  1  0  0  0
 19 12  1  0  0  0
 27 20  1  0  0  0
 11  4  1  0  0  0
M  END
> <minimizedAffinity>
36.72680

> <CNNscore>
0.4258599281

> <CNNaffinity>
6.2991857529

> <CNN_VS>
2.6825706959

> <CNNaffinity_variance>
0.6490230560

$$$$
[H]c1c([H])c(-c2nc(-c3c([H])c(C([H])([H])[H])nc(C([H])([H])[H])c3[H])c3n2C([H])([H])[C@@]([H])(C([H])([H])[H])OC([H])([H])C3([H])[H])c([H])c(Cl)c1Cl


 27 30  0  0  0  0  0  0  0  0999 V2000
   19.4044    9.7292   50.9332 C   0  0  0  0  0  0  0  0  0  0  0  0
   20.6022    9.0307   51.5200 C   0  0  0  0  0  0  0  0  0  0  0  0
   20.2114    8.5093   52.9262 C   0  0  0  0  0  0  0  0  0  0  0  0
   21.4083    7.9315   53.4473 N   0  0  0  0  0  0  0  0  0  0  0  0
   22.4952    8.7122   53.7645 C   0  0  0  0  0  0  0  0  0  0  0  0
   22.6854   10.1842   53.7112 C   0  0  0  0  0  0  0  0  0  0  0  0
   21.8496   10.7105   52.5323 C   0  0  0  0  0  0  0  0  0  0  0  0
   21.7435    9.7753   51.5359 O   0  0  0  0  0  0  0  0  0  0  0  0
   23.4670    7.8767   54.1704 C   0  0  0  0  0  0  0  0  0  0  0  0
   22.9678    6.6412   54.0952 N   0  0  0  0  0  0  0  0  0  0  0  0
   21.6764    6.6477   53.6455 C   0  0  0  0  0  0  0  0  0  0  0  0
   20.9341    5.4166   53.4266 C   0  0  0  0  0  0  0  0  0  0  0  0
   21.4167    4.2183   53.0335 C   0  0  0  0  0  0  0  0  0  0  0  0
   20.5891    3.0844   52.9467 C   0  0  0  0  0  0  0  0  0  0  0  0
   19.2716    3.1630   53.2560 C   0  0  0  0  0  0  0  0  0  0  0  0
   18.1812    1.7808   53.1683 Cl  0  0  0  0  0  0  0  0  0  0  0  0
   18.7333    4.3612   53.6592 C   0  0  0  0  0  0  0  0  0  0  0  0
   17.0208    4.4937   54.0713 Cl  0  0  0  0  0  0  0  0  0  0  0  0
   19.5536    5.4475   53.7371 C   0  0  0  0  0  0  0  0  0  0  0  0
   24.8399    8.1967   54.6235 C   0  0  0  0  0  0  0  0  0  0  0  0
   25.0747    9.0093   55.7056 C   0  0  0  0  0  0  0  0  0  0  0  0
   26.3899    9.2461   56.0472 C   0  0  0  0  0  0  0  0  0  0  0  0
   26.6637   10.1159   57.2059 C   0  0  0  0  0  0  0  0  0  0  0  0
   27.4203    8.7149   55.3645 N   0  0  0  0  0  0  0  0  0  0  0  0
   27.2277    7.9149   54.2999 C   0  0  0  0  0  0  0  0  0  0  0  0
   28.3702    7.3268   53.5441 C   0  0  0  0  0  0  0  0  0  0  0  0
   25.9123    7.6656   53.9417 C   0  0  0  0  0  0  0  0  0  0  0  0
  1  2  1  0  0  0
  2  3  1  0  0  0
  3  4  1  0  0  0
  4  5  1  0  0  0
  5  6  1  0  0  0
  6  7  1  0  0  0
  7  8  1  0  0  0
  5  9  2  0  0  0
  9 10  1  0  0  0
 10 11  2  0  0  0
 11 12  1  0  0  0
 12 13  2  0  0  0
 13 14  1  0  0  0
 14 15  2  0  0  0
 15 16  1  0  0  0
 15 17  1  0  0  0
 17 18  1  0  0  0
 17 19  2  0  0  0
  9 20  1  0  0  0
 20 21  2  0  0  0
 21 22  1  0  0  0
 22 23  1  0  0  0
 22 24  2  0  0  0
 24 25  1  0  0  0
 25 26  1  0  0  0
 25 27  2  0  0  0
  8  2  1  0  0  0
 19 12  1  0  0  0
 27 20  1  0  0  0
 11  4  1  0  0  0
M  END
> <minimizedAffinity>
36.50862

> <CNNscore>
0.4222170413

> <CNNaffinity>
6.2993278503

> <CNN_VS>
2.6596834660

> <CNNaffinity_variance>
0.7015951872

$$$$
[H]c1c([H])c(-c2nc(-c3c([H])c(C([H])([H])[H])nc(C([H])([H])[H])c3[H])c3n2C([H])([H])[C@@]([H])(C([H])([H])[H])OC([H])([H])C3([H])[H])c([H])c(Cl)c1Cl


 27 30  0  0  0  0  0  0  0  0999 V2000
   20.2307    5.5669   53.2295 C   0  0  0  0  0  0  0  0  0  0  0  0
   21.3149    6.4140   53.8410 C   0  0  0  0  0  0  0  0  0  0  0  0
   21.6861    7.5238   52.8249 C   0  0  0  0  0  0  0  0  0  0  0  0
   22.7632    8.2337   53.4363 N   0  0  0  0  0  0  0  0  0  0  0  0
   23.9915    7.6426   53.6189 C   0  0  0  0  0  0  0  0  0  0  0  0
   24.4916    6.2977   53.2349 C   0  0  0  0  0  0  0  0  0  0  0  0
   23.3021    5.3266   53.3197 C   0  0  0  0  0  0  0  0  0  0  0  0
   22.4025    5.7180   54.2770 O   0  0  0  0  0  0  0  0  0  0  0  0
   24.7608    8.5383   54.2616 C   0  0  0  0  0  0  0  0  0  0  0  0
   24.0089    9.6245   54.4516 N   0  0  0  0  0  0  0  0  0  0  0  0
   22.7508    9.4600   53.9414 C   0  0  0  0  0  0  0  0  0  0  0  0
   21.7289   10.4859   54.0745 C   0  0  0  0  0  0  0  0  0  0  0  0
   20.8791   10.6784   55.1062 C   0  0  0  0  0  0  0  0  0  0  0  0
   19.9957   11.7724   55.1375 C   0  0  0  0  0  0  0  0  0  0  0  0
   19.9704   12.6716   54.1234 C   0  0  0  0  0  0  0  0  0  0  0  0
   18.8885   14.0630   54.1015 Cl  0  0  0  0  0  0  0  0  0  0  0  0
   20.8147   12.5174   53.0504 C   0  0  0  0  0  0  0  0  0  0  0  0
   20.8063   13.6744   51.7156 Cl  0  0  0  0  0  0  0  0  0  0  0  0
   21.6634   11.4504   53.0407 C   0  0  0  0  0  0  0  0  0  0  0  0
   26.1690    8.4099   54.7010 C   0  0  0  0  0  0  0  0  0  0  0  0
   27.0888    7.6856   53.9829 C   0  0  0  0  0  0  0  0  0  0  0  0
   28.3753    7.6273   54.4768 C   0  0  0  0  0  0  0  0  0  0  0  0
   29.3782    6.8548   53.7208 C   0  0  0  0  0  0  0  0  0  0  0  0
   28.7410    8.2459   55.6141 N   0  0  0  0  0  0  0  0  0  0  0  0
   27.8669    8.9637   56.3430 C   0  0  0  0  0  0  0  0  0  0  0  0
   28.2732    9.6487   57.6031 C   0  0  0  0  0  0  0  0  0  0  0  0
   26.5690    9.0336   55.8621 C   0  0  0  0  0  0  0  0  0  0  0  0
  1  2  1  0  0  0
  2  3  1  0  0  0
  3  4  1  0  0  0
  4  5  1  0  0  0
  5  6  1  0  0  0
  6  7  1  0  0  0
  7  8  1  0  0  0
  5  9  2  0  0  0
  9 10  1  0  0  0
 10 11  2  0  0  0
 11 12  1  0  0  0
 12 13  2  0  0  0
 13 14  1  0  0  0
 14 15  2  0  0  0
 15 16  1  0  0  0
 15 17  1  0  0  0
 17 18  1  0  0  0
 17 19  2  0  0  0
  9 20  1  0  0  0
 20 21  2  0  0  0
 21 22  1  0  0  0
 22 23  1  0  0  0
 22 24  2  0  0  0
 24 25  1  0  0  0
 25 26  1  0  0  0
 25 27  2  0  0  0
  8  2  1  0  0  0
 19 12  1  0  0  0
 27 20  1  0  0  0
 11  4  1  0  0  0
M  END
> <minimizedAffinity>
32.38087

> <CNNscore>
0.3994190991

> <CNNaffinity>
5.8940935135

> <CNN_VS>
2.3542134762

> <CNNaffinity_variance>
0.3195787966

$$$$
[H]c1c([H])c(-c2nc(-c3c([H])c(C([H])([H])[H])nc(C([H])([H])[H])c3[H])c3n2C([H])([H])[C@@]([H])(C([H])([H])[H])OC([H])([H])C3([H])[H])c([H])c(Cl)c1Cl


 27 30  0  0  0  0  0  0  0  0999 V2000
   20.1369   11.2203   53.4463 C   0  0  0  0  0  0  0  0  0  0  0  0
   21.3812   10.3752   53.5142 C   0  0  0  0  0  0  0  0  0  0  0  0
   21.2290    9.3933   54.7037 C   0  0  0  0  0  0  0  0  0  0  0  0
   22.4670    8.6842   54.7528 N   0  0  0  0  0  0  0  0  0  0  0  0
   23.6364    9.3185   55.1018 C   0  0  0  0  0  0  0  0  0  0  0  0
   23.8966   10.7195   55.5208 C   0  0  0  0  0  0  0  0  0  0  0  0
   22.8879   11.6129   54.7795 C   0  0  0  0  0  0  0  0  0  0  0  0
   22.5460   11.0810   53.5633 O   0  0  0  0  0  0  0  0  0  0  0  0
   24.6177    8.4053   55.0002 C   0  0  0  0  0  0  0  0  0  0  0  0
   24.0440    7.2672   54.6040 N   0  0  0  0  0  0  0  0  0  0  0  0
   22.6940    7.4147   54.4428 C   0  0  0  0  0  0  0  0  0  0  0  0
   21.8554    6.3279   53.9631 C   0  0  0  0  0  0  0  0  0  0  0  0
   22.2376    5.0815   53.6108 C   0  0  0  0  0  0  0  0  0  0  0  0
   21.2989    4.0999   53.2456 C   0  0  0  0  0  0  0  0  0  0  0  0
   19.9726    4.3795   53.2348 C   0  0  0  0  0  0  0  0  0  0  0  0
   18.7458    3.1955   52.7876 Cl  0  0  0  0  0  0  0  0  0  0  0  0
   19.5346    5.6344   53.5834 C   0  0  0  0  0  0  0  0  0  0  0  0
   17.8125    6.0275   53.5814 Cl  0  0  0  0  0  0  0  0  0  0  0  0
   20.4614    6.5707   53.9348 C   0  0  0  0  0  0  0  0  0  0  0  0
   26.0667    8.5637   55.2606 C   0  0  0  0  0  0  0  0  0  0  0  0
   27.0156    8.0918   54.3869 C   0  0  0  0  0  0  0  0  0  0  0  0
   28.3392    8.2895   54.7208 C   0  0  0  0  0  0  0  0  0  0  0  0
   29.3737    7.7905   53.7962 C   0  0  0  0  0  0  0  0  0  0  0  0
   28.7131    8.9162   55.8510 N   0  0  0  0  0  0  0  0  0  0  0  0
   27.8112    9.3911   56.7295 C   0  0  0  0  0  0  0  0  0  0  0  0
   28.2267   10.0853   57.9816 C   0  0  0  0  0  0  0  0  0  0  0  0
   26.4759    9.2016   56.4107 C   0  0  0  0  0  0  0  0  0  0  0  0
  1  2  1  0  0  0
  2  3  1  0  0  0
  3  4  1  0  0  0
  4  5  1  0  0  0
  5  6  1  0  0  0
  6  7  1  0  0  0
  7  8  1  0  0  0
  5  9  2  0  0  0
  9 10  1  0  0  0
 10 11  2  0  0  0
 11 12  1  0  0  0
 12 13  2  0  0  0
 13 14  1  0  0  0
 14 15  2  0  0  0
 15 16  1  0  0  0
 15 17  1  0  0  0
 17 18  1  0  0  0
 17 19  2  0  0  0
  9 20  1  0  0  0
 20 21  2  0  0  0
 21 22  1  0  0  0
 22 23  1  0  0  0
 22 24  2  0  0  0
 24 25  1  0  0  0
 25 26  1  0  0  0
 25 27  2  0  0  0
  8  2  1  0  0  0
 19 12  1  0  0  0
 27 20  1  0  0  0
 11  4  1  0  0  0
M  END
> <minimizedAffinity>
38.48561

> <CNNscore>
0.3964618742

> <CNNaffinity>
6.0262913704

> <CNN_VS>
2.3891947269

> <CNNaffinity_variance>
0.3746718764

$$$$
[H]c1c([H])c(-c2nc(-c3c([H])c(C([H])([H])[H])nc(C([H])([H])[H])c3[H])c3n2C([H])([H])[C@@]([H])(C([H])([H])[H])OC([H])([H])C3([H])[H])c([H])c(Cl)c1Cl


 27 30  0  0  0  0  0  0  0  0999 V2000
   21.8021   11.6559   52.4378 C   0  0  0  0  0  0  0  0  0  0  0  0
   21.7669   10.2559   52.9907 C   0  0  0  0  0  0  0  0  0  0  0  0
   22.7321    9.3836   52.1482 C   0  0  0  0  0  0  0  0  0  0  0  0
   22.5891    8.0653   52.6769 N   0  0  0  0  0  0  0  0  0  0  0  0
   21.4181    7.3606   52.5227 C   0  0  0  0  0  0  0  0  0  0  0  0
   20.1602    7.7059   51.8125 C   0  0  0  0  0  0  0  0  0  0  0  0
   19.9732    9.2280   51.9281 C   0  0  0  0  0  0  0  0  0  0  0  0
   20.5203    9.7138   53.0873 O   0  0  0  0  0  0  0  0  0  0  0  0
   21.5796    6.1943   53.1715 C   0  0  0  0  0  0  0  0  0  0  0  0
   22.8087    6.2109   53.6916 N   0  0  0  0  0  0  0  0  0  0  0  0
   23.4642    7.3737   53.3945 C   0  0  0  0  0  0  0  0  0  0  0  0
   24.8002    7.6511   53.8971 C   0  0  0  0  0  0  0  0  0  0  0  0
   25.9801    7.2550   53.3731 C   0  0  0  0  0  0  0  0  0  0  0  0
   27.2060    7.6738   53.9207 C   0  0  0  0  0  0  0  0  0  0  0  0
   27.2387    8.4927   55.0005 C   0  0  0  0  0  0  0  0  0  0  0  0
   28.7399    9.0536   55.7343 Cl  0  0  0  0  0  0  0  0  0  0  0  0
   26.0642    8.9212   55.5706 C   0  0  0  0  0  0  0  0  0  0  0  0
   26.0752    9.9906   56.9765 Cl  0  0  0  0  0  0  0  0  0  0  0  0
   24.8872    8.5037   55.0234 C   0  0  0  0  0  0  0  0  0  0  0  0
   20.6253    5.0718   53.3190 C   0  0  0  0  0  0  0  0  0  0  0  0
   19.3373    5.2683   53.7535 C   0  0  0  0  0  0  0  0  0  0  0  0
   18.5266    4.1572   53.8571 C   0  0  0  0  0  0  0  0  0  0  0  0
   17.1401    4.3465   54.3217 C   0  0  0  0  0  0  0  0  0  0  0  0
   18.9553    2.9193   53.5513 N   0  0  0  0  0  0  0  0  0  0  0  0
   20.2101    2.6896   53.1229 C   0  0  0  0  0  0  0  0  0  0  0  0
   20.6841    1.3174   52.7843 C   0  0  0  0  0  0  0  0  0  0  0  0
   21.0394    3.7945   53.0125 C   0  0  0  0  0  0  0  0  0  0  0  0
  1  2  1  0  0  0
  2  3  1  0  0  0
  3  4  1  0  0  0
  4  5  1  0  0  0
  5  6  1  0  0  0
  6  7  1  0  0  0
  7  8  1  0  0  0
  5  9  2  0  0  0
  9 10  1  0  0  0
 10 11  2  0  0  0
 11 12  1  0  0  0
 12 13  2  0  0  0
 13 14  1  0  0  0
 14 15  2  0  0  0
 15 16  1  0  0  0
 15 17  1  0  0  0
 17 18  1  0  0  0
 17 19  2  0  0  0
  9 20  1  0  0  0
 20 21  2  0  0  0
 21 22  1  0  0  0
 22 23  1  0  0  0
 22 24  2  0  0  0
 24 25  1  0  0  0
 25 26  1  0  0  0
 25 27  2  0  0  0
  8  2  1  0  0  0
 19 12  1  0  0  0
 27 20  1  0  0  0
 11  4  1  0  0  0
M  END
> <minimizedAffinity>
31.07052

> <CNNscore>
0.3390051126

> <CNNaffinity>
6.3391885757

> <CNN_VS>
2.1490173340

> <CNNaffinity_variance>
0.4566270411

$$$$
[H]c1c([H])c(-c2nc(-c3c([H])c(C([H])([H])[H])nc(C([H])([H])[H])c3[H])c3n2C([H])([H])[C@@]([H])(C([H])([H])[H])OC([H])([H])C3([H])[H])c([H])c(Cl)c1Cl


 27 30  0  0  0  0  0  0  0  0999 V2000
   19.5510   10.2909   55.6395 C   0  0  0  0  0  0  0  0  0  0  0  0
   20.7053    9.6784   54.8916 C   0  0  0  0  0  0  0  0  0  0  0  0
   21.1374    8.3948   55.6451 C   0  0  0  0  0  0  0  0  0  0  0  0
   22.2746    7.9152   54.9277 N   0  0  0  0  0  0  0  0  0  0  0  0
   23.4598    8.6130   54.9250 C   0  0  0  0  0  0  0  0  0  0  0  0
   23.8532    9.8665   55.6178 C   0  0  0  0  0  0  0  0  0  0  0  0
   22.5978   10.7499   55.7119 C   0  0  0  0  0  0  0  0  0  0  0  0
   21.7472   10.5260   54.6606 O   0  0  0  0  0  0  0  0  0  0  0  0
   24.3042    7.9393   54.1248 C   0  0  0  0  0  0  0  0  0  0  0  0
   23.6371    6.8764   53.6701 N   0  0  0  0  0  0  0  0  0  0  0  0
   22.3610    6.8369   54.1603 C   0  0  0  0  0  0  0  0  0  0  0  0
   21.4193    5.8017   53.7653 C   0  0  0  0  0  0  0  0  0  0  0  0
   21.6933    4.5352   53.3854 C   0  0  0  0  0  0  0  0  0  0  0  0
   20.6689    3.6108   53.1131 C   0  0  0  0  0  0  0  0  0  0  0  0
   19.3660    3.9682   53.2232 C   0  0  0  0  0  0  0  0  0  0  0  0
   18.0357    2.8588   52.8967 Cl  0  0  0  0  0  0  0  0  0  0  0  0
   19.0366    5.2466   53.6045 C   0  0  0  0  0  0  0  0  0  0  0  0
   17.3478    5.7406   53.7592 Cl  0  0  0  0  0  0  0  0  0  0  0  0
   20.0453    6.1263   53.8644 C   0  0  0  0  0  0  0  0  0  0  0  0
   25.7072    8.2575   53.7744 C   0  0  0  0  0  0  0  0  0  0  0  0
   26.0730    8.6102   52.4983 C   0  0  0  0  0  0  0  0  0  0  0  0
   27.4055    8.8876   52.2745 C   0  0  0  0  0  0  0  0  0  0  0  0
   27.8191    9.2683   50.9114 C   0  0  0  0  0  0  0  0  0  0  0  0
   28.3303    8.8227   53.2493 N   0  0  0  0  0  0  0  0  0  0  0  0
   28.0081    8.4808   54.5103 C   0  0  0  0  0  0  0  0  0  0  0  0
   29.0338    8.4092   55.5896 C   0  0  0  0  0  0  0  0  0  0  0  0
   26.6734    8.1985   54.7541 C   0  0  0  0  0  0  0  0  0  0  0  0
  1  2  1  0  0  0
  2  3  1  0  0  0
  3  4  1  0  0  0
  4  5  1  0  0  0
  5  6  1  0  0  0
  6  7  1  0  0  0
  7  8  1  0  0  0
  5  9  2  0  0  0
  9 10  1  0  0  0
 10 11  2  0  0  0
 11 12  1  0  0  0
 12 13  2  0  0  0
 13 14  1  0  0  0
 14 15  2  0  0  0
 15 16  1  0  0  0
 15 17  1  0  0  0
 17 18  1  0  0  0
 17 19  2  0  0  0
  9 20  1  0  0  0
 20 21  2  0  0  0
 21 22  1  0  0  0
 22 23  1  0  0  0
 22 24  2  0  0  0
 24 25  1  0  0  0
 25 26  1  0  0  0
 25 27  2  0  0  0
  8  2  1  0  0  0
 19 12  1  0  0  0
 27 20  1  0  0  0
 11  4  1  0  0  0
M  END
> <minimizedAffinity>
39.12067

> <CNNscore>
0.2998572290

> <CNNaffinity>
5.9984064102

> <CNN_VS>
1.7986655235

> <CNNaffinity_variance>
0.4786805212

$$$$
[H]c1c([H])c(-c2nc(-c3c([H])c(C([H])([H])[H])nc(C([H])([H])[H])c3[H])c3n2C([H])([H])[C@@]([H])(C([H])([H])[H])OC([H])([H])C3([H])[H])c([H])c(Cl)c1Cl


 27 30  0  0  0  0  0  0  0  0999 V2000
   20.0873    5.6135   53.4761 C   0  0  0  0  0  0  0  0  0  0  0  0
   21.2115    6.5046   53.9333 C   0  0  0  0  0  0  0  0  0  0  0  0
   21.7257    7.2962   52.7041 C   0  0  0  0  0  0  0  0  0  0  0  0
   22.8308    8.0552   53.1944 N   0  0  0  0  0  0  0  0  0  0  0  0
   23.9928    7.4400   53.5979 C   0  0  0  0  0  0  0  0  0  0  0  0
   24.3908    6.0091   53.5887 C   0  0  0  0  0  0  0  0  0  0  0  0
   23.1183    5.1793   53.8282 C   0  0  0  0  0  0  0  0  0  0  0  0
   22.2124    5.8615   54.5982 O   0  0  0  0  0  0  0  0  0  0  0  0
   24.8065    8.4088   54.0524 C   0  0  0  0  0  0  0  0  0  0  0  0
   24.1444    9.5601   53.9203 N   0  0  0  0  0  0  0  0  0  0  0  0
   22.9020    9.3663   53.3825 C   0  0  0  0  0  0  0  0  0  0  0  0
   21.9687   10.4649   53.1919 C   0  0  0  0  0  0  0  0  0  0  0  0
   21.2447   11.1082   54.1330 C   0  0  0  0  0  0  0  0  0  0  0  0
   20.4427   12.2183   53.8129 C   0  0  0  0  0  0  0  0  0  0  0  0
   20.3713   12.6772   52.5393 C   0  0  0  0  0  0  0  0  0  0  0  0
   19.3863   14.0623   52.0722 Cl  0  0  0  0  0  0  0  0  0  0  0  0
   21.0881   12.0546   51.5461 C   0  0  0  0  0  0  0  0  0  0  0  0
   21.0173   12.6315   49.8780 Cl  0  0  0  0  0  0  0  0  0  0  0  0
   21.8597   10.9808   51.8785 C   0  0  0  0  0  0  0  0  0  0  0  0
   26.1758    8.2913   54.6034 C   0  0  0  0  0  0  0  0  0  0  0  0
   26.5524    8.9419   55.7529 C   0  0  0  0  0  0  0  0  0  0  0  0
   27.8511    8.7676   56.1837 C   0  0  0  0  0  0  0  0  0  0  0  0
   28.2757    9.4574   57.4158 C   0  0  0  0  0  0  0  0  0  0  0  0
   28.7339    7.9968   55.5230 N   0  0  0  0  0  0  0  0  0  0  0  0
   28.3999    7.3451   54.3941 C   0  0  0  0  0  0  0  0  0  0  0  0
   29.3789    6.4913   53.6628 C   0  0  0  0  0  0  0  0  0  0  0  0
   27.0987    7.5084   53.9459 C   0  0  0  0  0  0  0  0  0  0  0  0
  1  2  1  0  0  0
  2  3  1  0  0  0
  3  4  1  0  0  0
  4  5  1  0  0  0
  5  6  1  0  0  0
  6  7  1  0  0  0
  7  8  1  0  0  0
  5  9  2  0  0  0
  9 10  1  0  0  0
 10 11  2  0  0  0
 11 12  1  0  0  0
 12 13  2  0  0  0
 13 14  1  0  0  0
 14 15  2  0  0  0
 15 16  1  0  0  0
 15 17  1  0  0  0
 17 18  1  0  0  0
 17 19  2  0  0  0
  9 20  1  0  0  0
 20 21  2  0  0  0
 21 22  1  0  0  0
 22 23  1  0  0  0
 22 24  2  0  0  0
 24 25  1  0  0  0
 25 26  1  0  0  0
 25 27  2  0  0  0
  8  2  1  0  0  0
 19 12  1  0  0  0
 27 20  1  0  0  0
 11  4  1  0  0  0
M  END
> <minimizedAffinity>
35.70103

> <CNNscore>
0.2913445532

> <CNNaffinity>
5.6294145584

> <CNN_VS>
1.6400992870

> <CNNaffinity_variance>
0.2135492563

$$$$
[H]c1nc(C([H])([H])[H])c([H])c(-c2nc(-c3c([H])c([H])c(F)c(C#N)c3[H])n3c2C([H])([H])C([H])([H])O[C@]([H])(C([H])([H])[H])C3([H])[H])c1[H]


 27 30  0  0  0  0  0  0  0  0999 V2000
   21.7050   11.8288   51.9962 C   0  0  0  0  0  0  0  0  0  0  0  0
   21.3308   10.4038   52.4659 C   0  0  0  0  0  0  0  0  0  0  0  0
   22.5951    9.8830   53.1374 C   0  0  0  0  0  0  0  0  0  0  0  0
   22.5900    8.4675   53.3542 N   0  0  0  0  0  0  0  0  0  0  0  0
   21.4861    7.6645   53.2177 C   0  0  0  0  0  0  0  0  0  0  0  0
   20.1185    8.1222   52.8981 C   0  0  0  0  0  0  0  0  0  0  0  0
   20.1236    8.6738   51.5075 C   0  0  0  0  0  0  0  0  0  0  0  0
   20.9740    9.7388   51.3290 O   0  0  0  0  0  0  0  0  0  0  0  0
   21.8801    6.3711   53.4601 C   0  0  0  0  0  0  0  0  0  0  0  0
   23.1865    6.4402   53.7324 N   0  0  0  0  0  0  0  0  0  0  0  0
   23.6287    7.7314   53.6693 C   0  0  0  0  0  0  0  0  0  0  0  0
   25.0191    8.0415   53.9120 C   0  0  0  0  0  0  0  0  0  0  0  0
   26.0379    8.0059   52.9934 C   0  0  0  0  0  0  0  0  0  0  0  0
   27.3658    8.2817   53.3137 C   0  0  0  0  0  0  0  0  0  0  0  0
   27.7197    8.6114   54.6011 C   0  0  0  0  0  0  0  0  0  0  0  0
   28.9960    8.8803   54.9270 F   0  0  0  0  0  0  0  0  0  0  0  0
   26.7093    8.6534   55.5381 C   0  0  0  0  0  0  0  0  0  0  0  0
   25.4173    8.3804   55.2070 C   0  0  0  0  0  0  0  0  0  0  0  0
   27.0615    8.9948   56.8803 C   0  0  0  0  0  0  0  0  0  0  0  0
   27.3450    9.2696   57.9610 N   0  0  0  0  0  0  0  0  0  0  0  0
   21.0655    5.1612   53.4428 C   0  0  0  0  0  0  0  0  0  0  0  0
   21.5159    3.9169   53.0750 C   0  0  0  0  0  0  0  0  0  0  0  0
   20.6939    2.8145   53.0721 C   0  0  0  0  0  0  0  0  0  0  0  0
   19.4227    2.9845   53.4428 N   0  0  0  0  0  0  0  0  0  0  0  0
   18.9250    4.1817   53.8141 C   0  0  0  0  0  0  0  0  0  0  0  0
   17.5041    4.2701   54.2083 C   0  0  0  0  0  0  0  0  0  0  0  0
   19.7349    5.2777   53.8186 C   0  0  0  0  0  0  0  0  0  0  0  0
  1  2  1  0  0  0
  2  3  1  0  0  0
  3  4  1  0  0  0
  4  5  1  0  0  0
  5  6  1  0  0  0
  6  7  1  0  0  0
  7  8  1  0  0  0
  5  9  2  0  0  0
  9 10  1  0  0  0
 10 11  2  0  0  0
 11 12  1  0  0  0
 12 13  2  0  0  0
 13 14  1  0  0  0
 14 15  2  0  0  0
 15 16  1  0  0  0
 15 17  1  0  0  0
 17 18  2  0  0  0
 17 19  1  0  0  0
 19 20  3  0  0  0
  9 21  1  0  0  0
 21 22  2  0  0  0
 22 23  1  0  0  0
 23 24  2  0  0  0
 24 25  1  0  0  0
 25 26  1  0  0  0
 25 27  2  0  0  0
  8  2  1  0  0  0
 18 12  1  0  0  0
 27 21  1  0  0  0
 11  4  1  0  0  0
M  END
> <minimizedAffinity>
20.61105

> <CNNscore>
0.6019885540

> <CNNaffinity>
6.5886335373

> <CNN_VS>
3.9662818909

> <CNNaffinity_variance>
0.6327880621

$$$$
[H]c1nc(C([H])([H])[H])c([H])c(-c2nc(-c3c([H])c([H])c(F)c(C#N)c3[H])n3c2C([H])([H])C([H])([H])O[C@]([H])(C([H])([H])[H])C3([H])[H])c1[H]


 27 30  0  0  0  0  0  0  0  0999 V2000
   19.2522   10.0960   55.5961 C   0  0  0  0  0  0  0  0  0  0  0  0
   20.7356    9.9250   55.1946 C   0  0  0  0  0  0  0  0  0  0  0  0
   20.7846    8.5723   54.4959 C   0  0  0  0  0  0  0  0  0  0  0  0
   22.1106    8.0568   54.3326 N   0  0  0  0  0  0  0  0  0  0  0  0
   23.2569    8.7812   54.5407 C   0  0  0  0  0  0  0  0  0  0  0  0
   23.3218   10.2139   54.8941 C   0  0  0  0  0  0  0  0  0  0  0  0
   22.7403   10.3843   56.2619 C   0  0  0  0  0  0  0  0  0  0  0  0
   21.4291    9.9858   56.3682 O   0  0  0  0  0  0  0  0  0  0  0  0
   24.3235    7.9410   54.3322 C   0  0  0  0  0  0  0  0  0  0  0  0
   23.7900    6.7594   54.0084 N   0  0  0  0  0  0  0  0  0  0  0  0
   22.4254    6.8262   54.0064 C   0  0  0  0  0  0  0  0  0  0  0  0
   21.6358    5.6552   53.7001 C   0  0  0  0  0  0  0  0  0  0  0  0
   22.0924    4.4776   53.1638 C   0  0  0  0  0  0  0  0  0  0  0  0
   21.2595    3.4028   52.8591 C   0  0  0  0  0  0  0  0  0  0  0  0
   19.9062    3.4803   53.0911 C   0  0  0  0  0  0  0  0  0  0  0  0
   19.0886    2.4526   52.8029 F   0  0  0  0  0  0  0  0  0  0  0  0
   19.4287    4.6556   53.6308 C   0  0  0  0  0  0  0  0  0  0  0  0
   20.2575    5.6957   53.9218 C   0  0  0  0  0  0  0  0  0  0  0  0
   18.0245    4.7511   53.8778 C   0  0  0  0  0  0  0  0  0  0  0  0
   16.8937    4.8280   54.0767 N   0  0  0  0  0  0  0  0  0  0  0  0
   25.7463    8.2484   54.4255 C   0  0  0  0  0  0  0  0  0  0  0  0
   26.6501    8.1002   53.4020 C   0  0  0  0  0  0  0  0  0  0  0  0
   27.9832    8.4005   53.5562 C   0  0  0  0  0  0  0  0  0  0  0  0
   28.3870    8.8488   54.7471 N   0  0  0  0  0  0  0  0  0  0  0  0
   27.5453    9.0145   55.7878 C   0  0  0  0  0  0  0  0  0  0  0  0
   28.0864    9.5166   57.0674 C   0  0  0  0  0  0  0  0  0  0  0  0
   26.2232    8.7183   55.6408 C   0  0  0  0  0  0  0  0  0  0  0  0
  1  2  1  0  0  0
  2  3  1  0  0  0
  3  4  1  0  0  0
  4  5  1  0  0  0
  5  6  1  0  0  0
  6  7  1  0  0  0
  7  8  1  0  0  0
  5  9  2  0  0  0
  9 10  1  0  0  0
 10 11  2  0  0  0
 11 12  1  0  0  0
 12 13  2  0  0  0
 13 14  1  0  0  0
 14 15  2  0  0  0
 15 16  1  0  0  0
 15 17  1  0  0  0
 17 18  2  0  0  0
 17 19  1  0  0  0
 19 20  3  0  0  0
  9 21  1  0  0  0
 21 22  2  0  0  0
 22 23  1  0  0  0
 23 24  2  0  0  0
 24 25  1  0  0  0
 25 26  1  0  0  0
 25 27  2  0  0  0
  8  2  1  0  0  0
 18 12  1  0  0  0
 27 21  1  0  0  0
 11  4  1  0  0  0
M  END
> <minimizedAffinity>
31.82154

> <CNNscore>
0.5900016427

> <CNNaffinity>
6.4180555344

> <CNN_VS>
3.7866632938

> <CNNaffinity_variance>
0.8232651949

$$$$
[H]c1nc(C([H])([H])[H])c([H])c(-c2nc(-c3c([H])c([H])c(F)c(C#N)c3[H])n3c2C([H])([H])C([H])([H])O[C@]([H])(C([H])([H])[H])C3([H])[H])c1[H]


 27 30  0  0  0  0  0  0  0  0999 V2000
   21.7782   11.9582   51.8196 C   0  0  0  0  0  0  0  0  0  0  0  0
   21.3293   10.5733   52.3409 C   0  0  0  0  0  0  0  0  0  0  0  0
   22.5652   10.0105   53.0311 C   0  0  0  0  0  0  0  0  0  0  0  0
   22.4849    8.6060   53.2994 N   0  0  0  0  0  0  0  0  0  0  0  0
   21.3394    7.8588   53.1920 C   0  0  0  0  0  0  0  0  0  0  0  0
   19.9977    8.3770   52.8558 C   0  0  0  0  0  0  0  0  0  0  0  0
   20.0297    8.8765   51.4461 C   0  0  0  0  0  0  0  0  0  0  0  0
   20.9354    9.8874   51.2290 O   0  0  0  0  0  0  0  0  0  0  0  0
   21.6642    6.5558   53.4815 C   0  0  0  0  0  0  0  0  0  0  0  0
   22.9729    6.5649   53.7513 N   0  0  0  0  0  0  0  0  0  0  0  0
   23.4833    7.8275   53.6412 C   0  0  0  0  0  0  0  0  0  0  0  0
   24.8888    8.0714   53.8726 C   0  0  0  0  0  0  0  0  0  0  0  0
   25.9022    7.9505   52.9554 C   0  0  0  0  0  0  0  0  0  0  0  0
   27.2435    8.1662   53.2656 C   0  0  0  0  0  0  0  0  0  0  0  0
   27.6173    8.5203   54.5408 C   0  0  0  0  0  0  0  0  0  0  0  0
   28.9068    8.7321   54.8569 F   0  0  0  0  0  0  0  0  0  0  0  0
   26.6126    8.6478   55.4762 C   0  0  0  0  0  0  0  0  0  0  0  0
   25.3072    8.4327   55.1552 C   0  0  0  0  0  0  0  0  0  0  0  0
   26.9854    9.0156   56.8058 C   0  0  0  0  0  0  0  0  0  0  0  0
   27.2855    9.3116   57.8765 N   0  0  0  0  0  0  0  0  0  0  0  0
   20.7861    5.3914   53.5082 C   0  0  0  0  0  0  0  0  0  0  0  0
   19.4775    5.4045   53.9249 C   0  0  0  0  0  0  0  0  0  0  0  0
   18.7029    4.2683   53.9338 C   0  0  0  0  0  0  0  0  0  0  0  0
   19.2629    3.1294   53.5196 N   0  0  0  0  0  0  0  0  0  0  0  0
   20.5423    3.0563   53.0994 C   0  0  0  0  0  0  0  0  0  0  0  0
   21.0731    1.7498   52.6594 C   0  0  0  0  0  0  0  0  0  0  0  0
   21.3147    4.1790   53.0886 C   0  0  0  0  0  0  0  0  0  0  0  0
  1  2  1  0  0  0
  2  3  1  0  0  0
  3  4  1  0  0  0
  4  5  1  0  0  0
  5  6  1  0  0  0
  6  7  1  0  0  0
  7  8  1  0  0  0
  5  9  2  0  0  0
  9 10  1  0  0  0
 10 11  2  0  0  0
 11 12  1  0  0  0
 12 13  2  0  0  0
 13 14  1  0  0  0
 14 15  2  0  0  0
 15 16  1  0  0  0
 15 17  1  0  0  0
 17 18  2  0  0  0
 17 19  1  0  0  0
 19 20  3  0  0  0
  9 21  1  0  0  0
 21 22  2  0  0  0
 22 23  1  0  0  0
 23 24  2  0  0  0
 24 25  1  0  0  0
 25 26  1  0  0  0
 25 27  2  0  0  0
  8  2  1  0  0  0
 18 12  1  0  0  0
 27 21  1  0  0  0
 11  4  1  0  0  0
M  END
> <minimizedAffinity>
23.78498

> <CNNscore>
0.5600307584

> <CNNaffinity>
6.5098509789

> <CNN_VS>
3.6457166672

> <CNNaffinity_variance>
0.5755766034

$$$$
[H]c1nc(C([H])([H])[H])c([H])c(-c2nc(-c3c([H])c([H])c(F)c(C#N)c3[H])n3c2C([H])([H])C([H])([H])O[C@]([H])(C([H])([H])[H])C3([H])[H])c1[H]


 27 30  0  0  0  0  0  0  0  0999 V2000
   21.5082   11.6151   51.4334 C   0  0  0  0  0  0  0  0  0  0  0  0
   21.0156   10.2467   51.9584 C   0  0  0  0  0  0  0  0  0  0  0  0
   22.0178    9.8753   53.0439 C   0  0  0  0  0  0  0  0  0  0  0  0
   21.9537    8.5006   53.4402 N   0  0  0  0  0  0  0  0  0  0  0  0
   20.9477    7.6368   53.0885 C   0  0  0  0  0  0  0  0  0  0  0  0
   19.7402    7.9861   52.3127 C   0  0  0  0  0  0  0  0  0  0  0  0
   20.1659    8.3540   50.9265 C   0  0  0  0  0  0  0  0  0  0  0  0
   21.0252    9.4253   50.8688 O   0  0  0  0  0  0  0  0  0  0  0  0
   21.2553    6.4048   53.6124 C   0  0  0  0  0  0  0  0  0  0  0  0
   22.4163    6.5684   54.2533 N   0  0  0  0  0  0  0  0  0  0  0  0
   22.8505    7.8598   54.1507 C   0  0  0  0  0  0  0  0  0  0  0  0
   24.0995    8.2623   54.7561 C   0  0  0  0  0  0  0  0  0  0  0  0
   24.2582    9.1404   55.7985 C   0  0  0  0  0  0  0  0  0  0  0  0
   25.5032    9.5100   56.3037 C   0  0  0  0  0  0  0  0  0  0  0  0
   26.6575    8.9940   55.7631 C   0  0  0  0  0  0  0  0  0  0  0  0
   27.8666    9.3400   56.2385 F   0  0  0  0  0  0  0  0  0  0  0  0
   26.5182    8.1088   54.7153 C   0  0  0  0  0  0  0  0  0  0  0  0
   25.2935    7.7595   54.2344 C   0  0  0  0  0  0  0  0  0  0  0  0
   27.7088    7.5637   54.1431 C   0  0  0  0  0  0  0  0  0  0  0  0
   28.6675    7.1249   53.6823 N   0  0  0  0  0  0  0  0  0  0  0  0
   20.4905    5.1664   53.5159 C   0  0  0  0  0  0  0  0  0  0  0  0
   20.9813    3.9760   53.0381 C   0  0  0  0  0  0  0  0  0  0  0  0
   20.2051    2.8432   52.9648 C   0  0  0  0  0  0  0  0  0  0  0  0
   18.9383    2.9285   53.3774 N   0  0  0  0  0  0  0  0  0  0  0  0
   18.4022    4.0697   53.8559 C   0  0  0  0  0  0  0  0  0  0  0  0
   16.9899    4.0656   54.2887 C   0  0  0  0  0  0  0  0  0  0  0  0
   19.1667    5.1955   53.9306 C   0  0  0  0  0  0  0  0  0  0  0  0
  1  2  1  0  0  0
  2  3  1  0  0  0
  3  4  1  0  0  0
  4  5  1  0  0  0
  5  6  1  0  0  0
  6  7  1  0  0  0
  7  8  1  0  0  0
  5  9  2  0  0  0
  9 10  1  0  0  0
 10 11  2  0  0  0
 11 12  1  0  0  0
 12 13  2  0  0  0
 13 14  1  0  0  0
 14 15  2  0  0  0
 15 16  1  0  0  0
 15 17  1  0  0  0
 17 18  2  0  0  0
 17 19  1  0  0  0
 19 20  3  0  0  0
  9 21  1  0  0  0
 21 22  2  0  0  0
 22 23  1  0  0  0
 23 24  2  0  0  0
 24 25  1  0  0  0
 25 26  1  0  0  0
 25 27  2  0  0  0
  8  2  1  0  0  0
 18 12  1  0  0  0
 27 21  1  0  0  0
 11  4  1  0  0  0
M  END
> <minimizedAffinity>
21.37066

> <CNNscore>
0.5304133296

> <CNNaffinity>
6.5878381729

> <CNN_VS>
3.4942772388

> <CNNaffinity_variance>
0.8599640131

$$$$
[H]c1nc(C([H])([H])[H])c([H])c(-c2nc(-c3c([H])c([H])c(F)c(C#N)c3[H])n3c2C([H])([H])C([H])([H])O[C@]([H])(C([H])([H])[H])C3([H])[H])c1[H]


 27 30  0  0  0  0  0  0  0  0999 V2000
   19.1601    9.3617   50.4298 C   0  0  0  0  0  0  0  0  0  0  0  0
   20.5111    9.1980   51.1640 C   0  0  0  0  0  0  0  0  0  0  0  0
   20.5449    7.7303   51.5705 C   0  0  0  0  0  0  0  0  0  0  0  0
   21.5470    7.4269   52.5475 N   0  0  0  0  0  0  0  0  0  0  0  0
   22.5539    8.2815   52.9191 C   0  0  0  0  0  0  0  0  0  0  0  0
   22.8174    9.6125   52.3352 C   0  0  0  0  0  0  0  0  0  0  0  0
   21.6713   10.5095   52.6815 C   0  0  0  0  0  0  0  0  0  0  0  0
   20.4562   10.0770   52.2063 O   0  0  0  0  0  0  0  0  0  0  0  0
   23.2821    7.6622   53.9055 C   0  0  0  0  0  0  0  0  0  0  0  0
   22.6987    6.4740   54.0884 N   0  0  0  0  0  0  0  0  0  0  0  0
   21.6286    6.3239   53.2523 C   0  0  0  0  0  0  0  0  0  0  0  0
   20.8344    5.1172   53.2896 C   0  0  0  0  0  0  0  0  0  0  0  0
   21.2473    3.8548   52.9451 C   0  0  0  0  0  0  0  0  0  0  0  0
   20.4080    2.7426   52.9703 C   0  0  0  0  0  0  0  0  0  0  0  0
   19.0933    2.8684   53.3535 C   0  0  0  0  0  0  0  0  0  0  0  0
   18.2701    1.8058   53.3834 F   0  0  0  0  0  0  0  0  0  0  0  0
   18.6602    4.1294   53.7045 C   0  0  0  0  0  0  0  0  0  0  0  0
   19.4944    5.2047   53.6733 C   0  0  0  0  0  0  0  0  0  0  0  0
   17.2963    4.2759   54.1052 C   0  0  0  0  0  0  0  0  0  0  0  0
   16.1982    4.3939   54.4279 N   0  0  0  0  0  0  0  0  0  0  0  0
   24.4545    8.1654   54.6127 C   0  0  0  0  0  0  0  0  0  0  0  0
   24.4149    8.9663   55.7277 C   0  0  0  0  0  0  0  0  0  0  0  0
   25.5587    9.4152   56.3450 C   0  0  0  0  0  0  0  0  0  0  0  0
   26.7322    9.0473   55.8256 N   0  0  0  0  0  0  0  0  0  0  0  0
   26.8326    8.2626   54.7333 C   0  0  0  0  0  0  0  0  0  0  0  0
   28.1766    7.9087   54.2327 C   0  0  0  0  0  0  0  0  0  0  0  0
   25.7024    7.8149   54.1173 C   0  0  0  0  0  0  0  0  0  0  0  0
  1  2  1  0  0  0
  2  3  1  0  0  0
  3  4  1  0  0  0
  4  5  1  0  0  0
  5  6  1  0  0  0
  6  7  1  0  0  0
  7  8  1  0  0  0
  5  9  2  0  0  0
  9 10  1  0  0  0
 10 11  2  0  0  0
 11 12  1  0  0  0
 12 13  2  0  0  0
 13 14  1  0  0  0
 14 15  2  0  0  0
 15 16  1  0  0  0
 15 17  1  0  0  0
 17 18  2  0  0  0
 17 19  1  0  0  0
 19 20  3  0  0  0
  9 21  1  0  0  0
 21 22  2  0  0  0
 22 23  1  0  0  0
 23 24  2  0  0  0
 24 25  1  0  0  0
 25 26  1  0  0  0
 25 27  2  0  0  0
  8  2  1  0  0  0
 18 12  1  0  0  0
 27 21  1  0  0  0
 11  4  1  0  0  0
M  END
> <minimizedAffinity>
31.49312

> <CNNscore>
0.5111066103

> <CNNaffinity>
6.4153685570

> <CNN_VS>
3.2789373398

> <CNNaffinity_variance>
0.6137134433

$$$$
[H]c1nc(C([H])([H])[H])c([H])c(-c2nc(-c3c([H])c([H])c(F)c(C#N)c3[H])n3c2C([H])([H])C([H])([H])O[C@]([H])(C([H])([H])[H])C3([H])[H])c1[H]


 27 30  0  0  0  0  0  0  0  0999 V2000
   21.6724   11.1643   50.7731 C   0  0  0  0  0  0  0  0  0  0  0  0
   21.2654    9.9738   51.6720 C   0  0  0  0  0  0  0  0  0  0  0  0
   22.5065    9.6902   52.5087 C   0  0  0  0  0  0  0  0  0  0  0  0
   22.4739    8.4230   53.1750 N   0  0  0  0  0  0  0  0  0  0  0  0
   21.3604    7.6286   53.2796 C   0  0  0  0  0  0  0  0  0  0  0  0
   20.0075    7.9682   52.7935 C   0  0  0  0  0  0  0  0  0  0  0  0
   20.0513    8.0357   51.2997 C   0  0  0  0  0  0  0  0  0  0  0  0
   20.9223    8.9771   50.8054 O   0  0  0  0  0  0  0  0  0  0  0  0
   21.7282    6.4819   53.9405 C   0  0  0  0  0  0  0  0  0  0  0  0
   23.0294    6.6253   54.2086 N   0  0  0  0  0  0  0  0  0  0  0  0
   23.4936    7.8216   53.7393 C   0  0  0  0  0  0  0  0  0  0  0  0
   24.8833    8.1824   53.9030 C   0  0  0  0  0  0  0  0  0  0  0  0
   25.8298    8.2638   52.9128 C   0  0  0  0  0  0  0  0  0  0  0  0
   27.1646    8.5818   53.1556 C   0  0  0  0  0  0  0  0  0  0  0  0
   27.6006    8.8353   54.4350 C   0  0  0  0  0  0  0  0  0  0  0  0
   28.8848    9.1434   54.6867 F   0  0  0  0  0  0  0  0  0  0  0  0
   26.6635    8.7594   55.4435 C   0  0  0  0  0  0  0  0  0  0  0  0
   25.3635    8.4468   55.1875 C   0  0  0  0  0  0  0  0  0  0  0  0
   27.1014    9.0206   56.7784 C   0  0  0  0  0  0  0  0  0  0  0  0
   27.4541    9.2308   57.8533 N   0  0  0  0  0  0  0  0  0  0  0  0
   20.8948    5.3393   54.2978 C   0  0  0  0  0  0  0  0  0  0  0  0
   20.8635    4.7476   55.5369 C   0  0  0  0  0  0  0  0  0  0  0  0
   20.0600    3.6653   55.8088 C   0  0  0  0  0  0  0  0  0  0  0  0
   19.2955    3.1934   54.8213 N   0  0  0  0  0  0  0  0  0  0  0  0
   19.2845    3.7335   53.5855 C   0  0  0  0  0  0  0  0  0  0  0  0
   18.4039    3.1410   52.5580 C   0  0  0  0  0  0  0  0  0  0  0  0
   20.0788    4.8061   53.3103 C   0  0  0  0  0  0  0  0  0  0  0  0
  1  2  1  0  0  0
  2  3  1  0  0  0
  3  4  1  0  0  0
  4  5  1  0  0  0
  5  6  1  0  0  0
  6  7  1  0  0  0
  7  8  1  0  0  0
  5  9  2  0  0  0
  9 10  1  0  0  0
 10 11  2  0  0  0
 11 12  1  0  0  0
 12 13  2  0  0  0
 13 14  1  0  0  0
 14 15  2  0  0  0
 15 16  1  0  0  0
 15 17  1  0  0  0
 17 18  2  0  0  0
 17 19  1  0  0  0
 19 20  3  0  0  0
  9 21  1  0  0  0
 21 22  2  0  0  0
 22 23  1  0  0  0
 23 24  2  0  0  0
 24 25  1  0  0  0
 25 26  1  0  0  0
 25 27  2  0  0  0
  8  2  1  0  0  0
 18 12  1  0  0  0
 27 21  1  0  0  0
 11  4  1  0  0  0
M  END
> <minimizedAffinity>
30.45872

> <CNNscore>
0.5090625882

> <CNNaffinity>
6.5953550339

> <CNN_VS>
3.3574485779

> <CNNaffinity_variance>
0.8794873953

$$$$
[H]c1nc(C([H])([H])[H])c([H])c(-c2nc(-c3c([H])c([H])c(F)c(C#N)c3[H])n3c2C([H])([H])C([H])([H])O[C@]([H])(C([H])([H])[H])C3([H])[H])c1[H]


 27 30  0  0  0  0  0  0  0  0999 V2000
   20.3681    4.8705   53.6961 C   0  0  0  0  0  0  0  0  0  0  0  0
   21.6380    5.6041   54.1861 C   0  0  0  0  0  0  0  0  0  0  0  0
   21.4849    7.0226   53.6523 C   0  0  0  0  0  0  0  0  0  0  0  0
   22.6937    7.7890   53.7003 N   0  0  0  0  0  0  0  0  0  0  0  0
   23.8264    7.4119   54.3761 C   0  0  0  0  0  0  0  0  0  0  0  0
   23.9706    6.2053   55.2158 C   0  0  0  0  0  0  0  0  0  0  0  0
   23.8717    5.0045   54.3290 C   0  0  0  0  0  0  0  0  0  0  0  0
   22.6799    4.9034   53.6517 O   0  0  0  0  0  0  0  0  0  0  0  0
   24.7833    8.3717   54.1522 C   0  0  0  0  0  0  0  0  0  0  0  0
   24.2011    9.2801   53.3638 N   0  0  0  0  0  0  0  0  0  0  0  0
   22.9118    8.9254   53.0832 C   0  0  0  0  0  0  0  0  0  0  0  0
   22.0936    9.7561   52.2295 C   0  0  0  0  0  0  0  0  0  0  0  0
   22.3227   11.0688   51.9019 C   0  0  0  0  0  0  0  0  0  0  0  0
   21.4632   11.8178   51.1006 C   0  0  0  0  0  0  0  0  0  0  0  0
   20.3171   11.2552   50.5895 C   0  0  0  0  0  0  0  0  0  0  0  0
   19.4771   11.9636   49.8147 F   0  0  0  0  0  0  0  0  0  0  0  0
   20.0704    9.9364   50.9068 C   0  0  0  0  0  0  0  0  0  0  0  0
   20.9213    9.2202   51.6917 C   0  0  0  0  0  0  0  0  0  0  0  0
   18.8834    9.3377   50.3828 C   0  0  0  0  0  0  0  0  0  0  0  0
   17.9275    8.8557   49.9609 N   0  0  0  0  0  0  0  0  0  0  0  0
   26.1488    8.4213   54.6628 C   0  0  0  0  0  0  0  0  0  0  0  0
   27.2523    7.9417   54.0006 C   0  0  0  0  0  0  0  0  0  0  0  0
   28.5150    8.0111   54.5406 C   0  0  0  0  0  0  0  0  0  0  0  0
   28.6466    8.5667   55.7474 N   0  0  0  0  0  0  0  0  0  0  0  0
   27.5999    9.0545   56.4440 C   0  0  0  0  0  0  0  0  0  0  0  0
   27.8456    9.6513   57.7727 C   0  0  0  0  0  0  0  0  0  0  0  0
   26.3462    8.9882   55.9138 C   0  0  0  0  0  0  0  0  0  0  0  0
  1  2  1  0  0  0
  2  3  1  0  0  0
  3  4  1  0  0  0
  4  5  1  0  0  0
  5  6  1  0  0  0
  6  7  1  0  0  0
  7  8  1  0  0  0
  5  9  2  0  0  0
  9 10  1  0  0  0
 10 11  2  0  0  0
 11 12  1  0  0  0
 12 13  2  0  0  0
 13 14  1  0  0  0
 14 15  2  0  0  0
 15 16  1  0  0  0
 15 17  1  0  0  0
 17 18  2  0  0  0
 17 19  1  0  0  0
 19 20  3  0  0  0
  9 21  1  0  0  0
 21 22  2  0  0  0
 22 23  1  0  0  0
 23 24  2  0  0  0
 24 25  1  0  0  0
 25 26  1  0  0  0
 25 27  2  0  0  0
  8  2  1  0  0  0
 18 12  1  0  0  0
 27 21  1  0  0  0
 11  4  1  0  0  0
M  END
> <minimizedAffinity>
35.98630

> <CNNscore>
0.5049229860

> <CNNaffinity>
6.0269117355

> <CNN_VS>
3.0431263447

> <CNNaffinity_variance>
0.5963863134

$$$$
[H]c1nc(C([H])([H])[H])c([H])c(-c2nc(-c3c([H])c([H])c(F)c(C#N)c3[H])n3c2C([H])([H])C([H])([H])O[C@]([H])(C([H])([H])[H])C3([H])[H])c1[H]


 27 30  0  0  0  0  0  0  0  0999 V2000
   21.5958   11.7026   51.3843 C   0  0  0  0  0  0  0  0  0  0  0  0
   21.0584   10.3612   51.9345 C   0  0  0  0  0  0  0  0  0  0  0  0
   22.0452    9.9797   53.0306 C   0  0  0  0  0  0  0  0  0  0  0  0
   21.9362    8.6159   53.4536 N   0  0  0  0  0  0  0  0  0  0  0  0
   20.9042    7.7776   53.1155 C   0  0  0  0  0  0  0  0  0  0  0  0
   19.7107    8.1497   52.3288 C   0  0  0  0  0  0  0  0  0  0  0  0
   20.1518    8.4764   50.9371 C   0  0  0  0  0  0  0  0  0  0  0  0
   21.0449    9.5185   50.8613 O   0  0  0  0  0  0  0  0  0  0  0  0
   21.1710    6.5471   53.6646 C   0  0  0  0  0  0  0  0  0  0  0  0
   22.3348    6.6864   54.3062 N   0  0  0  0  0  0  0  0  0  0  0  0
   22.8102    7.9611   54.1797 C   0  0  0  0  0  0  0  0  0  0  0  0
   24.0697    8.3355   54.7814 C   0  0  0  0  0  0  0  0  0  0  0  0
   24.2502    9.2024   55.8296 C   0  0  0  0  0  0  0  0  0  0  0  0
   25.5045    9.5449   56.3308 C   0  0  0  0  0  0  0  0  0  0  0  0
   26.6462    9.0117   55.7799 C   0  0  0  0  0  0  0  0  0  0  0  0
   27.8640    9.3315   56.2514 F   0  0  0  0  0  0  0  0  0  0  0  0
   26.4848    8.1374   54.7262 C   0  0  0  0  0  0  0  0  0  0  0  0
   25.2513    7.8147   54.2493 C   0  0  0  0  0  0  0  0  0  0  0  0
   27.6620    7.5748   54.1433 C   0  0  0  0  0  0  0  0  0  0  0  0
   28.6099    7.1217   53.6740 N   0  0  0  0  0  0  0  0  0  0  0  0
   20.3674    5.3320   53.5899 C   0  0  0  0  0  0  0  0  0  0  0  0
   19.0370    5.2492   53.9207 C   0  0  0  0  0  0  0  0  0  0  0  0
   18.3359    4.0693   53.8361 C   0  0  0  0  0  0  0  0  0  0  0  0
   18.9907    2.9844   53.4162 N   0  0  0  0  0  0  0  0  0  0  0  0
   20.2960    3.0057   53.0776 C   0  0  0  0  0  0  0  0  0  0  0  0
   20.9339    1.7529   52.6238 C   0  0  0  0  0  0  0  0  0  0  0  0
   20.9959    4.1721   53.1598 C   0  0  0  0  0  0  0  0  0  0  0  0
  1  2  1  0  0  0
  2  3  1  0  0  0
  3  4  1  0  0  0
  4  5  1  0  0  0
  5  6  1  0  0  0
  6  7  1  0  0  0
  7  8  1  0  0  0
  5  9  2  0  0  0
  9 10  1  0  0  0
 10 11  2  0  0  0
 11 12  1  0  0  0
 12 13  2  0  0  0
 13 14  1  0  0  0
 14 15  2  0  0  0
 15 16  1  0  0  0
 15 17  1  0  0  0
 17 18  2  0  0  0
 17 19  1  0  0  0
 19 20  3  0  0  0
  9 21  1  0  0  0
 21 22  2  0  0  0
 22 23  1  0  0  0
 23 24  2  0  0  0
 24 25  1  0  0  0
 25 26  1  0  0  0
 25 27  2  0  0  0
  8  2  1  0  0  0
 18 12  1  0  0  0
 27 21  1  0  0  0
 11  4  1  0  0  0
M  END
> <minimizedAffinity>
24.82991

> <CNNscore>
0.4994299710

> <CNNaffinity>
6.4829421043

> <CNN_VS>
3.2377755642

> <CNNaffinity_variance>
0.7193547487

$$$$
[H]c1nc(C([H])([H])[H])c([H])c(-c2nc(-c3c([H])c([H])c(F)c(C#N)c3[H])n3c2C([H])([H])C([H])([H])O[C@]([H])(C([H])([H])[H])C3([H])[H])c1[H]


 27 30  0  0  0  0  0  0  0  0999 V2000
   21.9497    4.4941   53.6297 C   0  0  0  0  0  0  0  0  0  0  0  0
   21.7523    5.9837   53.2646 C   0  0  0  0  0  0  0  0  0  0  0  0
   23.1479    6.5858   53.3658 C   0  0  0  0  0  0  0  0  0  0  0  0
   23.1561    8.0176   53.3939 N   0  0  0  0  0  0  0  0  0  0  0  0
   22.0702    8.8065   53.1103 C   0  0  0  0  0  0  0  0  0  0  0  0
   20.7460    8.3268   52.6650 C   0  0  0  0  0  0  0  0  0  0  0  0
   20.1286    7.5523   53.7862 C   0  0  0  0  0  0  0  0  0  0  0  0
   20.8594    6.4573   54.1814 O   0  0  0  0  0  0  0  0  0  0  0  0
   22.4490   10.1149   53.2875 C   0  0  0  0  0  0  0  0  0  0  0  0
   23.7305   10.0685   53.6633 N   0  0  0  0  0  0  0  0  0  0  0  0
   24.1714    8.7770   53.7294 C   0  0  0  0  0  0  0  0  0  0  0  0
   25.5280    8.4865   54.1337 C   0  0  0  0  0  0  0  0  0  0  0  0
   26.4102    7.6498   53.4975 C   0  0  0  0  0  0  0  0  0  0  0  0
   27.6942    7.3892   53.9722 C   0  0  0  0  0  0  0  0  0  0  0  0
   28.1432    7.9779   55.1311 C   0  0  0  0  0  0  0  0  0  0  0  0
   29.3790    7.7373   55.6029 F   0  0  0  0  0  0  0  0  0  0  0  0
   27.2712    8.8230   55.7839 C   0  0  0  0  0  0  0  0  0  0  0  0
   26.0200    9.0655   55.3056 C   0  0  0  0  0  0  0  0  0  0  0  0
   27.7237    9.4426   56.9895 C   0  0  0  0  0  0  0  0  0  0  0  0
   28.0880    9.9415   57.9603 N   0  0  0  0  0  0  0  0  0  0  0  0
   21.6480   11.3197   53.1012 C   0  0  0  0  0  0  0  0  0  0  0  0
   20.8789   11.9092   54.0744 C   0  0  0  0  0  0  0  0  0  0  0  0
   20.1383   13.0424   53.8328 C   0  0  0  0  0  0  0  0  0  0  0  0
   20.1851   13.5673   52.6062 N   0  0  0  0  0  0  0  0  0  0  0  0
   20.9223   13.0324   51.6115 C   0  0  0  0  0  0  0  0  0  0  0  0
   20.9102   13.6857   50.2867 C   0  0  0  0  0  0  0  0  0  0  0  0
   21.6581   11.9094   51.8452 C   0  0  0  0  0  0  0  0  0  0  0  0
  1  2  1  0  0  0
  2  3  1  0  0  0
  3  4  1  0  0  0
  4  5  1  0  0  0
  5  6  1  0  0  0
  6  7  1  0  0  0
  7  8  1  0  0  0
  5  9  2  0  0  0
  9 10  1  0  0  0
 10 11  2  0  0  0
 11 12  1  0  0  0
 12 13  2  0  0  0
 13 14  1  0  0  0
 14 15  2  0  0  0
 15 16  1  0  0  0
 15 17  1  0  0  0
 17 18  2  0  0  0
 17 19  1  0  0  0
 19 20  3  0  0  0
  9 21  1  0  0  0
 21 22  2  0  0  0
 22 23  1  0  0  0
 23 24  2  0  0  0
 24 25  1  0  0  0
 25 26  1  0  0  0
 25 27  2  0  0  0
  8  2  1  0  0  0
 18 12  1  0  0  0
 27 21  1  0  0  0
 11  4  1  0  0  0
M  END
> <minimizedAffinity>
32.93024

> <CNNscore>
0.4803162515

> <CNNaffinity>
5.8578310013

> <CNN_VS>
2.8136115074

> <CNNaffinity_variance>
0.2501357794

$$$$
[H]c1c([H])c(-c2nc(-c3c([H])c(C([H])([H])[H])nc(C([H])([H])F)c3[H])c3n2C([H])([H])[C@@]([H])(C([H])([H])[H])OC([H])([H])C3([H])[H])c([H])c(C([H])([H])[H])c1F


 28 31  0  0  0  0  0  0  0  0999 V2000
   21.7275   11.8406   51.6931 C   0  0  0  0  0  0  0  0  0  0  0  0
   21.3248   10.4027   51.9903 C   0  0  0  0  0  0  0  0  0  0  0  0
   22.5948    9.6301   52.2571 C   0  0  0  0  0  0  0  0  0  0  0  0
   22.3153    8.2996   52.7705 N   0  0  0  0  0  0  0  0  0  0  0  0
   21.2467    7.4972   52.4820 C   0  0  0  0  0  0  0  0  0  0  0  0
   20.1379    7.6578   51.5389 C   0  0  0  0  0  0  0  0  0  0  0  0
   19.6224    9.0560   51.5208 C   0  0  0  0  0  0  0  0  0  0  0  0
   20.6314    9.8443   50.9388 O   0  0  0  0  0  0  0  0  0  0  0  0
   21.4239    6.3770   53.2885 C   0  0  0  0  0  0  0  0  0  0  0  0
   22.5333    6.5350   53.9938 N   0  0  0  0  0  0  0  0  0  0  0  0
   23.1080    7.7263   53.6840 C   0  0  0  0  0  0  0  0  0  0  0  0
   24.3275    8.1552   54.3188 C   0  0  0  0  0  0  0  0  0  0  0  0
   24.2297    8.9213   55.5005 C   0  0  0  0  0  0  0  0  0  0  0  0
   25.3343    9.3140   56.2164 C   0  0  0  0  0  0  0  0  0  0  0  0
   26.5986    8.9728   55.8060 C   0  0  0  0  0  0  0  0  0  0  0  0
   27.6565    9.3834   56.5432 F   0  0  0  0  0  0  0  0  0  0  0  0
   26.7522    8.2270   54.6626 C   0  0  0  0  0  0  0  0  0  0  0  0
   28.1179    7.8340   54.1815 C   0  0  0  0  0  0  0  0  0  0  0  0
   25.6145    7.8465   53.9644 C   0  0  0  0  0  0  0  0  0  0  0  0
   20.5636    5.2148   53.3766 C   0  0  0  0  0  0  0  0  0  0  0  0
   21.0051    3.9583   53.0288 C   0  0  0  0  0  0  0  0  0  0  0  0
   20.1550    2.8791   53.1265 C   0  0  0  0  0  0  0  0  0  0  0  0
   20.7105    1.5538   52.7305 C   0  0  0  0  0  0  0  0  0  0  0  0
   18.8899    3.0130   53.5562 N   0  0  0  0  0  0  0  0  0  0  0  0
   18.4291    4.2241   53.9029 C   0  0  0  0  0  0  0  0  0  0  0  0
   19.2515    5.3219   53.8172 C   0  0  0  0  0  0  0  0  0  0  0  0
   17.0258    4.4170   54.3869 C   0  0  0  0  0  0  0  0  0  0  0  0
   16.2277    3.4232   53.8524 F   0  0  0  0  0  0  0  0  0  0  0  0
  1  2  1  0  0  0
  2  3  1  0  0  0
  3  4  1  0  0  0
  4  5  1  0  0  0
  5  6  1  0  0  0
  6  7  1  0  0  0
  7  8  1  0  0  0
  5  9  2  0  0  0
  9 10  1  0  0  0
 10 11  2  0  0  0
 11 12  1  0  0  0
 12 13  2  0  0  0
 13 14  1  0  0  0
 14 15  2  0  0  0
 15 16  1  0  0  0
 15 17  1  0  0  0
 17 18  1  0  0  0
 17 19  2  0  0  0
  9 20  1  0  0  0
 20 21  2  0  0  0
 21 22  1  0  0  0
 22 23  1  0  0  0
 22 24  2  0  0  0
 24 25  1  0  0  0
 25 27  1  0  0  0
 27 28  1  0  0  0
 25 26  2  0  0  0
  8  2  1  0  0  0
 19 12  1  0  0  0
 26 20  1  0  0  0
 11  4  1  0  0  0
M  END
> <minimizedAffinity>
25.12455

> <CNNscore>
0.4989844263

> <CNNaffinity>
6.6014122963

> <CNN_VS>
3.2940018177

> <CNNaffinity_variance>
0.7118395567

$$$$
[H]c1c([H])c(-c2nc(-c3c([H])c(C([H])([H])[H])nc(C([H])([H])F)c3[H])c3n2C([H])([H])[C@@]([H])(C([H])([H])[H])OC([H])([H])C3([H])[H])c([H])c(C([H])([H])[H])c1F


 28 31  0  0  0  0  0  0  0  0999 V2000
   19.8857    5.8669   53.5718 C   0  0  0  0  0  0  0  0  0  0  0  0
   21.3113    6.2950   53.8919 C   0  0  0  0  0  0  0  0  0  0  0  0
   21.5366    7.6302   53.2228 C   0  0  0  0  0  0  0  0  0  0  0  0
   22.7873    8.2377   53.6460 N   0  0  0  0  0  0  0  0  0  0  0  0
   23.9486    7.6076   53.9969 C   0  0  0  0  0  0  0  0  0  0  0  0
   24.3330    6.1947   53.9729 C   0  0  0  0  0  0  0  0  0  0  0  0
   23.2262    5.3103   54.4355 C   0  0  0  0  0  0  0  0  0  0  0  0
   22.2293    5.3697   53.4452 O   0  0  0  0  0  0  0  0  0  0  0  0
   24.7999    8.6372   54.3868 C   0  0  0  0  0  0  0  0  0  0  0  0
   24.1568    9.7879   54.2616 N   0  0  0  0  0  0  0  0  0  0  0  0
   22.9002    9.5628   53.7974 C   0  0  0  0  0  0  0  0  0  0  0  0
   21.9785   10.6478   53.5794 C   0  0  0  0  0  0  0  0  0  0  0  0
   21.0821   10.9793   54.6183 C   0  0  0  0  0  0  0  0  0  0  0  0
   20.2170   12.0428   54.5324 C   0  0  0  0  0  0  0  0  0  0  0  0
   20.1877   12.8396   53.4154 C   0  0  0  0  0  0  0  0  0  0  0  0
   19.3177   13.8754   53.3758 F   0  0  0  0  0  0  0  0  0  0  0  0
   21.0397   12.5629   52.3739 C   0  0  0  0  0  0  0  0  0  0  0  0
   21.0378   13.4108   51.1361 C   0  0  0  0  0  0  0  0  0  0  0  0
   21.9012   11.4814   52.4948 C   0  0  0  0  0  0  0  0  0  0  0  0
   26.1637    8.5158   54.8599 C   0  0  0  0  0  0  0  0  0  0  0  0
   27.1193    7.8271   54.1477 C   0  0  0  0  0  0  0  0  0  0  0  0
   28.4050    7.7346   54.6329 C   0  0  0  0  0  0  0  0  0  0  0  0
   29.3788    6.9715   53.8017 C   0  0  0  0  0  0  0  0  0  0  0  0
   28.7638    8.3024   55.7956 N   0  0  0  0  0  0  0  0  0  0  0  0
   27.8562    8.9807   56.5135 C   0  0  0  0  0  0  0  0  0  0  0  0
   26.5643    9.0920   56.0577 C   0  0  0  0  0  0  0  0  0  0  0  0
   28.2145    9.6286   57.8144 C   0  0  0  0  0  0  0  0  0  0  0  0
   28.7058    8.6643   58.6740 F   0  0  0  0  0  0  0  0  0  0  0  0
  1  2  1  0  0  0
  2  3  1  0  0  0
  3  4  1  0  0  0
  4  5  1  0  0  0
  5  6  1  0  0  0
  6  7  1  0  0  0
  7  8  1  0  0  0
  5  9  2  0  0  0
  9 10  1  0  0  0
 10 11  2  0  0  0
 11 12  1  0  0  0
 12 13  2  0  0  0
 13 14  1  0  0  0
 14 15  2  0  0  0
 15 16  1  0  0  0
 15 17  1  0  0  0
 17 18  1  0  0  0
 17 19  2  0  0  0
  9 20  1  0  0  0
 20 21  2  0  0  0
 21 22  1  0  0  0
 22 23  1  0  0  0
 22 24  2  0  0  0
 24 25  1  0  0  0
 25 27  1  0  0  0
 27 28  1  0  0  0
 25 26  2  0  0  0
  8  2  1  0  0  0
 19 12  1  0  0  0
 26 20  1  0  0  0
 11  4  1  0  0  0
M  END
> <minimizedAffinity>
29.98705

> <CNNscore>
0.4861130714

> <CNNaffinity>
5.8497385979

> <CNN_VS>
2.8436343670

> <CNNaffinity_variance>
0.2656768560

$$$$
[H]c1c([H])c(-c2nc(-c3c([H])c(C([H])([H])[H])nc(C([H])([H])F)c3[H])c3n2C([H])([H])[C@@]([H])(C([H])([H])[H])OC([H])([H])C3([H])[H])c([H])c(C([H])([H])[H])c1F


 28 31  0  0  0  0  0  0  0  0999 V2000
   21.7579   11.8279   51.6351 C   0  0  0  0  0  0  0  0  0  0  0  0
   21.3353   10.4019   51.9609 C   0  0  0  0  0  0  0  0  0  0  0  0
   22.5944    9.6179   52.2456 C   0  0  0  0  0  0  0  0  0  0  0  0
   22.2962    8.3020   52.7856 N   0  0  0  0  0  0  0  0  0  0  0  0
   21.2173    7.5084   52.5117 C   0  0  0  0  0  0  0  0  0  0  0  0
   20.1121    7.6646   51.5636 C   0  0  0  0  0  0  0  0  0  0  0  0
   19.6156    9.0690   51.5160 C   0  0  0  0  0  0  0  0  0  0  0  0
   20.6360    9.8315   50.9198 O   0  0  0  0  0  0  0  0  0  0  0  0
   21.3782    6.4026   53.3411 C   0  0  0  0  0  0  0  0  0  0  0  0
   22.4886    6.5600   54.0450 N   0  0  0  0  0  0  0  0  0  0  0  0
   23.0797    7.7368   53.7120 C   0  0  0  0  0  0  0  0  0  0  0  0
   24.3041    8.1621   54.3400 C   0  0  0  0  0  0  0  0  0  0  0  0
   24.2150    8.9316   55.5202 C   0  0  0  0  0  0  0  0  0  0  0  0
   25.3245    9.3215   56.2299 C   0  0  0  0  0  0  0  0  0  0  0  0
   26.5855    8.9738   55.8145 C   0  0  0  0  0  0  0  0  0  0  0  0
   27.6486    9.3817   56.5457 F   0  0  0  0  0  0  0  0  0  0  0  0
   26.7306    8.2244   54.6723 C   0  0  0  0  0  0  0  0  0  0  0  0
   28.0923    7.8243   54.1860 C   0  0  0  0  0  0  0  0  0  0  0  0
   25.5881    7.8470   53.9804 C   0  0  0  0  0  0  0  0  0  0  0  0
   20.5021    5.2541   53.4514 C   0  0  0  0  0  0  0  0  0  0  0  0
   19.1770    5.3842   53.8004 C   0  0  0  0  0  0  0  0  0  0  0  0
   18.3776    4.2666   53.8948 C   0  0  0  0  0  0  0  0  0  0  0  0
   16.9553    4.4938   54.2781 C   0  0  0  0  0  0  0  0  0  0  0  0
   18.8545    3.0347   53.6543 N   0  0  0  0  0  0  0  0  0  0  0  0
   20.1415    2.8739   53.3119 C   0  0  0  0  0  0  0  0  0  0  0  0
   20.9663    3.9685   53.2087 C   0  0  0  0  0  0  0  0  0  0  0  0
   20.7129    1.5184   53.0352 C   0  0  0  0  0  0  0  0  0  0  0  0
   21.2216    1.5012   51.7502 F   0  0  0  0  0  0  0  0  0  0  0  0
  1  2  1  0  0  0
  2  3  1  0  0  0
  3  4  1  0  0  0
  4  5  1  0  0  0
  5  6  1  0  0  0
  6  7  1  0  0  0
  7  8  1  0  0  0
  5  9  2  0  0  0
  9 10  1  0  0  0
 10 11  2  0  0  0
 11 12  1  0  0  0
 12 13  2  0  0  0
 13 14  1  0  0  0
 14 15  2  0  0  0
 15 16  1  0  0  0
 15 17  1  0  0  0
 17 18  1  0  0  0
 17 19  2  0  0  0
  9 20  1  0  0  0
 20 21  2  0  0  0
 21 22  1  0  0  0
 22 23  1  0  0  0
 22 24  2  0  0  0
 24 25  1  0  0  0
 25 27  1  0  0  0
 27 28  1  0  0  0
 25 26  2  0  0  0
  8  2  1  0  0  0
 19 12  1  0  0  0
 26 20  1  0  0  0
 11  4  1  0  0  0
M  END
> <minimizedAffinity>
27.98856

> <CNNscore>
0.4815737605

> <CNNaffinity>
6.4940667152

> <CNN_VS>
3.1273720264

> <CNNaffinity_variance>
0.5454238653

$$$$
[H]c1c([H])c(-c2nc(-c3c([H])c(C([H])([H])[H])nc(C([H])([H])F)c3[H])c3n2C([H])([H])[C@@]([H])(C([H])([H])[H])OC([H])([H])C3([H])[H])c([H])c(C([H])([H])[H])c1F


 28 31  0  0  0  0  0  0  0  0999 V2000
   21.8980   11.5272   55.9926 C   0  0  0  0  0  0  0  0  0  0  0  0
   21.5309   10.1343   55.4994 C   0  0  0  0  0  0  0  0  0  0  0  0
   22.6752    9.6493   54.6413 C   0  0  0  0  0  0  0  0  0  0  0  0
   22.5318    8.2438   54.3006 N   0  0  0  0  0  0  0  0  0  0  0  0
   21.3747    7.5432   54.1025 C   0  0  0  0  0  0  0  0  0  0  0  0
   19.9740    7.9694   54.0725 C   0  0  0  0  0  0  0  0  0  0  0  0
   19.6751    8.9699   55.1359 C   0  0  0  0  0  0  0  0  0  0  0  0
   20.3573   10.1466   54.7778 O   0  0  0  0  0  0  0  0  0  0  0  0
   21.7932    6.2350   53.8783 C   0  0  0  0  0  0  0  0  0  0  0  0
   23.1151    6.1968   53.9437 N   0  0  0  0  0  0  0  0  0  0  0  0
   23.5976    7.4400   54.2028 C   0  0  0  0  0  0  0  0  0  0  0  0
   25.0114    7.6801   54.3362 C   0  0  0  0  0  0  0  0  0  0  0  0
   25.8488    7.3491   53.2490 C   0  0  0  0  0  0  0  0  0  0  0  0
   27.1978    7.6081   53.2538 C   0  0  0  0  0  0  0  0  0  0  0  0
   27.7967    8.2087   54.3327 C   0  0  0  0  0  0  0  0  0  0  0  0
   29.1290    8.4429   54.2922 F   0  0  0  0  0  0  0  0  0  0  0  0
   27.0286    8.5531   55.4182 C   0  0  0  0  0  0  0  0  0  0  0  0
   27.6465    9.2114   56.6166 C   0  0  0  0  0  0  0  0  0  0  0  0
   25.6688    8.2777   55.3792 C   0  0  0  0  0  0  0  0  0  0  0  0
   20.9588    5.0797   53.6181 C   0  0  0  0  0  0  0  0  0  0  0  0
   21.4938    3.8710   53.2339 C   0  0  0  0  0  0  0  0  0  0  0  0
   20.6654    2.7969   52.9955 C   0  0  0  0  0  0  0  0  0  0  0  0
   21.3239    1.5248   52.5834 C   0  0  0  0  0  0  0  0  0  0  0  0
   19.3324    2.8899   53.1271 N   0  0  0  0  0  0  0  0  0  0  0  0
   18.7797    4.0538   53.5002 C   0  0  0  0  0  0  0  0  0  0  0  0
   19.5780    5.1454   53.7459 C   0  0  0  0  0  0  0  0  0  0  0  0
   17.2985    4.2002   53.6586 C   0  0  0  0  0  0  0  0  0  0  0  0
   16.9486    3.8400   54.9463 F   0  0  0  0  0  0  0  0  0  0  0  0
  1  2  1  0  0  0
  2  3  1  0  0  0
  3  4  1  0  0  0
  4  5  1  0  0  0
  5  6  1  0  0  0
  6  7  1  0  0  0
  7  8  1  0  0  0
  5  9  2  0  0  0
  9 10  1  0  0  0
 10 11  2  0  0  0
 11 12  1  0  0  0
 12 13  2  0  0  0
 13 14  1  0  0  0
 14 15  2  0  0  0
 15 16  1  0  0  0
 15 17  1  0  0  0
 17 18  1  0  0  0
 17 19  2  0  0  0
  9 20  1  0  0  0
 20 21  2  0  0  0
 21 22  1  0  0  0
 22 23  1  0  0  0
 22 24  2  0  0  0
 24 25  1  0  0  0
 25 27  1  0  0  0
 27 28  1  0  0  0
 25 26  2  0  0  0
  8  2  1  0  0  0
 19 12  1  0  0  0
 26 20  1  0  0  0
 11  4  1  0  0  0
M  END
> <minimizedAffinity>
36.39471

> <CNNscore>
0.4714032114

> <CNNaffinity>
6.2986440659

> <CNN_VS>
2.9692010880

> <CNNaffinity_variance>
0.8581774831

$$$$
[H]c1c([H])c(-c2nc(-c3c([H])c(C([H])([H])[H])nc(C([H])([H])F)c3[H])c3n2C([H])([H])[C@@]([H])(C([H])([H])[H])OC([H])([H])C3([H])[H])c([H])c(C([H])([H])[H])c1F


 28 31  0  0  0  0  0  0  0  0999 V2000
   26.2065    8.2323   54.1417 C   0  0  0  0  0  0  0  0  0  0  0  0
   24.9184    7.4265   54.0424 C   0  0  0  0  0  0  0  0  0  0  0  0
   23.7719    8.4004   54.1773 C   0  0  0  0  0  0  0  0  0  0  0  0
   22.4967    7.7726   53.8741 N   0  0  0  0  0  0  0  0  0  0  0  0
   22.1293    6.4738   54.0907 C   0  0  0  0  0  0  0  0  0  0  0  0
   22.8218    5.3656   54.7519 C   0  0  0  0  0  0  0  0  0  0  0  0
   24.2720    5.3339   54.4098 C   0  0  0  0  0  0  0  0  0  0  0  0
   24.8497    6.4605   55.0224 O   0  0  0  0  0  0  0  0  0  0  0  0
   20.8479    6.3800   53.5560 C   0  0  0  0  0  0  0  0  0  0  0  0
   20.5071    7.5616   53.0650 N   0  0  0  0  0  0  0  0  0  0  0  0
   21.5196    8.4468   53.2558 C   0  0  0  0  0  0  0  0  0  0  0  0
   21.4151    9.8104   52.8042 C   0  0  0  0  0  0  0  0  0  0  0  0
   21.6449   10.8417   53.7406 C   0  0  0  0  0  0  0  0  0  0  0  0
   21.6397   12.1695   53.3889 C   0  0  0  0  0  0  0  0  0  0  0  0
   21.4071   12.5547   52.0924 C   0  0  0  0  0  0  0  0  0  0  0  0
   21.4106   13.8746   51.7936 F   0  0  0  0  0  0  0  0  0  0  0  0
   21.1782   11.5921   51.1394 C   0  0  0  0  0  0  0  0  0  0  0  0
   20.9202   11.9733   49.7114 C   0  0  0  0  0  0  0  0  0  0  0  0
   21.1916   10.2602   51.5295 C   0  0  0  0  0  0  0  0  0  0  0  0
   19.9973    5.2080   53.5174 C   0  0  0  0  0  0  0  0  0  0  0  0
   20.4558    3.9946   53.0569 C   0  0  0  0  0  0  0  0  0  0  0  0
   19.6145    2.9043   53.0361 C   0  0  0  0  0  0  0  0  0  0  0  0
   20.1884    1.6281   52.5228 C   0  0  0  0  0  0  0  0  0  0  0  0
   18.3418    2.9860   53.4564 N   0  0  0  0  0  0  0  0  0  0  0  0
   17.8644    4.1542   53.9111 C   0  0  0  0  0  0  0  0  0  0  0  0
   18.6777    5.2617   53.9452 C   0  0  0  0  0  0  0  0  0  0  0  0
   16.4522    4.2883   54.3889 C   0  0  0  0  0  0  0  0  0  0  0  0
   15.6175    3.6257   53.5089 F   0  0  0  0  0  0  0  0  0  0  0  0
  1  2  1  0  0  0
  2  3  1  0  0  0
  3  4  1  0  0  0
  4  5  1  0  0  0
  5  6  1  0  0  0
  6  7  1  0  0  0
  7  8  1  0  0  0
  5  9  2  0  0  0
  9 10  1  0  0  0
 10 11  2  0  0  0
 11 12  1  0  0  0
 12 13  2  0  0  0
 13 14  1  0  0  0
 14 15  2  0  0  0
 15 16  1  0  0  0
 15 17  1  0  0  0
 17 18  1  0  0  0
 17 19  2  0  0  0
  9 20  1  0  0  0
 20 21  2  0  0  0
 21 22  1  0  0  0
 22 23  1  0  0  0
 22 24  2  0  0  0
 24 25  1  0  0  0
 25 27  1  0  0  0
 27 28  1  0  0  0
 25 26  2  0  0  0
  8  2  1  0  0  0
 19 12  1  0  0  0
 26 20  1  0  0  0
 11  4  1  0  0  0
M  END
> <minimizedAffinity>
25.68914

> <CNNscore>
0.4635876119

> <CNNaffinity>
6.4486413002

> <CNN_VS>
2.9895102978

> <CNNaffinity_variance>
0.5430801511

$$$$
[H]c1c([H])c(-c2nc(-c3c([H])c(C([H])([H])[H])nc(C([H])([H])F)c3[H])c3n2C([H])([H])[C@@]([H])(C([H])([H])[H])OC([H])([H])C3([H])[H])c([H])c(C([H])([H])[H])c1F


 28 31  0  0  0  0  0  0  0  0999 V2000
   19.9079    5.8798   53.3795 C   0  0  0  0  0  0  0  0  0  0  0  0
   21.3239    6.3134   53.7334 C   0  0  0  0  0  0  0  0  0  0  0  0
   21.5240    7.6952   53.1575 C   0  0  0  0  0  0  0  0  0  0  0  0
   22.7611    8.2972   53.6258 N   0  0  0  0  0  0  0  0  0  0  0  0
   23.9341    7.6679   53.9375 C   0  0  0  0  0  0  0  0  0  0  0  0
   24.3467    6.2678   53.8190 C   0  0  0  0  0  0  0  0  0  0  0  0
   23.2568    5.3322   54.2163 C   0  0  0  0  0  0  0  0  0  0  0  0
   22.2613    5.4390   53.2284 O   0  0  0  0  0  0  0  0  0  0  0  0
   24.7635    8.6853   54.3997 C   0  0  0  0  0  0  0  0  0  0  0  0
   24.0978    9.8288   54.3506 N   0  0  0  0  0  0  0  0  0  0  0  0
   22.8471    9.6109   53.8673 C   0  0  0  0  0  0  0  0  0  0  0  0
   21.9044   10.6897   53.7199 C   0  0  0  0  0  0  0  0  0  0  0  0
   21.0119   10.9445   54.7837 C   0  0  0  0  0  0  0  0  0  0  0  0
   20.1274   11.9953   54.7665 C   0  0  0  0  0  0  0  0  0  0  0  0
   20.0736   12.8544   53.6976 C   0  0  0  0  0  0  0  0  0  0  0  0
   19.1851   13.8747   53.7252 F   0  0  0  0  0  0  0  0  0  0  0  0
   20.9206   12.6537   52.6349 C   0  0  0  0  0  0  0  0  0  0  0  0
   20.8921   13.5712   51.4481 C   0  0  0  0  0  0  0  0  0  0  0  0
   21.8021   11.5828   52.6859 C   0  0  0  0  0  0  0  0  0  0  0  0
   26.1283    8.5592   54.8688 C   0  0  0  0  0  0  0  0  0  0  0  0
   26.5275    9.0700   56.0830 C   0  0  0  0  0  0  0  0  0  0  0  0
   27.8351    8.9294   56.4920 C   0  0  0  0  0  0  0  0  0  0  0  0
   28.1856    9.5108   57.8189 C   0  0  0  0  0  0  0  0  0  0  0  0
   28.7485    8.3008   55.7346 N   0  0  0  0  0  0  0  0  0  0  0  0
   28.3914    7.7915   54.5461 C   0  0  0  0  0  0  0  0  0  0  0  0
   27.0944    7.9147   54.1082 C   0  0  0  0  0  0  0  0  0  0  0  0
   29.3781    7.0835   53.6711 C   0  0  0  0  0  0  0  0  0  0  0  0
   28.8835    5.8305   53.3621 F   0  0  0  0  0  0  0  0  0  0  0  0
  1  2  1  0  0  0
  2  3  1  0  0  0
  3  4  1  0  0  0
  4  5  1  0  0  0
  5  6  1  0  0  0
  6  7  1  0  0  0
  7  8  1  0  0  0
  5  9  2  0  0  0
  9 10  1  0  0  0
 10 11  2  0  0  0
 11 12  1  0  0  0
 12 13  2  0  0  0
 13 14  1  0  0  0
 14 15  2  0  0  0
 15 16  1  0  0  0
 15 17  1  0  0  0
 17 18  1  0  0  0
 17 19  2  0  0  0
  9 20  1  0  0  0
 20 21  2  0  0  0
 21 22  1  0  0  0
 22 23  1  0  0  0
 22 24  2  0  0  0
 24 25  1  0  0  0
 25 27  1  0  0  0
 27 28  1  0  0  0
 25 26  2  0  0  0
  8  2  1  0  0  0
 19 12  1  0  0  0
 26 20  1  0  0  0
 11  4  1  0  0  0
M  END
> <minimizedAffinity>
32.21564

> <CNNscore>
0.4514479935

> <CNNaffinity>
5.8318262100

> <CNN_VS>
2.6327662468

> <CNNaffinity_variance>
0.3167077005

$$$$
[H]c1c([H])c(-c2nc(-c3c([H])c(C([H])([H])[H])nc(C([H])([H])F)c3[H])c3n2C([H])([H])[C@@]([H])(C([H])([H])[H])OC([H])([H])C3([H])[H])c([H])c(C([H])([H])[H])c1F


 28 31  0  0  0  0  0  0  0  0999 V2000
   21.9379   11.9944   53.6883 C   0  0  0  0  0  0  0  0  0  0  0  0
   21.5339   10.5283   53.6139 C   0  0  0  0  0  0  0  0  0  0  0  0
   22.7365    9.7590   53.1210 C   0  0  0  0  0  0  0  0  0  0  0  0
   22.5342    8.3235   53.2249 N   0  0  0  0  0  0  0  0  0  0  0  0
   21.3623    7.6309   53.0988 C   0  0  0  0  0  0  0  0  0  0  0  0
   20.0104    8.0658   52.7409 C   0  0  0  0  0  0  0  0  0  0  0  0
   19.6569    9.3642   53.3815 C   0  0  0  0  0  0  0  0  0  0  0  0
   20.4615   10.3418   52.7691 O   0  0  0  0  0  0  0  0  0  0  0  0
   21.7089    6.3086   53.3596 C   0  0  0  0  0  0  0  0  0  0  0  0
   23.0066    6.2546   53.6174 N   0  0  0  0  0  0  0  0  0  0  0  0
   23.5426    7.5000   53.5354 C   0  0  0  0  0  0  0  0  0  0  0  0
   24.9431    7.7286   53.7819 C   0  0  0  0  0  0  0  0  0  0  0  0
   25.5312    7.1098   54.9062 C   0  0  0  0  0  0  0  0  0  0  0  0
   26.8731    7.2087   55.1827 C   0  0  0  0  0  0  0  0  0  0  0  0
   27.7107    7.9247   54.3647 C   0  0  0  0  0  0  0  0  0  0  0  0
   29.0253    7.9949   54.6781 F   0  0  0  0  0  0  0  0  0  0  0  0
   27.1915    8.5470   53.2555 C   0  0  0  0  0  0  0  0  0  0  0  0
   28.0748    9.3388   52.3369 C   0  0  0  0  0  0  0  0  0  0  0  0
   25.8316    8.4253   53.0058 C   0  0  0  0  0  0  0  0  0  0  0  0
   20.8310    5.1563   53.3637 C   0  0  0  0  0  0  0  0  0  0  0  0
   19.5266    5.2404   53.7954 C   0  0  0  0  0  0  0  0  0  0  0  0
   18.7248    4.1207   53.7839 C   0  0  0  0  0  0  0  0  0  0  0  0
   17.3258    4.2966   54.2674 C   0  0  0  0  0  0  0  0  0  0  0  0
   19.1792    2.9307   53.3592 N   0  0  0  0  0  0  0  0  0  0  0  0
   20.4455    2.8154   52.9319 C   0  0  0  0  0  0  0  0  0  0  0  0
   21.2722    3.9134   52.9305 C   0  0  0  0  0  0  0  0  0  0  0  0
   20.9916    1.5076   52.4503 C   0  0  0  0  0  0  0  0  0  0  0  0
   22.3616    1.5005   52.6327 F   0  0  0  0  0  0  0  0  0  0  0  0
  1  2  1  0  0  0
  2  3  1  0  0  0
  3  4  1  0  0  0
  4  5  1  0  0  0
  5  6  1  0  0  0
  6  7  1  0  0  0
  7  8  1  0  0  0
  5  9  2  0  0  0
  9 10  1  0  0  0
 10 11  2  0  0  0
 11 12  1  0  0  0
 12 13  2  0  0  0
 13 14  1  0  0  0
 14 15  2  0  0  0
 15 16  1  0  0  0
 15 17  1  0  0  0
 17 18  1  0  0  0
 17 19  2  0  0  0
  9 20  1  0  0  0
 20 21  2  0  0  0
 21 22  1  0  0  0
 22 23  1  0  0  0
 22 24  2  0  0  0
 24 25  1  0  0  0
 25 27  1  0  0  0
 27 28  1  0  0  0
 25 26  2  0  0  0
  8  2  1  0  0  0
 19 12  1  0  0  0
 26 20  1  0  0  0
 11  4  1  0  0  0
M  END
> <minimizedAffinity>
42.67912

> <CNNscore>
0.4447897077

> <CNNaffinity>
6.2645664215

> <CNN_VS>
2.7864146233

> <CNNaffinity_variance>
0.8732745051

$$$$
[H]c1c([H])c(-c2nc(-c3c([H])c(C([H])([H])[H])nc(C([H])([H])F)c3[H])c3n2C([H])([H])[C@@]([H])(C([H])([H])[H])OC([H])([H])C3([H])[H])c([H])c(C([H])([H])[H])c1F


 28 31  0  0  0  0  0  0  0  0999 V2000
   26.1878    8.2156   54.1126 C   0  0  0  0  0  0  0  0  0  0  0  0
   24.8929    7.4207   54.0158 C   0  0  0  0  0  0  0  0  0  0  0  0
   23.7548    8.4059   54.1384 C   0  0  0  0  0  0  0  0  0  0  0  0
   22.4749    7.7871   53.8363 N   0  0  0  0  0  0  0  0  0  0  0  0
   22.0950    6.4936   54.0628 C   0  0  0  0  0  0  0  0  0  0  0  0
   22.7753    5.3849   54.7359 C   0  0  0  0  0  0  0  0  0  0  0  0
   24.2263    5.3372   54.3990 C   0  0  0  0  0  0  0  0  0  0  0  0
   24.8121    6.4637   55.0038 O   0  0  0  0  0  0  0  0  0  0  0  0
   20.8146    6.4067   53.5245 C   0  0  0  0  0  0  0  0  0  0  0  0
   20.4862    7.5871   53.0223 N   0  0  0  0  0  0  0  0  0  0  0  0
   21.5060    8.4647   53.2089 C   0  0  0  0  0  0  0  0  0  0  0  0
   21.4154    9.8253   52.7453 C   0  0  0  0  0  0  0  0  0  0  0  0
   21.7392   10.8601   53.6494 C   0  0  0  0  0  0  0  0  0  0  0  0
   21.7530   12.1828   53.2794 C   0  0  0  0  0  0  0  0  0  0  0  0
   21.4477   12.5593   51.9955 C   0  0  0  0  0  0  0  0  0  0  0  0
   21.4735   13.8745   51.6779 F   0  0  0  0  0  0  0  0  0  0  0  0
   21.1258   11.5929   51.0738 C   0  0  0  0  0  0  0  0  0  0  0  0
   20.7862   11.9645   49.6604 C   0  0  0  0  0  0  0  0  0  0  0  0
   21.1225   10.2662   51.4815 C   0  0  0  0  0  0  0  0  0  0  0  0
   19.9536    5.2422   53.4931 C   0  0  0  0  0  0  0  0  0  0  0  0
   18.6616    5.2832   53.9661 C   0  0  0  0  0  0  0  0  0  0  0  0
   17.8756    4.1532   53.9187 C   0  0  0  0  0  0  0  0  0  0  0  0
   16.4893    4.2816   54.4509 C   0  0  0  0  0  0  0  0  0  0  0  0
   18.3340    2.9943   53.4188 N   0  0  0  0  0  0  0  0  0  0  0  0
   19.5886    2.9213   52.9498 C   0  0  0  0  0  0  0  0  0  0  0  0
   20.3994    4.0307   52.9824 C   0  0  0  0  0  0  0  0  0  0  0  0
   20.1387    1.6492   52.3843 C   0  0  0  0  0  0  0  0  0  0  0  0
   21.4465    1.5011   52.8058 F   0  0  0  0  0  0  0  0  0  0  0  0
  1  2  1  0  0  0
  2  3  1  0  0  0
  3  4  1  0  0  0
  4  5  1  0  0  0
  5  6  1  0  0  0
  6  7  1  0  0  0
  7  8  1  0  0  0
  5  9  2  0  0  0
  9 10  1  0  0  0
 10 11  2  0  0  0
 11 12  1  0  0  0
 12 13  2  0  0  0
 13 14  1  0  0  0
 14 15  2  0  0  0
 15 16  1  0  0  0
 15 17  1  0  0  0
 17 18  1  0  0  0
 17 19  2  0  0  0
  9 20  1  0  0  0
 20 21  2  0  0  0
 21 22  1  0  0  0
 22 23  1  0  0  0
 22 24  2  0  0  0
 24 25  1  0  0  0
 25 27  1  0  0  0
 27 28  1  0  0  0
 25 26  2  0  0  0
  8  2  1  0  0  0
 19 12  1  0  0  0
 26 20  1  0  0  0
 11  4  1  0  0  0
M  END
> <minimizedAffinity>
27.87374

> <CNNscore>
0.4439136684

> <CNNaffinity>
6.3918762207

> <CNN_VS>
2.8374412060

> <CNNaffinity_variance>
0.4855890870

$$$$
[H]c1c([H])c(-c2nc(-c3c([H])c(C([H])([H])[H])nc(C([H])([H])F)c3[H])c3n2C([H])([H])[C@@]([H])(C([H])([H])[H])OC([H])([H])C3([H])[H])c([H])c(C([H])([H])[H])c1F


 28 31  0  0  0  0  0  0  0  0999 V2000
   19.1825    9.4443   50.5985 C   0  0  0  0  0  0  0  0  0  0  0  0
   20.4756    9.2781   51.3848 C   0  0  0  0  0  0  0  0  0  0  0  0
   20.2293    8.2142   52.4281 C   0  0  0  0  0  0  0  0  0  0  0  0
   21.4609    7.8159   53.0889 N   0  0  0  0  0  0  0  0  0  0  0  0
   22.5572    8.5882   53.3547 C   0  0  0  0  0  0  0  0  0  0  0  0
   22.8080   10.0181   53.1622 C   0  0  0  0  0  0  0  0  0  0  0  0
   22.2611   10.5081   51.8653 C   0  0  0  0  0  0  0  0  0  0  0  0
   20.8603   10.4593   51.9806 O   0  0  0  0  0  0  0  0  0  0  0  0
   23.4726    7.7094   53.9262 C   0  0  0  0  0  0  0  0  0  0  0  0
   22.9243    6.5055   53.9830 N   0  0  0  0  0  0  0  0  0  0  0  0
   21.6675    6.5493   53.4692 C   0  0  0  0  0  0  0  0  0  0  0  0
   20.8469    5.3677   53.3999 C   0  0  0  0  0  0  0  0  0  0  0  0
   21.4400    4.1706   52.9439 C   0  0  0  0  0  0  0  0  0  0  0  0
   20.7594    2.9779   52.9119 C   0  0  0  0  0  0  0  0  0  0  0  0
   19.4541    2.8994   53.3283 C   0  0  0  0  0  0  0  0  0  0  0  0
   18.8242    1.7027   53.2775 F   0  0  0  0  0  0  0  0  0  0  0  0
   18.8277    4.0343   53.7829 C   0  0  0  0  0  0  0  0  0  0  0  0
   17.4016    3.9891   54.2469 C   0  0  0  0  0  0  0  0  0  0  0  0
   19.5454    5.2221   53.8025 C   0  0  0  0  0  0  0  0  0  0  0  0
   24.8103    8.0158   54.3902 C   0  0  0  0  0  0  0  0  0  0  0  0
   25.9280    7.5214   53.7570 C   0  0  0  0  0  0  0  0  0  0  0  0
   27.1825    7.8360   54.2304 C   0  0  0  0  0  0  0  0  0  0  0  0
   28.3398    7.2603   53.4883 C   0  0  0  0  0  0  0  0  0  0  0  0
   27.3552    8.6213   55.3059 N   0  0  0  0  0  0  0  0  0  0  0  0
   26.2863    9.1192   55.9454 C   0  0  0  0  0  0  0  0  0  0  0  0
   25.0203    8.8245   55.4988 C   0  0  0  0  0  0  0  0  0  0  0  0
   26.4346    9.9983   57.1478 C   0  0  0  0  0  0  0  0  0  0  0  0
   27.7666   10.0327   57.5151 F   0  0  0  0  0  0  0  0  0  0  0  0
  1  2  1  0  0  0
  2  3  1  0  0  0
  3  4  1  0  0  0
  4  5  1  0  0  0
  5  6  1  0  0  0
  6  7  1  0  0  0
  7  8  1  0  0  0
  5  9  2  0  0  0
  9 10  1  0  0  0
 10 11  2  0  0  0
 11 12  1  0  0  0
 12 13  2  0  0  0
 13 14  1  0  0  0
 14 15  2  0  0  0
 15 16  1  0  0  0
 15 17  1  0  0  0
 17 18  1  0  0  0
 17 19  2  0  0  0
  9 20  1  0  0  0
 20 21  2  0  0  0
 21 22  1  0  0  0
 22 23  1  0  0  0
 22 24  2  0  0  0
 24 25  1  0  0  0
 25 27  1  0  0  0
 27 28  1  0  0  0
 25 26  2  0  0  0
  8  2  1  0  0  0
 19 12  1  0  0  0
 26 20  1  0  0  0
 11  4  1  0  0  0
M  END
> <minimizedAffinity>
37.33176

> <CNNscore>
0.4413462877

> <CNNaffinity>
6.1882233620

> <CNN_VS>
2.7311494350

> <CNNaffinity_variance>
0.8184460402

$$$$
