[H]c1c([H])c([H])c(N2C([H])([H])C([H])([H])N(C(=O)C([H])([H])Sc3nnc([H])n3-c3c([H])c([H])c([H])c([H])c3C([H])([H])[H])C([H])([H])C2([H])[H])c([H])c1[H]


 28 31  0  0  0  0  0  0  0  0999 V2000
   24.9578    8.0739   53.4121 C   0  0  0  0  0  0  0  0  0  0  0  0
   26.3837    8.4518   53.4631 C   0  0  0  0  0  0  0  0  0  0  0  0
   27.0233    8.5763   52.3953 O   0  0  0  0  0  0  0  0  0  0  0  0
   27.0393    8.6761   54.6944 N   0  0  0  0  0  0  0  0  0  0  0  0
   26.3139    8.5158   55.9178 C   0  0  0  0  0  0  0  0  0  0  0  0
   27.1505    8.8189   57.1460 C   0  0  0  0  0  0  0  0  0  0  0  0
   27.9957    9.9706   56.9393 N   0  0  0  0  0  0  0  0  0  0  0  0
   28.4720   10.3425   55.6082 C   0  0  0  0  0  0  0  0  0  0  0  0
   28.4313    9.0693   54.7512 C   0  0  0  0  0  0  0  0  0  0  0  0
   28.3829   10.7570   58.0398 C   0  0  0  0  0  0  0  0  0  0  0  0
   29.0944   10.2086   59.0768 C   0  0  0  0  0  0  0  0  0  0  0  0
   29.4514   11.0126   60.1509 C   0  0  0  0  0  0  0  0  0  0  0  0
   29.1114   12.3485   60.2052 C   0  0  0  0  0  0  0  0  0  0  0  0
   28.3925   12.9058   59.1580 C   0  0  0  0  0  0  0  0  0  0  0  0
   28.0382   12.1102   58.0938 C   0  0  0  0  0  0  0  0  0  0  0  0
   23.9053    9.4786   52.9402 S   0  0  0  0  0  0  0  0  0  0  0  0
   21.6096    7.8429   52.8374 N   0  0  0  0  0  0  0  0  0  0  0  0
   20.4915    7.7136   52.1173 C   0  0  0  0  0  0  0  0  0  0  0  0
   20.5124    8.6712   51.1801 N   0  0  0  0  0  0  0  0  0  0  0  0
   21.6065    9.3637   51.3209 N   0  0  0  0  0  0  0  0  0  0  0  0
   22.3089    8.8684   52.3470 C   0  0  0  0  0  0  0  0  0  0  0  0
   20.7535    8.6633   55.3756 C   0  0  0  0  0  0  0  0  0  0  0  0
   21.5649    7.4249   55.1900 C   0  0  0  0  0  0  0  0  0  0  0  0
   21.9198    6.6448   56.2691 C   0  0  0  0  0  0  0  0  0  0  0  0
   22.6760    5.4953   56.0667 C   0  0  0  0  0  0  0  0  0  0  0  0
   23.0926    5.0948   54.8170 C   0  0  0  0  0  0  0  0  0  0  0  0
   22.7406    5.8714   53.7351 C   0  0  0  0  0  0  0  0  0  0  0  0
   21.9819    7.0245   53.9398 C   0  0  0  0  0  0  0  0  0  0  0  0
 22 23  1  0  0  0
 23 24  2  0  0  0
 24 25  1  0  0  0
 25 26  2  0  0  0
 26 27  1  0  0  0
 27 28  2  0  0  0
 28 17  1  0  0  0
 17 18  1  0  0  0
 18 19  2  0  0  0
 19 20  1  0  0  0
 20 21  2  0  0  0
 21 16  1  0  0  0
 16  1  1  0  0  0
  1  2  1  0  0  0
  2  3  2  0  0  0
  2  4  1  0  0  0
  4  5  1  0  0  0
  5  6  1  0  0  0
  6  7  1  0  0  0
  7 10  1  0  0  0
 10 11  2  0  0  0
 11 12  1  0  0  0
 12 13  2  0  0  0
 13 14  1  0  0  0
 14 15  2  0  0  0
  7  8  1  0  0  0
  8  9  1  0  0  0
 28 23  1  0  0  0
 21 17  1  0  0  0
  9  4  1  0  0  0
 15 10  1  0  0  0
M  END
> <minimizedAffinity>
14.29031

> <CNNscore>
0.6173114181

> <CNNaffinity>
5.8434386253

> <CNN_VS>
3.6072213650

> <CNNaffinity_variance>
0.3607346416

$$$$
[H]c1c([H])c([H])c(N2C([H])([H])C([H])([H])N(C(=O)C([H])([H])Sc3nnc([H])n3-c3c([H])c([H])c([H])c([H])c3C([H])([H])[H])C([H])([H])C2([H])[H])c([H])c1[H]


 28 31  0  0  0  0  0  0  0  0999 V2000
   24.6752    8.6620   53.0958 C   0  0  0  0  0  0  0  0  0  0  0  0
   26.1098    8.4407   53.3635 C   0  0  0  0  0  0  0  0  0  0  0  0
   26.8738    8.1577   52.4143 O   0  0  0  0  0  0  0  0  0  0  0  0
   26.6362    8.5431   54.6707 N   0  0  0  0  0  0  0  0  0  0  0  0
   25.7601    8.8485   55.7606 C   0  0  0  0  0  0  0  0  0  0  0  0
   26.4826    8.9496   57.0902 C   0  0  0  0  0  0  0  0  0  0  0  0
   27.7489    9.6287   56.9539 N   0  0  0  0  0  0  0  0  0  0  0  0
   28.5024    9.6009   55.7016 C   0  0  0  0  0  0  0  0  0  0  0  0
   28.0459    8.3501   54.9373 C   0  0  0  0  0  0  0  0  0  0  0  0
   28.2840   10.3313   58.0492 C   0  0  0  0  0  0  0  0  0  0  0  0
   28.9603    9.6698   59.0428 C   0  0  0  0  0  0  0  0  0  0  0  0
   29.4667   10.3942   60.1134 C   0  0  0  0  0  0  0  0  0  0  0  0
   29.3098   11.7617   60.2065 C   0  0  0  0  0  0  0  0  0  0  0  0
   28.6270   12.4333   59.2031 C   0  0  0  0  0  0  0  0  0  0  0  0
   28.1248   11.7165   58.1424 C   0  0  0  0  0  0  0  0  0  0  0  0
   23.8479    7.1365   52.5553 S   0  0  0  0  0  0  0  0  0  0  0  0
   21.2883    8.3213   52.5944 N   0  0  0  0  0  0  0  0  0  0  0  0
   20.1691    8.3349   51.8646 C   0  0  0  0  0  0  0  0  0  0  0  0
   20.3759    7.5352   50.8094 N   0  0  0  0  0  0  0  0  0  0  0  0
   21.5810    7.0476   50.8900 N   0  0  0  0  0  0  0  0  0  0  0  0
   22.1719    7.5216   51.9935 C   0  0  0  0  0  0  0  0  0  0  0  0
   21.7051    6.8131   54.9182 C   0  0  0  0  0  0  0  0  0  0  0  0
   21.6991    8.3049   54.9486 C   0  0  0  0  0  0  0  0  0  0  0  0
   21.8985    8.9880   56.1287 C   0  0  0  0  0  0  0  0  0  0  0  0
   21.8886   10.3787   56.1276 C   0  0  0  0  0  0  0  0  0  0  0  0
   21.6855   11.1158   54.9825 C   0  0  0  0  0  0  0  0  0  0  0  0
   21.4855   10.4376   53.8004 C   0  0  0  0  0  0  0  0  0  0  0  0
   21.4957    9.0422   53.8031 C   0  0  0  0  0  0  0  0  0  0  0  0
 22 23  1  0  0  0
 23 24  2  0  0  0
 24 25  1  0  0  0
 25 26  2  0  0  0
 26 27  1  0  0  0
 27 28  2  0  0  0
 28 17  1  0  0  0
 17 18  1  0  0  0
 18 19  2  0  0  0
 19 20  1  0  0  0
 20 21  2  0  0  0
 21 16  1  0  0  0
 16  1  1  0  0  0
  1  2  1  0  0  0
  2  3  2  0  0  0
  2  4  1  0  0  0
  4  5  1  0  0  0
  5  6  1  0  0  0
  6  7  1  0  0  0
  7 10  1  0  0  0
 10 11  2  0  0  0
 11 12  1  0  0  0
 12 13  2  0  0  0
 13 14  1  0  0  0
 14 15  2  0  0  0
  7  8  1  0  0  0
  8  9  1  0  0  0
 28 23  1  0  0  0
 21 17  1  0  0  0
  9  4  1  0  0  0
 15 10  1  0  0  0
M  END
> <minimizedAffinity>
12.47793

> <CNNscore>
0.5486969948

> <CNNaffinity>
6.0283474922

> <CNN_VS>
3.3077361584

> <CNNaffinity_variance>
0.5137230158

$$$$
[H]c1c([H])c([H])c(N2C([H])([H])C([H])([H])N(C(=O)C([H])([H])Sc3nnc([H])n3-c3c([H])c([H])c([H])c([H])c3C([H])([H])[H])C([H])([H])C2([H])[H])c([H])c1[H]


 28 31  0  0  0  0  0  0  0  0999 V2000
   22.7426    5.3492   55.5515 C   0  0  0  0  0  0  0  0  0  0  0  0
   21.9208    6.5048   55.9617 C   0  0  0  0  0  0  0  0  0  0  0  0
   21.6533    6.6674   57.1727 O   0  0  0  0  0  0  0  0  0  0  0  0
   21.4317    7.4305   55.0129 N   0  0  0  0  0  0  0  0  0  0  0  0
   21.7213    7.2355   53.6248 C   0  0  0  0  0  0  0  0  0  0  0  0
   21.1493    8.3278   52.7418 C   0  0  0  0  0  0  0  0  0  0  0  0
   21.2986    9.6297   53.3470 N   0  0  0  0  0  0  0  0  0  0  0  0
   21.3463    9.7992   54.7981 C   0  0  0  0  0  0  0  0  0  0  0  0
   20.6446    8.5786   55.4103 C   0  0  0  0  0  0  0  0  0  0  0  0
   21.3937   10.7710   52.5297 C   0  0  0  0  0  0  0  0  0  0  0  0
   21.7302   11.9890   53.0641 C   0  0  0  0  0  0  0  0  0  0  0  0
   21.8055   13.0957   52.2290 C   0  0  0  0  0  0  0  0  0  0  0  0
   21.5520   13.0054   50.8759 C   0  0  0  0  0  0  0  0  0  0  0  0
   21.2121   11.7752   50.3328 C   0  0  0  0  0  0  0  0  0  0  0  0
   21.1371   10.6786   51.1592 C   0  0  0  0  0  0  0  0  0  0  0  0
   24.4942    5.7993   55.3697 S   0  0  0  0  0  0  0  0  0  0  0  0
   25.4433    8.0521   53.9624 N   0  0  0  0  0  0  0  0  0  0  0  0
   25.3016    8.6308   52.7664 C   0  0  0  0  0  0  0  0  0  0  0  0
   24.4472    7.8765   52.0614 N   0  0  0  0  0  0  0  0  0  0  0  0
   24.0775    6.8699   52.8006 N   0  0  0  0  0  0  0  0  0  0  0  0
   24.6838    6.9550   53.9909 C   0  0  0  0  0  0  0  0  0  0  0  0
   28.2035    7.6507   53.6999 C   0  0  0  0  0  0  0  0  0  0  0  0
   27.6258    8.3321   54.8949 C   0  0  0  0  0  0  0  0  0  0  0  0
   28.4388    8.7855   55.9111 C   0  0  0  0  0  0  0  0  0  0  0  0
   27.8732    9.4178   57.0132 C   0  0  0  0  0  0  0  0  0  0  0  0
   26.5162    9.6149   57.1368 C   0  0  0  0  0  0  0  0  0  0  0  0
   25.6992    9.1634   56.1237 C   0  0  0  0  0  0  0  0  0  0  0  0
   26.2682    8.5290   55.0187 C   0  0  0  0  0  0  0  0  0  0  0  0
 22 23  1  0  0  0
 23 24  2  0  0  0
 24 25  1  0  0  0
 25 26  2  0  0  0
 26 27  1  0  0  0
 27 28  2  0  0  0
 28 17  1  0  0  0
 17 18  1  0  0  0
 18 19  2  0  0  0
 19 20  1  0  0  0
 20 21  2  0  0  0
 21 16  1  0  0  0
 16  1  1  0  0  0
  1  2  1  0  0  0
  2  3  2  0  0  0
  2  4  1  0  0  0
  4  5  1  0  0  0
  5  6  1  0  0  0
  6  7  1  0  0  0
  7 10  1  0  0  0
 10 11  2  0  0  0
 11 12  1  0  0  0
 12 13  2  0  0  0
 13 14  1  0  0  0
 14 15  2  0  0  0
  7  8  1  0  0  0
  8  9  1  0  0  0
 28 23  1  0  0  0
 21 17  1  0  0  0
  9  4  1  0  0  0
 15 10  1  0  0  0
M  END
> <minimizedAffinity>
21.41764

> <CNNscore>
0.5297001600

> <CNNaffinity>
6.0773611069

> <CNN_VS>
3.2191791534

> <CNNaffinity_variance>
0.2186416686

$$$$
[H]c1c([H])c([H])c(N2C([H])([H])C([H])([H])N(C(=O)C([H])([H])Sc3nnc([H])n3-c3c([H])c([H])c([H])c([H])c3C([H])([H])[H])C([H])([H])C2([H])[H])c([H])c1[H]


 28 31  0  0  0  0  0  0  0  0999 V2000
   22.5222    5.3723   55.6399 C   0  0  0  0  0  0  0  0  0  0  0  0
   21.8670    6.6155   56.0916 C   0  0  0  0  0  0  0  0  0  0  0  0
   21.7648    6.8439   57.3172 O   0  0  0  0  0  0  0  0  0  0  0  0
   21.3542    7.5521   55.1663 N   0  0  0  0  0  0  0  0  0  0  0  0
   21.4537    7.2834   53.7640 C   0  0  0  0  0  0  0  0  0  0  0  0
   20.8824    8.3961   52.9063 C   0  0  0  0  0  0  0  0  0  0  0  0
   21.2241    9.6968   53.4305 N   0  0  0  0  0  0  0  0  0  0  0  0
   21.4633    9.9094   54.8568 C   0  0  0  0  0  0  0  0  0  0  0  0
   20.7311    8.7841   55.6016 C   0  0  0  0  0  0  0  0  0  0  0  0
   21.3246   10.7953   52.5572 C   0  0  0  0  0  0  0  0  0  0  0  0
   21.1775   10.6296   51.2033 C   0  0  0  0  0  0  0  0  0  0  0  0
   21.2924   11.7347   50.3708 C   0  0  0  0  0  0  0  0  0  0  0  0
   21.5499   12.9962   50.8666 C   0  0  0  0  0  0  0  0  0  0  0  0
   21.6986   13.1669   52.2351 C   0  0  0  0  0  0  0  0  0  0  0  0
   21.5852   12.0727   53.0604 C   0  0  0  0  0  0  0  0  0  0  0  0
   24.2226    5.6747   55.0735 S   0  0  0  0  0  0  0  0  0  0  0  0
   25.0268    7.9395   53.5968 N   0  0  0  0  0  0  0  0  0  0  0  0
   24.6846    8.5945   52.4836 C   0  0  0  0  0  0  0  0  0  0  0  0
   23.6486    7.9391   51.9423 N   0  0  0  0  0  0  0  0  0  0  0  0
   23.3652    6.9171   52.6985 N   0  0  0  0  0  0  0  0  0  0  0  0
   24.2092    6.8938   53.7371 C   0  0  0  0  0  0  0  0  0  0  0  0
   24.3379    9.4046   55.8832 C   0  0  0  0  0  0  0  0  0  0  0  0
   25.7521    9.0222   55.6001 C   0  0  0  0  0  0  0  0  0  0  0  0
   26.7668    9.3822   56.4602 C   0  0  0  0  0  0  0  0  0  0  0  0
   28.0759    9.0116   56.1717 C   0  0  0  0  0  0  0  0  0  0  0  0
   28.4094    8.2896   55.0478 C   0  0  0  0  0  0  0  0  0  0  0  0
   27.3987    7.9274   54.1848 C   0  0  0  0  0  0  0  0  0  0  0  0
   26.0858    8.3001   54.4756 C   0  0  0  0  0  0  0  0  0  0  0  0
 22 23  1  0  0  0
 23 24  2  0  0  0
 24 25  1  0  0  0
 25 26  2  0  0  0
 26 27  1  0  0  0
 27 28  2  0  0  0
 28 17  1  0  0  0
 17 18  1  0  0  0
 18 19  2  0  0  0
 19 20  1  0  0  0
 20 21  2  0  0  0
 21 16  1  0  0  0
 16  1  1  0  0  0
  1  2  1  0  0  0
  2  3  2  0  0  0
  2  4  1  0  0  0
  4  5  1  0  0  0
  5  6  1  0  0  0
  6  7  1  0  0  0
  7 10  1  0  0  0
 10 11  2  0  0  0
 11 12  1  0  0  0
 12 13  2  0  0  0
 13 14  1  0  0  0
 14 15  2  0  0  0
  7  8  1  0  0  0
  8  9  1  0  0  0
 28 23  1  0  0  0
 21 17  1  0  0  0
  9  4  1  0  0  0
 15 10  1  0  0  0
M  END
> <minimizedAffinity>
19.27303

> <CNNscore>
0.5208338499

> <CNNaffinity>
6.3141465187

> <CNN_VS>
3.2886211872

> <CNNaffinity_variance>
0.2676931918

$$$$
[H]c1c([H])c([H])c(N2C([H])([H])C([H])([H])N(C(=O)C([H])([H])Sc3nnc([H])n3-c3c([H])c([H])c([H])c([H])c3C([H])([H])[H])C([H])([H])C2([H])[H])c([H])c1[H]


 28 31  0  0  0  0  0  0  0  0999 V2000
   21.7220    7.0588   51.1712 C   0  0  0  0  0  0  0  0  0  0  0  0
   22.0963    6.5526   52.5063 C   0  0  0  0  0  0  0  0  0  0  0  0
   21.5614    5.5074   52.9375 O   0  0  0  0  0  0  0  0  0  0  0  0
   23.0474    7.2257   53.3056 N   0  0  0  0  0  0  0  0  0  0  0  0
   23.6467    8.4320   52.8214 C   0  0  0  0  0  0  0  0  0  0  0  0
   24.6637    9.0151   53.7835 C   0  0  0  0  0  0  0  0  0  0  0  0
   25.4739    7.9836   54.3861 N   0  0  0  0  0  0  0  0  0  0  0  0
   24.9683    6.6252   54.5761 C   0  0  0  0  0  0  0  0  0  0  0  0
   23.4364    6.7226   54.6060 C   0  0  0  0  0  0  0  0  0  0  0  0
   26.7808    8.2840   54.8117 C   0  0  0  0  0  0  0  0  0  0  0  0
   27.8669    7.8797   54.0773 C   0  0  0  0  0  0  0  0  0  0  0  0
   29.1423    8.1858   54.5326 C   0  0  0  0  0  0  0  0  0  0  0  0
   29.3490    8.8860   55.7032 C   0  0  0  0  0  0  0  0  0  0  0  0
   28.2529    9.2964   56.4476 C   0  0  0  0  0  0  0  0  0  0  0  0
   26.9892    8.9935   55.9974 C   0  0  0  0  0  0  0  0  0  0  0  0
   20.3119    8.2026   51.2557 S   0  0  0  0  0  0  0  0  0  0  0  0
   21.2862   10.4267   52.6913 N   0  0  0  0  0  0  0  0  0  0  0  0
   21.6582   11.6904   52.4678 C   0  0  0  0  0  0  0  0  0  0  0  0
   21.5091   11.9200   51.1560 N   0  0  0  0  0  0  0  0  0  0  0  0
   21.0604   10.8337   50.5946 N   0  0  0  0  0  0  0  0  0  0  0  0
   20.9125    9.8870   51.5292 C   0  0  0  0  0  0  0  0  0  0  0  0
   22.9143   11.5345   54.6840 C   0  0  0  0  0  0  0  0  0  0  0  0
   22.0940   10.3142   54.9376 C   0  0  0  0  0  0  0  0  0  0  0  0
   22.1149    9.6922   56.1672 C   0  0  0  0  0  0  0  0  0  0  0  0
   21.3397    8.5566   56.3759 C   0  0  0  0  0  0  0  0  0  0  0  0
   20.5393    8.0170   55.3941 C   0  0  0  0  0  0  0  0  0  0  0  0
   20.5151    8.6349   54.1632 C   0  0  0  0  0  0  0  0  0  0  0  0
   21.2935    9.7742   53.9554 C   0  0  0  0  0  0  0  0  0  0  0  0
 22 23  1  0  0  0
 23 24  2  0  0  0
 24 25  1  0  0  0
 25 26  2  0  0  0
 26 27  1  0  0  0
 27 28  2  0  0  0
 28 17  1  0  0  0
 17 18  1  0  0  0
 18 19  2  0  0  0
 19 20  1  0  0  0
 20 21  2  0  0  0
 21 16  1  0  0  0
 16  1  1  0  0  0
  1  2  1  0  0  0
  2  3  2  0  0  0
  2  4  1  0  0  0
  4  5  1  0  0  0
  5  6  1  0  0  0
  6  7  1  0  0  0
  7 10  1  0  0  0
 10 11  2  0  0  0
 11 12  1  0  0  0
 12 13  2  0  0  0
 13 14  1  0  0  0
 14 15  2  0  0  0
  7  8  1  0  0  0
  8  9  1  0  0  0
 28 23  1  0  0  0
 21 17  1  0  0  0
  9  4  1  0  0  0
 15 10  1  0  0  0
M  END
> <minimizedAffinity>
19.71990

> <CNNscore>
0.5197672248

> <CNNaffinity>
6.0655517578

> <CNN_VS>
3.1526749134

> <CNNaffinity_variance>
0.3824929893

$$$$
[H]c1c([H])c([H])c(N2C([H])([H])C([H])([H])N(C(=O)C([H])([H])Sc3nnc([H])n3-c3c([H])c([H])c([H])c([H])c3C([H])([H])[H])C([H])([H])C2([H])[H])c([H])c1[H]


 28 31  0  0  0  0  0  0  0  0999 V2000
   23.0809    7.3798   51.7569 C   0  0  0  0  0  0  0  0  0  0  0  0
   21.7885    7.8841   52.2613 C   0  0  0  0  0  0  0  0  0  0  0  0
   21.4825    9.0822   52.0729 O   0  0  0  0  0  0  0  0  0  0  0  0
   20.8909    7.0393   52.9519 N   0  0  0  0  0  0  0  0  0  0  0  0
   21.2476    5.6728   53.1847 C   0  0  0  0  0  0  0  0  0  0  0  0
   20.1681    4.8950   53.9124 C   0  0  0  0  0  0  0  0  0  0  0  0
   18.8519    5.2379   53.4291 N   0  0  0  0  0  0  0  0  0  0  0  0
   18.5626    6.5541   52.8626 C   0  0  0  0  0  0  0  0  0  0  0  0
   19.6119    7.5209   53.4292 C   0  0  0  0  0  0  0  0  0  0  0  0
   17.8130    4.2924   53.5072 C   0  0  0  0  0  0  0  0  0  0  0  0
   16.6753    4.5598   54.2258 C   0  0  0  0  0  0  0  0  0  0  0  0
   15.6745    3.5996   54.2887 C   0  0  0  0  0  0  0  0  0  0  0  0
   15.7911    2.3833   53.6482 C   0  0  0  0  0  0  0  0  0  0  0  0
   16.9401    2.1103   52.9205 C   0  0  0  0  0  0  0  0  0  0  0  0
   17.9319    3.0608   52.8578 C   0  0  0  0  0  0  0  0  0  0  0  0
   23.9672    6.4178   53.0188 S   0  0  0  0  0  0  0  0  0  0  0  0
   24.6995    8.5260   54.7439 N   0  0  0  0  0  0  0  0  0  0  0  0
   25.8047    9.0826   55.2479 C   0  0  0  0  0  0  0  0  0  0  0  0
   26.8489    8.3974   54.7621 N   0  0  0  0  0  0  0  0  0  0  0  0
   26.3987    7.4530   53.9862 N   0  0  0  0  0  0  0  0  0  0  0  0
   25.0618    7.5106   53.9571 C   0  0  0  0  0  0  0  0  0  0  0  0
   22.9366    6.6029   55.7649 C   0  0  0  0  0  0  0  0  0  0  0  0
   22.4961    8.0053   55.5090 C   0  0  0  0  0  0  0  0  0  0  0  0
   21.2006    8.3971   55.7681 C   0  0  0  0  0  0  0  0  0  0  0  0
   20.8176    9.7110   55.5208 C   0  0  0  0  0  0  0  0  0  0  0  0
   21.6882   10.6533   55.0210 C   0  0  0  0  0  0  0  0  0  0  0  0
   22.9843   10.2666   54.7601 C   0  0  0  0  0  0  0  0  0  0  0  0
   23.3670    8.9479   55.0087 C   0  0  0  0  0  0  0  0  0  0  0  0
 22 23  1  0  0  0
 23 24  2  0  0  0
 24 25  1  0  0  0
 25 26  2  0  0  0
 26 27  1  0  0  0
 27 28  2  0  0  0
 28 17  1  0  0  0
 17 18  1  0  0  0
 18 19  2  0  0  0
 19 20  1  0  0  0
 20 21  2  0  0  0
 21 16  1  0  0  0
 16  1  1  0  0  0
  1  2  1  0  0  0
  2  3  2  0  0  0
  2  4  1  0  0  0
  4  5  1  0  0  0
  5  6  1  0  0  0
  6  7  1  0  0  0
  7 10  1  0  0  0
 10 11  2  0  0  0
 11 12  1  0  0  0
 12 13  2  0  0  0
 13 14  1  0  0  0
 14 15  2  0  0  0
  7  8  1  0  0  0
  8  9  1  0  0  0
 28 23  1  0  0  0
 21 17  1  0  0  0
  9  4  1  0  0  0
 15 10  1  0  0  0
M  END
> <minimizedAffinity>
26.50823

> <CNNscore>
0.5123379827

> <CNNaffinity>
6.3766446114

> <CNN_VS>
3.2669973373

> <CNNaffinity_variance>
1.0016797781

$$$$
[H]c1c([H])c([H])c(N2C([H])([H])C([H])([H])N(C(=O)C([H])([H])Sc3nnc([H])n3-c3c([H])c([H])c([H])c([H])c3C([H])([H])[H])C([H])([H])C2([H])[H])c([H])c1[H]


 28 31  0  0  0  0  0  0  0  0999 V2000
   24.1019   10.6586   55.3212 C   0  0  0  0  0  0  0  0  0  0  0  0
   22.6717   10.5326   54.9785 C   0  0  0  0  0  0  0  0  0  0  0  0
   22.0388   11.5459   54.6078 O   0  0  0  0  0  0  0  0  0  0  0  0
   22.0046    9.2897   55.0605 N   0  0  0  0  0  0  0  0  0  0  0  0
   22.7226    8.1330   55.5023 C   0  0  0  0  0  0  0  0  0  0  0  0
   21.8739    6.8762   55.5085 C   0  0  0  0  0  0  0  0  0  0  0  0
   21.0182    6.8100   54.3480 N   0  0  0  0  0  0  0  0  0  0  0  0
   20.5478    8.0183   53.6729 C   0  0  0  0  0  0  0  0  0  0  0  0
   20.6082    9.1542   54.7040 C   0  0  0  0  0  0  0  0  0  0  0  0
   20.6146    5.5573   53.8507 C   0  0  0  0  0  0  0  0  0  0  0  0
   21.5293    4.6928   53.3046 C   0  0  0  0  0  0  0  0  0  0  0  0
   21.0937    3.4688   52.8151 C   0  0  0  0  0  0  0  0  0  0  0  0
   19.7662    3.0963   52.8627 C   0  0  0  0  0  0  0  0  0  0  0  0
   18.8392    3.9681   53.4147 C   0  0  0  0  0  0  0  0  0  0  0  0
   19.2697    5.1808   53.8996 C   0  0  0  0  0  0  0  0  0  0  0  0
   24.7295    9.1676   56.1501 S   0  0  0  0  0  0  0  0  0  0  0  0
   27.5375    9.1323   55.8842 N   0  0  0  0  0  0  0  0  0  0  0  0
   28.4725    8.5821   55.1041 C   0  0  0  0  0  0  0  0  0  0  0  0
   27.8364    7.8295   54.1959 N   0  0  0  0  0  0  0  0  0  0  0  0
   26.5548    7.9159   54.4119 N   0  0  0  0  0  0  0  0  0  0  0  0
   26.3408    8.7220   55.4588 C   0  0  0  0  0  0  0  0  0  0  0  0
   28.5499    7.9726   58.2249 C   0  0  0  0  0  0  0  0  0  0  0  0
   28.2803    9.4374   58.1350 C   0  0  0  0  0  0  0  0  0  0  0  0
   28.5221   10.2671   59.2085 C   0  0  0  0  0  0  0  0  0  0  0  0
   28.2623   11.6288   59.0965 C   0  0  0  0  0  0  0  0  0  0  0  0
   27.7668   12.1946   57.9432 C   0  0  0  0  0  0  0  0  0  0  0  0
   27.5233   11.3694   56.8675 C   0  0  0  0  0  0  0  0  0  0  0  0
   27.7844   10.0034   56.9814 C   0  0  0  0  0  0  0  0  0  0  0  0
 22 23  1  0  0  0
 23 24  2  0  0  0
 24 25  1  0  0  0
 25 26  2  0  0  0
 26 27  1  0  0  0
 27 28  2  0  0  0
 28 17  1  0  0  0
 17 18  1  0  0  0
 18 19  2  0  0  0
 19 20  1  0  0  0
 20 21  2  0  0  0
 21 16  1  0  0  0
 16  1  1  0  0  0
  1  2  1  0  0  0
  2  3  2  0  0  0
  2  4  1  0  0  0
  4  5  1  0  0  0
  5  6  1  0  0  0
  6  7  1  0  0  0
  7 10  1  0  0  0
 10 11  2  0  0  0
 11 12  1  0  0  0
 12 13  2  0  0  0
 13 14  1  0  0  0
 14 15  2  0  0  0
  7  8  1  0  0  0
  8  9  1  0  0  0
 28 23  1  0  0  0
 21 17  1  0  0  0
  9  4  1  0  0  0
 15 10  1  0  0  0
M  END
> <minimizedAffinity>
30.58880

> <CNNscore>
0.5114511847

> <CNNaffinity>
5.8434429169

> <CNN_VS>
2.9886357784

> <CNNaffinity_variance>
0.3078907728

$$$$
[H]c1c([H])c([H])c(N2C([H])([H])C([H])([H])N(C(=O)C([H])([H])Sc3nnc([H])n3-c3c([H])c([H])c([H])c([H])c3C([H])([H])[H])C([H])([H])C2([H])[H])c([H])c1[H]


 28 31  0  0  0  0  0  0  0  0999 V2000
   21.1208    5.6305   53.8779 C   0  0  0  0  0  0  0  0  0  0  0  0
   22.2549    5.9661   52.9948 C   0  0  0  0  0  0  0  0  0  0  0  0
   22.0756    6.0120   51.7576 O   0  0  0  0  0  0  0  0  0  0  0  0
   23.5382    6.2372   53.5202 N   0  0  0  0  0  0  0  0  0  0  0  0
   23.7495    6.1669   54.9341 C   0  0  0  0  0  0  0  0  0  0  0  0
   25.1702    6.5108   55.3380 C   0  0  0  0  0  0  0  0  0  0  0  0
   25.6832    7.6225   54.5735 N   0  0  0  0  0  0  0  0  0  0  0  0
   25.2086    7.9058   53.2203 C   0  0  0  0  0  0  0  0  0  0  0  0
   24.6495    6.5894   52.6620 C   0  0  0  0  0  0  0  0  0  0  0  0
   26.6698    8.4557   55.1320 C   0  0  0  0  0  0  0  0  0  0  0  0
   26.4616    9.0771   56.3373 C   0  0  0  0  0  0  0  0  0  0  0  0
   27.4537    9.8998   56.8536 C   0  0  0  0  0  0  0  0  0  0  0  0
   28.6443   10.1100   56.1891 C   0  0  0  0  0  0  0  0  0  0  0  0
   28.8578    9.4826   54.9705 C   0  0  0  0  0  0  0  0  0  0  0  0
   27.8756    8.6678   54.4583 C   0  0  0  0  0  0  0  0  0  0  0  0
   19.6363    6.5940   53.4632 S   0  0  0  0  0  0  0  0  0  0  0  0
   20.7843    8.9880   52.5106 N   0  0  0  0  0  0  0  0  0  0  0  0
   20.8688    9.6871   51.3751 C   0  0  0  0  0  0  0  0  0  0  0  0
   20.1945    9.0042   50.4397 N   0  0  0  0  0  0  0  0  0  0  0  0
   19.7127    7.9233   50.9839 N   0  0  0  0  0  0  0  0  0  0  0  0
   20.0656    7.8884   52.2745 C   0  0  0  0  0  0  0  0  0  0  0  0
   21.7439   11.6106   52.7341 C   0  0  0  0  0  0  0  0  0  0  0  0
   21.8421   10.6461   53.8683 C   0  0  0  0  0  0  0  0  0  0  0  0
   22.4125   11.0199   55.0658 C   0  0  0  0  0  0  0  0  0  0  0  0
   22.4902   10.1005   56.1064 C   0  0  0  0  0  0  0  0  0  0  0  0
   22.0151    8.8132   55.9927 C   0  0  0  0  0  0  0  0  0  0  0  0
   21.4442    8.4346   54.7976 C   0  0  0  0  0  0  0  0  0  0  0  0
   21.3671    9.3582   53.7544 C   0  0  0  0  0  0  0  0  0  0  0  0
 22 23  1  0  0  0
 23 24  2  0  0  0
 24 25  1  0  0  0
 25 26  2  0  0  0
 26 27  1  0  0  0
 27 28  2  0  0  0
 28 17  1  0  0  0
 17 18  1  0  0  0
 18 19  2  0  0  0
 19 20  1  0  0  0
 20 21  2  0  0  0
 21 16  1  0  0  0
 16  1  1  0  0  0
  1  2  1  0  0  0
  2  3  2  0  0  0
  2  4  1  0  0  0
  4  5  1  0  0  0
  5  6  1  0  0  0
  6  7  1  0  0  0
  7 10  1  0  0  0
 10 11  2  0  0  0
 11 12  1  0  0  0
 12 13  2  0  0  0
 13 14  1  0  0  0
 14 15  2  0  0  0
  7  8  1  0  0  0
  8  9  1  0  0  0
 28 23  1  0  0  0
 21 17  1  0  0  0
  9  4  1  0  0  0
 15 10  1  0  0  0
M  END
> <minimizedAffinity>
19.14505

> <CNNscore>
0.5020503402

> <CNNaffinity>
6.1897091866

> <CNN_VS>
3.1075456142

> <CNNaffinity_variance>
0.4529299140

$$$$
[H]c1c([H])c([H])c(N2C([H])([H])C([H])([H])N(C(=O)C([H])([H])Sc3nnc([H])n3-c3c([H])c([H])c([H])c([H])c3C([H])([H])[H])C([H])([H])C2([H])[H])c([H])c1[H]


 28 31  0  0  0  0  0  0  0  0999 V2000
   22.4582   11.1933   54.2108 C   0  0  0  0  0  0  0  0  0  0  0  0
   21.8364   10.5955   53.0130 C   0  0  0  0  0  0  0  0  0  0  0  0
   22.0948   11.0722   51.8857 O   0  0  0  0  0  0  0  0  0  0  0  0
   20.9559    9.4952   53.1155 N   0  0  0  0  0  0  0  0  0  0  0  0
   20.6446    8.9604   54.4062 C   0  0  0  0  0  0  0  0  0  0  0  0
   19.7096    7.7680   54.3429 C   0  0  0  0  0  0  0  0  0  0  0  0
   20.0439    6.8912   53.2462 N   0  0  0  0  0  0  0  0  0  0  0  0
   20.6886    7.3922   52.0337 C   0  0  0  0  0  0  0  0  0  0  0  0
   20.3604    8.8893   51.9434 C   0  0  0  0  0  0  0  0  0  0  0  0
   19.7394    5.5203   53.3326 C   0  0  0  0  0  0  0  0  0  0  0  0
   20.6209    4.5764   52.8698 C   0  0  0  0  0  0  0  0  0  0  0  0
   20.2831    3.2330   52.9628 C   0  0  0  0  0  0  0  0  0  0  0  0
   19.0852    2.8196   53.5084 C   0  0  0  0  0  0  0  0  0  0  0  0
   18.1922    3.7716   53.9776 C   0  0  0  0  0  0  0  0  0  0  0  0
   18.5260    5.1025   53.8857 C   0  0  0  0  0  0  0  0  0  0  0  0
   22.6178    9.9862   55.5602 S   0  0  0  0  0  0  0  0  0  0  0  0
   25.0272    8.5308   55.3777 N   0  0  0  0  0  0  0  0  0  0  0  0
   26.2940    8.6160   55.7939 C   0  0  0  0  0  0  0  0  0  0  0  0
   26.4020    9.7491   56.5012 N   0  0  0  0  0  0  0  0  0  0  0  0
   25.2404   10.3381   56.5182 N   0  0  0  0  0  0  0  0  0  0  0  0
   24.3651    9.5998   55.8252 C   0  0  0  0  0  0  0  0  0  0  0  0
   25.8224    8.4141   52.6939 C   0  0  0  0  0  0  0  0  0  0  0  0
   24.8719    7.4178   53.2685 C   0  0  0  0  0  0  0  0  0  0  0  0
   24.3536    6.4057   52.4901 C   0  0  0  0  0  0  0  0  0  0  0  0
   23.4702    5.4903   53.0521 C   0  0  0  0  0  0  0  0  0  0  0  0
   23.0839    5.5503   54.3723 C   0  0  0  0  0  0  0  0  0  0  0  0
   23.5991    6.5603   55.1546 C   0  0  0  0  0  0  0  0  0  0  0  0
   24.4853    7.4780   54.5892 C   0  0  0  0  0  0  0  0  0  0  0  0
 22 23  1  0  0  0
 23 24  2  0  0  0
 24 25  1  0  0  0
 25 26  2  0  0  0
 26 27  1  0  0  0
 27 28  2  0  0  0
 28 17  1  0  0  0
 17 18  1  0  0  0
 18 19  2  0  0  0
 19 20  1  0  0  0
 20 21  2  0  0  0
 21 16  1  0  0  0
 16  1  1  0  0  0
  1  2  1  0  0  0
  2  3  2  0  0  0
  2  4  1  0  0  0
  4  5  1  0  0  0
  5  6  1  0  0  0
  6  7  1  0  0  0
  7 10  1  0  0  0
 10 11  2  0  0  0
 11 12  1  0  0  0
 12 13  2  0  0  0
 13 14  1  0  0  0
 14 15  2  0  0  0
  7  8  1  0  0  0
  8  9  1  0  0  0
 28 23  1  0  0  0
 21 17  1  0  0  0
  9  4  1  0  0  0
 15 10  1  0  0  0
M  END
> <minimizedAffinity>
25.58653

> <CNNscore>
0.4909360707

> <CNNaffinity>
6.2000541687

> <CNN_VS>
3.0438301563

> <CNNaffinity_variance>
0.7717834711

$$$$
[H]OC(C([H])([H])[H])(C([H])([H])[H])C([H])([H])C([H])([H])N([H])S(=O)(=O)c1c([H])c([H])c(C([H])([H])[H])c(-c2c([H])nc(N([H])[H])c(-c3onc(C([H])([H])[H])c3[H])c2[H])c1[H]


 34 36  0  0  0  0  0  0  0  0999 V2000
   23.8539    9.1734   54.5225 C   0  0  0  0  0  0  0  0  0  0  0  0
   23.1929    8.7706   53.3560 C   0  0  0  0  0  0  0  0  0  0  0  0
   21.8467    9.0026   53.1677 C   0  0  0  0  0  0  0  0  0  0  0  0
   21.1127    9.6430   54.1329 C   0  0  0  0  0  0  0  0  0  0  0  0
   21.7396   10.0501   55.2902 C   0  0  0  0  0  0  0  0  0  0  0  0
   23.1143    9.8113   55.4780 C   0  0  0  0  0  0  0  0  0  0  0  0
   23.7706   10.2781   56.7284 C   0  0  0  0  0  0  0  0  0  0  0  0
   27.2632    9.0581   56.0195 C   0  0  0  0  0  0  0  0  0  0  0  0
   25.8923    9.3133   55.8699 C   0  0  0  0  0  0  0  0  0  0  0  0
   25.2748    8.9017   54.7078 C   0  0  0  0  0  0  0  0  0  0  0  0
   26.0356    8.2600   53.7500 C   0  0  0  0  0  0  0  0  0  0  0  0
   27.3425    8.0239   53.9077 N   0  0  0  0  0  0  0  0  0  0  0  0
   27.9678    8.4245   55.0514 C   0  0  0  0  0  0  0  0  0  0  0  0
   29.3483    8.1546   55.1756 N   0  0  0  0  0  0  0  0  0  0  0  0
   30.0956    8.8087   54.8469 H   0  0  0  0  0  0  0  0  0  0  0  0
   29.6687    7.2722   55.6100 H   0  0  0  0  0  0  0  0  0  0  0  0
   29.2359   11.7942   59.8107 C   0  0  0  0  0  0  0  0  0  0  0  0
   28.7249   10.6802   58.9560 C   0  0  0  0  0  0  0  0  0  0  0  0
   28.1884   10.7855   57.6583 C   0  0  0  0  0  0  0  0  0  0  0  0
   27.8595    9.5215   57.2797 C   0  0  0  0  0  0  0  0  0  0  0  0
   28.1744    8.7068   58.2778 O   0  0  0  0  0  0  0  0  0  0  0  0
   28.6725    9.3765   59.2418 N   0  0  0  0  0  0  0  0  0  0  0  0
   21.0723    8.4697   51.6745 S   0  0  0  0  0  0  0  0  0  0  0  0
   20.4099    9.6859   51.0690 O   0  0  0  0  0  0  0  0  0  0  0  0
   22.1002    7.8925   50.7670 O   0  0  0  0  0  0  0  0  0  0  0  0
   19.8443    7.3648   52.0940 N   0  0  0  0  0  0  0  0  0  0  0  0
   19.4070    7.0285   51.1863 H   0  0  0  0  0  0  0  0  0  0  0  0
   20.3435    6.2314   52.8459 C   0  0  0  0  0  0  0  0  0  0  0  0
   21.3712    6.6208   53.8581 C   0  0  0  0  0  0  0  0  0  0  0  0
   22.5510    5.7078   53.8928 C   0  0  0  0  0  0  0  0  0  0  0  0
   23.6245    6.0237   52.9023 C   0  0  0  0  0  0  0  0  0  0  0  0
   23.1472    5.7298   55.2792 C   0  0  0  0  0  0  0  0  0  0  0  0
   22.1232    4.3997   53.6574 O   0  0  0  0  0  0  0  0  0  0  0  0
   22.6204    3.7486   54.1919 H   0  0  0  0  0  0  0  0  0  0  0  0
 17 18  1  0  0  0
 18 19  1  0  0  0
 19 20  2  0  0  0
 20  8  1  0  0  0
  8  9  2  0  0  0
  9 10  1  0  0  0
 10  1  1  0  0  0
  1  2  2  0  0  0
  2  3  1  0  0  0
  3 23  1  0  0  0
 23 24  2  0  0  0
 23 25  2  0  0  0
 23 26  1  0  0  0
 26 28  1  0  0  0
 28 29  1  0  0  0
 29 30  1  0  0  0
 30 31  1  0  0  0
 30 32  1  0  0  0
 30 33  1  0  0  0
  3  4  2  0  0  0
  4  5  1  0  0  0
  5  6  2  0  0  0
  6  7  1  0  0  0
 10 11  2  0  0  0
 11 12  1  0  0  0
 12 13  2  0  0  0
 13 14  1  0  0  0
 20 21  1  0  0  0
 21 22  1  0  0  0
 22 18  2  0  0  0
 13  8  1  0  0  0
  6  1  1  0  0  0
 26 27  1  0  0  0
 33 34  1  0  0  0
 14 15  1  0  0  0
 14 16  1  0  0  0
M  END
> <minimizedAffinity>
9.10297

> <CNNscore>
0.8040058017

> <CNNaffinity>
7.1487808228

> <CNN_VS>
5.7476611137

> <CNNaffinity_variance>
0.3602305055

$$$$
[H]OC(C([H])([H])[H])(C([H])([H])[H])C([H])([H])C([H])([H])N([H])S(=O)(=O)c1c([H])c([H])c(C([H])([H])[H])c(-c2c([H])nc(N([H])[H])c(-c3onc(C([H])([H])[H])c3[H])c2[H])c1[H]


 34 36  0  0  0  0  0  0  0  0999 V2000
   24.5917    7.5017   54.2021 C   0  0  0  0  0  0  0  0  0  0  0  0
   23.4918    8.1396   53.6162 C   0  0  0  0  0  0  0  0  0  0  0  0
   22.2765    7.5043   53.4715 C   0  0  0  0  0  0  0  0  0  0  0  0
   22.1141    6.2133   53.9045 C   0  0  0  0  0  0  0  0  0  0  0  0
   23.1809    5.5630   54.4851 C   0  0  0  0  0  0  0  0  0  0  0  0
   24.4198    6.2158   54.6310 C   0  0  0  0  0  0  0  0  0  0  0  0
   25.5498    5.4975   55.2785 C   0  0  0  0  0  0  0  0  0  0  0  0
   27.5325    9.2505   55.6752 C   0  0  0  0  0  0  0  0  0  0  0  0
   26.3065    8.5766   55.5784 C   0  0  0  0  0  0  0  0  0  0  0  0
   25.8728    8.1870   54.3289 C   0  0  0  0  0  0  0  0  0  0  0  0
   26.6657    8.4795   53.2363 C   0  0  0  0  0  0  0  0  0  0  0  0
   27.8330    9.1230   53.3453 N   0  0  0  0  0  0  0  0  0  0  0  0
   28.2759    9.5148   54.5741 C   0  0  0  0  0  0  0  0  0  0  0  0
   29.5136   10.1911   54.6424 N   0  0  0  0  0  0  0  0  0  0  0  0
   29.6080   11.2301   54.5647 H   0  0  0  0  0  0  0  0  0  0  0  0
   30.3905    9.6589   54.7757 H   0  0  0  0  0  0  0  0  0  0  0  0
   29.0162   11.7390   59.8415 C   0  0  0  0  0  0  0  0  0  0  0  0
   28.5823   10.6873   58.8729 C   0  0  0  0  0  0  0  0  0  0  0  0
   28.2826   10.8638   57.5084 C   0  0  0  0  0  0  0  0  0  0  0  0
   27.9366    9.6374   57.0337 C   0  0  0  0  0  0  0  0  0  0  0  0
   28.0203    8.7773   58.0400 O   0  0  0  0  0  0  0  0  0  0  0  0
   28.3924    9.3844   59.0978 N   0  0  0  0  0  0  0  0  0  0  0  0
   20.9287    8.3638   52.7244 S   0  0  0  0  0  0  0  0  0  0  0  0
   21.0095    9.7969   53.1979 O   0  0  0  0  0  0  0  0  0  0  0  0
   21.0431    8.2648   51.2444 O   0  0  0  0  0  0  0  0  0  0  0  0
   19.4855    7.6955   53.3368 N   0  0  0  0  0  0  0  0  0  0  0  0
   18.6910    8.3175   53.0050 H   0  0  0  0  0  0  0  0  0  0  0  0
   19.2628    6.3362   52.8875 C   0  0  0  0  0  0  0  0  0  0  0  0
   19.6607    5.3208   53.9087 C   0  0  0  0  0  0  0  0  0  0  0  0
   18.8276    4.0833   53.8763 C   0  0  0  0  0  0  0  0  0  0  0  0
   17.3515    4.3151   53.8512 C   0  0  0  0  0  0  0  0  0  0  0  0
   19.2117    3.2652   52.6674 C   0  0  0  0  0  0  0  0  0  0  0  0
   19.1196    3.3066   54.9994 O   0  0  0  0  0  0  0  0  0  0  0  0
   19.1093    2.3496   54.7972 H   0  0  0  0  0  0  0  0  0  0  0  0
 17 18  1  0  0  0
 18 19  1  0  0  0
 19 20  2  0  0  0
 20  8  1  0  0  0
  8  9  2  0  0  0
  9 10  1  0  0  0
 10  1  1  0  0  0
  1  2  2  0  0  0
  2  3  1  0  0  0
  3 23  1  0  0  0
 23 24  2  0  0  0
 23 25  2  0  0  0
 23 26  1  0  0  0
 26 28  1  0  0  0
 28 29  1  0  0  0
 29 30  1  0  0  0
 30 31  1  0  0  0
 30 32  1  0  0  0
 30 33  1  0  0  0
  3  4  2  0  0  0
  4  5  1  0  0  0
  5  6  2  0  0  0
  6  7  1  0  0  0
 10 11  2  0  0  0
 11 12  1  0  0  0
 12 13  2  0  0  0
 13 14  1  0  0  0
 20 21  1  0  0  0
 21 22  1  0  0  0
 22 18  2  0  0  0
 13  8  1  0  0  0
  6  1  1  0  0  0
 26 27  1  0  0  0
 33 34  1  0  0  0
 14 15  1  0  0  0
 14 16  1  0  0  0
M  END
> <minimizedAffinity>
17.56129

> <CNNscore>
0.6515851617

> <CNNaffinity>
6.6429977417

> <CNN_VS>
4.3284788132

> <CNNaffinity_variance>
0.4374990463

$$$$
[H]OC(C([H])([H])[H])(C([H])([H])[H])C([H])([H])C([H])([H])N([H])S(=O)(=O)c1c([H])c([H])c(C([H])([H])[H])c(-c2c([H])nc(N([H])[H])c(-c3onc(C([H])([H])[H])c3[H])c2[H])c1[H]


 34 36  0  0  0  0  0  0  0  0999 V2000
   24.5902    7.5926   53.9529 C   0  0  0  0  0  0  0  0  0  0  0  0
   23.4281    8.1455   53.4017 C   0  0  0  0  0  0  0  0  0  0  0  0
   22.2094    7.5060   53.4865 C   0  0  0  0  0  0  0  0  0  0  0  0
   22.1053    6.2954   54.1222 C   0  0  0  0  0  0  0  0  0  0  0  0
   23.2340    5.7298   54.6736 C   0  0  0  0  0  0  0  0  0  0  0  0
   24.4762    6.3865   54.5848 C   0  0  0  0  0  0  0  0  0  0  0  0
   25.6758    5.7632   55.2052 C   0  0  0  0  0  0  0  0  0  0  0  0
   27.5829    9.2639   52.4941 C   0  0  0  0  0  0  0  0  0  0  0  0
   26.3395    8.6216   52.5849 C   0  0  0  0  0  0  0  0  0  0  0  0
   25.8721    8.2783   53.8358 C   0  0  0  0  0  0  0  0  0  0  0  0
   26.6503    8.5831   54.9356 C   0  0  0  0  0  0  0  0  0  0  0  0
   27.8344    9.1962   54.8323 N   0  0  0  0  0  0  0  0  0  0  0  0
   28.3105    9.5425   53.6023 C   0  0  0  0  0  0  0  0  0  0  0  0
   29.5647   10.1881   53.5402 N   0  0  0  0  0  0  0  0  0  0  0  0
   30.4735    9.6761   53.4605 H   0  0  0  0  0  0  0  0  0  0  0  0
   29.6205   11.2205   53.5729 H   0  0  0  0  0  0  0  0  0  0  0  0
   28.7055    9.2533   47.5452 C   0  0  0  0  0  0  0  0  0  0  0  0
   28.5265    9.6369   48.9782 C   0  0  0  0  0  0  0  0  0  0  0  0
   27.9869    8.8416   50.0073 C   0  0  0  0  0  0  0  0  0  0  0  0
   28.0226    9.6024   51.1338 C   0  0  0  0  0  0  0  0  0  0  0  0
   28.5470   10.7771   50.8105 O   0  0  0  0  0  0  0  0  0  0  0  0
   28.8363   10.7943   49.5687 N   0  0  0  0  0  0  0  0  0  0  0  0
   20.7814    8.2560   52.7709 S   0  0  0  0  0  0  0  0  0  0  0  0
   20.7731    9.6979   53.2240 O   0  0  0  0  0  0  0  0  0  0  0  0
   20.8583    8.1440   51.2894 O   0  0  0  0  0  0  0  0  0  0  0  0
   19.4090    7.4951   53.4358 N   0  0  0  0  0  0  0  0  0  0  0  0
   18.5830    8.1400   53.2625 H   0  0  0  0  0  0  0  0  0  0  0  0
   19.1480    6.1971   52.8475 C   0  0  0  0  0  0  0  0  0  0  0  0
   19.7173    5.0755   53.6538 C   0  0  0  0  0  0  0  0  0  0  0  0
   18.7668    3.9432   53.8563 C   0  0  0  0  0  0  0  0  0  0  0  0
   17.3234    4.3284   53.8954 C   0  0  0  0  0  0  0  0  0  0  0  0
   18.9697    2.9302   52.7559 C   0  0  0  0  0  0  0  0  0  0  0  0
   19.0709    3.3009   55.0582 O   0  0  0  0  0  0  0  0  0  0  0  0
   18.9503    2.3321   54.9980 H   0  0  0  0  0  0  0  0  0  0  0  0
 17 18  1  0  0  0
 18 19  1  0  0  0
 19 20  2  0  0  0
 20  8  1  0  0  0
  8  9  2  0  0  0
  9 10  1  0  0  0
 10  1  1  0  0  0
  1  2  2  0  0  0
  2  3  1  0  0  0
  3 23  1  0  0  0
 23 24  2  0  0  0
 23 25  2  0  0  0
 23 26  1  0  0  0
 26 28  1  0  0  0
 28 29  1  0  0  0
 29 30  1  0  0  0
 30 31  1  0  0  0
 30 32  1  0  0  0
 30 33  1  0  0  0
  3  4  2  0  0  0
  4  5  1  0  0  0
  5  6  2  0  0  0
  6  7  1  0  0  0
 10 11  2  0  0  0
 11 12  1  0  0  0
 12 13  2  0  0  0
 13 14  1  0  0  0
 20 21  1  0  0  0
 21 22  1  0  0  0
 22 18  2  0  0  0
 13  8  1  0  0  0
  6  1  1  0  0  0
 26 27  1  0  0  0
 33 34  1  0  0  0
 14 15  1  0  0  0
 14 16  1  0  0  0
M  END
> <minimizedAffinity>
27.41939

> <CNNscore>
0.6167229414

> <CNNaffinity>
6.3093800545

> <CNN_VS>
3.8911395073

> <CNNaffinity_variance>
0.5100639462

$$$$
[H]OC(C([H])([H])[H])(C([H])([H])[H])C([H])([H])C([H])([H])N([H])S(=O)(=O)c1c([H])c([H])c(C([H])([H])[H])c(-c2c([H])nc(N([H])[H])c(-c3onc(C([H])([H])[H])c3[H])c2[H])c1[H]


 34 36  0  0  0  0  0  0  0  0999 V2000
   23.6824    8.7597   54.5934 C   0  0  0  0  0  0  0  0  0  0  0  0
   22.9635    7.8568   53.8011 C   0  0  0  0  0  0  0  0  0  0  0  0
   21.5906    7.9217   53.6903 C   0  0  0  0  0  0  0  0  0  0  0  0
   20.8864    8.8867   54.3638 C   0  0  0  0  0  0  0  0  0  0  0  0
   21.5701    9.7879   55.1501 C   0  0  0  0  0  0  0  0  0  0  0  0
   22.9720    9.7179   55.2599 C   0  0  0  0  0  0  0  0  0  0  0  0
   23.6876   10.7149   56.1004 C   0  0  0  0  0  0  0  0  0  0  0  0
   27.1435    9.0120   55.9480 C   0  0  0  0  0  0  0  0  0  0  0  0
   25.7462    9.0989   55.8646 C   0  0  0  0  0  0  0  0  0  0  0  0
   25.1329    8.6613   54.7098 C   0  0  0  0  0  0  0  0  0  0  0  0
   25.9235    8.1602   53.6939 C   0  0  0  0  0  0  0  0  0  0  0  0
   27.2553    8.0838   53.7890 N   0  0  0  0  0  0  0  0  0  0  0  0
   27.8769    8.5123   54.9245 C   0  0  0  0  0  0  0  0  0  0  0  0
   29.2843    8.4130   54.9815 N   0  0  0  0  0  0  0  0  0  0  0  0
   29.9294    9.1689   54.6544 H   0  0  0  0  0  0  0  0  0  0  0  0
   29.7307    7.5608   55.3615 H   0  0  0  0  0  0  0  0  0  0  0  0
   29.1312   11.7999   59.6934 C   0  0  0  0  0  0  0  0  0  0  0  0
   28.6046   10.6762   58.8612 C   0  0  0  0  0  0  0  0  0  0  0  0
   28.0885   10.7596   57.5537 C   0  0  0  0  0  0  0  0  0  0  0  0
   27.7338    9.4944   57.2038 C   0  0  0  0  0  0  0  0  0  0  0  0
   28.0149    8.6992   58.2276 O   0  0  0  0  0  0  0  0  0  0  0  0
   28.5162    9.3822   59.1806 N   0  0  0  0  0  0  0  0  0  0  0  0
   20.7431    6.7536   52.6750 S   0  0  0  0  0  0  0  0  0  0  0  0
   20.0780    7.5397   51.5685 O   0  0  0  0  0  0  0  0  0  0  0  0
   21.7203    5.7676   52.1404 O   0  0  0  0  0  0  0  0  0  0  0  0
   19.5140    6.0436   53.6183 N   0  0  0  0  0  0  0  0  0  0  0  0
   18.6718    6.6889   53.5661 H   0  0  0  0  0  0  0  0  0  0  0  0
   19.1462    4.7209   53.1554 C   0  0  0  0  0  0  0  0  0  0  0  0
   18.5245    3.8884   54.2291 C   0  0  0  0  0  0  0  0  0  0  0  0
   17.0390    4.0118   54.2957 C   0  0  0  0  0  0  0  0  0  0  0  0
   16.2892    3.1530   53.3295 C   0  0  0  0  0  0  0  0  0  0  0  0
   16.5818    3.6815   55.6957 C   0  0  0  0  0  0  0  0  0  0  0  0
   16.6798    5.3396   54.0558 O   0  0  0  0  0  0  0  0  0  0  0  0
   15.9203    5.6198   54.6048 H   0  0  0  0  0  0  0  0  0  0  0  0
 17 18  1  0  0  0
 18 19  1  0  0  0
 19 20  2  0  0  0
 20  8  1  0  0  0
  8  9  2  0  0  0
  9 10  1  0  0  0
 10  1  1  0  0  0
  1  2  2  0  0  0
  2  3  1  0  0  0
  3 23  1  0  0  0
 23 24  2  0  0  0
 23 25  2  0  0  0
 23 26  1  0  0  0
 26 28  1  0  0  0
 28 29  1  0  0  0
 29 30  1  0  0  0
 30 31  1  0  0  0
 30 32  1  0  0  0
 30 33  1  0  0  0
  3  4  2  0  0  0
  4  5  1  0  0  0
  5  6  2  0  0  0
  6  7  1  0  0  0
 10 11  2  0  0  0
 11 12  1  0  0  0
 12 13  2  0  0  0
 13 14  1  0  0  0
 20 21  1  0  0  0
 21 22  1  0  0  0
 22 18  2  0  0  0
 13  8  1  0  0  0
  6  1  1  0  0  0
 26 27  1  0  0  0
 33 34  1  0  0  0
 14 15  1  0  0  0
 14 16  1  0  0  0
M  END
> <minimizedAffinity>
10.93194

> <CNNscore>
0.5947377086

> <CNNaffinity>
6.8867349625

> <CNN_VS>
4.0958008766

> <CNNaffinity_variance>
0.3254067600

$$$$
[H]OC(C([H])([H])[H])(C([H])([H])[H])C([H])([H])C([H])([H])N([H])S(=O)(=O)c1c([H])c([H])c(C([H])([H])[H])c(-c2c([H])nc(N([H])[H])c(-c3onc(C([H])([H])[H])c3[H])c2[H])c1[H]


 34 36  0  0  0  0  0  0  0  0999 V2000
   24.0592    7.2053   53.8811 C   0  0  0  0  0  0  0  0  0  0  0  0
   23.2407    7.8374   52.9374 C   0  0  0  0  0  0  0  0  0  0  0  0
   21.9303    7.4555   52.7414 C   0  0  0  0  0  0  0  0  0  0  0  0
   21.3898    6.4323   53.4773 C   0  0  0  0  0  0  0  0  0  0  0  0
   22.1740    5.7940   54.4130 C   0  0  0  0  0  0  0  0  0  0  0  0
   23.5114    6.1876   54.6098 C   0  0  0  0  0  0  0  0  0  0  0  0
   24.3306    5.4946   55.6398 C   0  0  0  0  0  0  0  0  0  0  0  0
   27.1464    8.6836   55.3512 C   0  0  0  0  0  0  0  0  0  0  0  0
   25.8098    8.2835   55.2089 C   0  0  0  0  0  0  0  0  0  0  0  0
   25.4478    7.6142   54.0591 C   0  0  0  0  0  0  0  0  0  0  0  0
   26.4176    7.3716   53.1058 C   0  0  0  0  0  0  0  0  0  0  0  0
   27.6885    7.7597   53.2565 N   0  0  0  0  0  0  0  0  0  0  0  0
   28.0625    8.4225   54.3880 C   0  0  0  0  0  0  0  0  0  0  0  0
   29.4143    8.8133   54.5051 N   0  0  0  0  0  0  0  0  0  0  0  0
   29.7816    9.7298   54.1592 H   0  0  0  0  0  0  0  0  0  0  0  0
   30.1015    8.1821   54.9516 H   0  0  0  0  0  0  0  0  0  0  0  0
   28.9044   10.0687   59.9055 C   0  0  0  0  0  0  0  0  0  0  0  0
   28.2129   10.0322   58.5815 C   0  0  0  0  0  0  0  0  0  0  0  0
   28.2298    8.9803   57.6455 C   0  0  0  0  0  0  0  0  0  0  0  0
   27.4659    9.3914   56.5983 C   0  0  0  0  0  0  0  0  0  0  0  0
   27.0172   10.6075   56.8795 O   0  0  0  0  0  0  0  0  0  0  0  0
   27.4488   10.9741   58.0220 N   0  0  0  0  0  0  0  0  0  0  0  0
   20.9508    8.2925   51.5358 S   0  0  0  0  0  0  0  0  0  0  0  0
   21.3659    7.7531   50.1863 O   0  0  0  0  0  0  0  0  0  0  0  0
   19.5109    8.0399   51.8116 O   0  0  0  0  0  0  0  0  0  0  0  0
   21.3687    9.9441   51.5854 N   0  0  0  0  0  0  0  0  0  0  0  0
   20.6458   10.4639   51.0064 H   0  0  0  0  0  0  0  0  0  0  0  0
   21.3907   10.4760   52.9328 C   0  0  0  0  0  0  0  0  0  0  0  0
   21.1680    9.4239   53.9700 C   0  0  0  0  0  0  0  0  0  0  0  0
   21.6690    9.8038   55.3232 C   0  0  0  0  0  0  0  0  0  0  0  0
   23.1052   10.2140   55.3736 C   0  0  0  0  0  0  0  0  0  0  0  0
   20.8223   10.9319   55.8605 C   0  0  0  0  0  0  0  0  0  0  0  0
   21.5019    8.7236   56.1920 O   0  0  0  0  0  0  0  0  0  0  0  0
   21.2478    9.0114   57.0916 H   0  0  0  0  0  0  0  0  0  0  0  0
 17 18  1  0  0  0
 18 19  1  0  0  0
 19 20  2  0  0  0
 20  8  1  0  0  0
  8  9  2  0  0  0
  9 10  1  0  0  0
 10  1  1  0  0  0
  1  2  2  0  0  0
  2  3  1  0  0  0
  3 23  1  0  0  0
 23 24  2  0  0  0
 23 25  2  0  0  0
 23 26  1  0  0  0
 26 28  1  0  0  0
 28 29  1  0  0  0
 29 30  1  0  0  0
 30 31  1  0  0  0
 30 32  1  0  0  0
 30 33  1  0  0  0
  3  4  2  0  0  0
  4  5  1  0  0  0
  5  6  2  0  0  0
  6  7  1  0  0  0
 10 11  2  0  0  0
 11 12  1  0  0  0
 12 13  2  0  0  0
 13 14  1  0  0  0
 20 21  1  0  0  0
 21 22  1  0  0  0
 22 18  2  0  0  0
 13  8  1  0  0  0
  6  1  1  0  0  0
 26 27  1  0  0  0
 33 34  1  0  0  0
 14 15  1  0  0  0
 14 16  1  0  0  0
M  END
> <minimizedAffinity>
10.46155

> <CNNscore>
0.5943214893

> <CNNaffinity>
6.7902030945

> <CNN_VS>
4.0355634689

> <CNNaffinity_variance>
0.2898628116

$$$$
[H]OC(C([H])([H])[H])(C([H])([H])[H])C([H])([H])C([H])([H])N([H])S(=O)(=O)c1c([H])c([H])c(C([H])([H])[H])c(-c2c([H])nc(N([H])[H])c(-c3onc(C([H])([H])[H])c3[H])c2[H])c1[H]


 34 36  0  0  0  0  0  0  0  0999 V2000
   23.9420    8.5769   54.9370 C   0  0  0  0  0  0  0  0  0  0  0  0
   23.2755    7.5722   54.2255 C   0  0  0  0  0  0  0  0  0  0  0  0
   21.8990    7.5166   54.1653 C   0  0  0  0  0  0  0  0  0  0  0  0
   21.1391    8.4583   54.8105 C   0  0  0  0  0  0  0  0  0  0  0  0
   21.7705    9.4580   55.5175 C   0  0  0  0  0  0  0  0  0  0  0  0
   23.1762    9.5109   55.5759 C   0  0  0  0  0  0  0  0  0  0  0  0
   23.8331   10.6117   56.3303 C   0  0  0  0  0  0  0  0  0  0  0  0
   27.4136    9.1063   56.1800 C   0  0  0  0  0  0  0  0  0  0  0  0
   26.0121    9.0699   56.1461 C   0  0  0  0  0  0  0  0  0  0  0  0
   25.3988    8.6059   55.0017 C   0  0  0  0  0  0  0  0  0  0  0  0
   26.1936    8.2010   53.9470 C   0  0  0  0  0  0  0  0  0  0  0  0
   27.5294    8.2418   53.9950 N   0  0  0  0  0  0  0  0  0  0  0  0
   28.1512    8.6979   55.1197 C   0  0  0  0  0  0  0  0  0  0  0  0
   29.5630    8.7235   55.1265 N   0  0  0  0  0  0  0  0  0  0  0  0
   30.1264    9.5413   54.7975 H   0  0  0  0  0  0  0  0  0  0  0  0
   30.0964    7.9061   55.4687 H   0  0  0  0  0  0  0  0  0  0  0  0
   29.2439   11.9758   59.9439 C   0  0  0  0  0  0  0  0  0  0  0  0
   28.8109   10.8278   59.0912 C   0  0  0  0  0  0  0  0  0  0  0  0
   28.2271   10.8957   57.8116 C   0  0  0  0  0  0  0  0  0  0  0  0
   28.0038    9.6106   57.4273 C   0  0  0  0  0  0  0  0  0  0  0  0
   28.4227    8.8187   58.4055 O   0  0  0  0  0  0  0  0  0  0  0  0
   28.8870    9.5221   59.3624 N   0  0  0  0  0  0  0  0  0  0  0  0
   21.1193    6.2242   53.2513 S   0  0  0  0  0  0  0  0  0  0  0  0
   22.2251    5.3791   52.6618 O   0  0  0  0  0  0  0  0  0  0  0  0
   20.2482    5.4347   54.1629 O   0  0  0  0  0  0  0  0  0  0  0  0
   20.2706    6.9429   51.9599 N   0  0  0  0  0  0  0  0  0  0  0  0
   19.3551    7.3079   52.3560 H   0  0  0  0  0  0  0  0  0  0  0  0
   21.0043    8.0292   51.3430 C   0  0  0  0  0  0  0  0  0  0  0  0
   20.4401    9.3702   51.6833 C   0  0  0  0  0  0  0  0  0  0  0  0
   21.4809   10.4046   51.9542 C   0  0  0  0  0  0  0  0  0  0  0  0
   21.5069   11.5437   50.9872 C   0  0  0  0  0  0  0  0  0  0  0  0
   21.2768   10.9528   53.3456 C   0  0  0  0  0  0  0  0  0  0  0  0
   22.7398    9.8010   51.9381 O   0  0  0  0  0  0  0  0  0  0  0  0
   23.3386   10.1818   52.6113 H   0  0  0  0  0  0  0  0  0  0  0  0
 17 18  1  0  0  0
 18 19  1  0  0  0
 19 20  2  0  0  0
 20  8  1  0  0  0
  8  9  2  0  0  0
  9 10  1  0  0  0
 10  1  1  0  0  0
  1  2  2  0  0  0
  2  3  1  0  0  0
  3 23  1  0  0  0
 23 24  2  0  0  0
 23 25  2  0  0  0
 23 26  1  0  0  0
 26 28  1  0  0  0
 28 29  1  0  0  0
 29 30  1  0  0  0
 30 31  1  0  0  0
 30 32  1  0  0  0
 30 33  1  0  0  0
  3  4  2  0  0  0
  4  5  1  0  0  0
  5  6  2  0  0  0
  6  7  1  0  0  0
 10 11  2  0  0  0
 11 12  1  0  0  0
 12 13  2  0  0  0
 13 14  1  0  0  0
 20 21  1  0  0  0
 21 22  1  0  0  0
 22 18  2  0  0  0
 13  8  1  0  0  0
  6  1  1  0  0  0
 26 27  1  0  0  0
 33 34  1  0  0  0
 14 15  1  0  0  0
 14 16  1  0  0  0
M  END
> <minimizedAffinity>
10.40298

> <CNNscore>
0.5793081522

> <CNNaffinity>
6.6711845398

> <CNN_VS>
3.8646717072

> <CNNaffinity_variance>
0.2280702144

$$$$
[H]OC(C([H])([H])[H])(C([H])([H])[H])C([H])([H])C([H])([H])N([H])S(=O)(=O)c1c([H])c([H])c(C([H])([H])[H])c(-c2c([H])nc(N([H])[H])c(-c3onc(C([H])([H])[H])c3[H])c2[H])c1[H]


 34 36  0  0  0  0  0  0  0  0999 V2000
   23.8996    7.5052   53.8806 C   0  0  0  0  0  0  0  0  0  0  0  0
   23.0418    7.9940   52.8880 C   0  0  0  0  0  0  0  0  0  0  0  0
   21.7589    7.5120   52.7357 C   0  0  0  0  0  0  0  0  0  0  0  0
   21.2859    6.5277   53.5652 C   0  0  0  0  0  0  0  0  0  0  0  0
   22.1100    6.0298   54.5506 C   0  0  0  0  0  0  0  0  0  0  0  0
   23.4190    6.5252   54.7025 C   0  0  0  0  0  0  0  0  0  0  0  0
   24.2816    5.9838   55.7866 C   0  0  0  0  0  0  0  0  0  0  0  0
   27.0338    8.8681   55.3627 C   0  0  0  0  0  0  0  0  0  0  0  0
   25.7305    8.3603   55.2615 C   0  0  0  0  0  0  0  0  0  0  0  0
   25.2588    8.0175   54.0121 C   0  0  0  0  0  0  0  0  0  0  0  0
   26.0916    8.1911   52.9238 C   0  0  0  0  0  0  0  0  0  0  0  0
   27.3326    8.6765   53.0369 N   0  0  0  0  0  0  0  0  0  0  0  0
   27.8139    9.0201   54.2657 C   0  0  0  0  0  0  0  0  0  0  0  0
   29.1293    9.5285   54.3384 N   0  0  0  0  0  0  0  0  0  0  0  0
   29.3602   10.5451   54.2513 H   0  0  0  0  0  0  0  0  0  0  0  0
   29.9274    8.8870   54.4849 H   0  0  0  0  0  0  0  0  0  0  0  0
   29.0266   11.0854   59.4692 C   0  0  0  0  0  0  0  0  0  0  0  0
   28.3306   10.1490   58.5358 C   0  0  0  0  0  0  0  0  0  0  0  0
   28.1654   10.3050   57.1462 C   0  0  0  0  0  0  0  0  0  0  0  0
   27.4749    9.2134   56.7209 C   0  0  0  0  0  0  0  0  0  0  0  0
   27.2379    8.4489   57.7786 O   0  0  0  0  0  0  0  0  0  0  0  0
   27.7317    8.9899   58.8224 N   0  0  0  0  0  0  0  0  0  0  0  0
   20.7271    8.1702   51.4646 S   0  0  0  0  0  0  0  0  0  0  0  0
   21.3803    7.8191   50.1476 O   0  0  0  0  0  0  0  0  0  0  0  0
   19.3671    7.5784   51.5805 O   0  0  0  0  0  0  0  0  0  0  0  0
   20.7404    9.8678   51.6143 N   0  0  0  0  0  0  0  0  0  0  0  0
   19.8101   10.1481   52.0435 H   0  0  0  0  0  0  0  0  0  0  0  0
   21.8265   10.3484   52.4440 C   0  0  0  0  0  0  0  0  0  0  0  0
   21.7102   11.8049   52.7564 C   0  0  0  0  0  0  0  0  0  0  0  0
   21.6052   12.6689   51.5444 C   0  0  0  0  0  0  0  0  0  0  0  0
   20.7384   13.8761   51.7015 C   0  0  0  0  0  0  0  0  0  0  0  0
   22.9891   13.1139   51.1383 C   0  0  0  0  0  0  0  0  0  0  0  0
   21.0972   11.9122   50.4866 O   0  0  0  0  0  0  0  0  0  0  0  0
   21.5087   12.1520   49.6323 H   0  0  0  0  0  0  0  0  0  0  0  0
 17 18  1  0  0  0
 18 19  1  0  0  0
 19 20  2  0  0  0
 20  8  1  0  0  0
  8  9  2  0  0  0
  9 10  1  0  0  0
 10  1  1  0  0  0
  1  2  2  0  0  0
  2  3  1  0  0  0
  3 23  1  0  0  0
 23 24  2  0  0  0
 23 25  2  0  0  0
 23 26  1  0  0  0
 26 28  1  0  0  0
 28 29  1  0  0  0
 29 30  1  0  0  0
 30 31  1  0  0  0
 30 32  1  0  0  0
 30 33  1  0  0  0
  3  4  2  0  0  0
  4  5  1  0  0  0
  5  6  2  0  0  0
  6  7  1  0  0  0
 10 11  2  0  0  0
 11 12  1  0  0  0
 12 13  2  0  0  0
 13 14  1  0  0  0
 20 21  1  0  0  0
 21 22  1  0  0  0
 22 18  2  0  0  0
 13  8  1  0  0  0
  6  1  1  0  0  0
 26 27  1  0  0  0
 33 34  1  0  0  0
 14 15  1  0  0  0
 14 16  1  0  0  0
M  END
> <minimizedAffinity>
13.83379

> <CNNscore>
0.5694128871

> <CNNaffinity>
7.0081849098

> <CNN_VS>
3.9905507565

> <CNNaffinity_variance>
0.6789098978

$$$$
[H]OC(C([H])([H])[H])(C([H])([H])[H])C([H])([H])C([H])([H])N([H])S(=O)(=O)c1c([H])c([H])c(C([H])([H])[H])c(-c2c([H])nc(N([H])[H])c(-c3onc(C([H])([H])[H])c3[H])c2[H])c1[H]


 34 36  0  0  0  0  0  0  0  0999 V2000
   24.3053    7.4724   53.7135 C   0  0  0  0  0  0  0  0  0  0  0  0
   23.2210    8.0043   53.0055 C   0  0  0  0  0  0  0  0  0  0  0  0
   21.9796    7.4042   53.0207 C   0  0  0  0  0  0  0  0  0  0  0  0
   21.7747    6.2551   53.7405 C   0  0  0  0  0  0  0  0  0  0  0  0
   22.8254    5.7113   54.4465 C   0  0  0  0  0  0  0  0  0  0  0  0
   24.0910    6.3277   54.4282 C   0  0  0  0  0  0  0  0  0  0  0  0
   25.2035    5.7306   55.2145 C   0  0  0  0  0  0  0  0  0  0  0  0
   27.3927    9.1155   52.4308 C   0  0  0  0  0  0  0  0  0  0  0  0
   26.1245    8.5171   52.4529 C   0  0  0  0  0  0  0  0  0  0  0  0
   25.6141    8.1142   53.6688 C   0  0  0  0  0  0  0  0  0  0  0  0
   26.3759    8.3191   54.8028 C   0  0  0  0  0  0  0  0  0  0  0  0
   27.5839    8.8916   54.7650 N   0  0  0  0  0  0  0  0  0  0  0  0
   28.1026    9.2958   53.5703 C   0  0  0  0  0  0  0  0  0  0  0  0
   29.3810    9.8953   53.5772 N   0  0  0  0  0  0  0  0  0  0  0  0
   30.2719    9.3547   53.4853 H   0  0  0  0  0  0  0  0  0  0  0  0
   29.4741   10.9207   53.6768 H   0  0  0  0  0  0  0  0  0  0  0  0
   29.0591   11.6736   48.3773 C   0  0  0  0  0  0  0  0  0  0  0  0
   28.6068   10.6018   49.3150 C   0  0  0  0  0  0  0  0  0  0  0  0
   28.1970   10.7637   50.6524 C   0  0  0  0  0  0  0  0  0  0  0  0
   27.8778    9.5216   51.1048 C   0  0  0  0  0  0  0  0  0  0  0  0
   28.0801    8.6664   50.1114 O   0  0  0  0  0  0  0  0  0  0  0  0
   28.4998    9.2909   49.0820 N   0  0  0  0  0  0  0  0  0  0  0  0
   20.6533    8.1248   52.1068 S   0  0  0  0  0  0  0  0  0  0  0  0
   20.5664    7.3728   50.7986 O   0  0  0  0  0  0  0  0  0  0  0  0
   19.3958    8.0102   52.8933 O   0  0  0  0  0  0  0  0  0  0  0  0
   21.0841    9.7352   51.7520 N   0  0  0  0  0  0  0  0  0  0  0  0
   20.3714   10.0997   51.0540 H   0  0  0  0  0  0  0  0  0  0  0  0
   21.0967   10.5834   52.9265 C   0  0  0  0  0  0  0  0  0  0  0  0
   21.9861   11.7732   52.7668 C   0  0  0  0  0  0  0  0  0  0  0  0
   21.5907   12.6672   51.6394 C   0  0  0  0  0  0  0  0  0  0  0  0
   20.9017   11.9844   50.5026 C   0  0  0  0  0  0  0  0  0  0  0  0
   20.6901   13.7561   52.1699 C   0  0  0  0  0  0  0  0  0  0  0  0
   22.7303   13.2958   51.1336 O   0  0  0  0  0  0  0  0  0  0  0  0
   22.5518   14.2191   50.8645 H   0  0  0  0  0  0  0  0  0  0  0  0
 17 18  1  0  0  0
 18 19  1  0  0  0
 19 20  2  0  0  0
 20  8  1  0  0  0
  8  9  2  0  0  0
  9 10  1  0  0  0
 10  1  1  0  0  0
  1  2  2  0  0  0
  2  3  1  0  0  0
  3 23  1  0  0  0
 23 24  2  0  0  0
 23 25  2  0  0  0
 23 26  1  0  0  0
 26 28  1  0  0  0
 28 29  1  0  0  0
 29 30  1  0  0  0
 30 31  1  0  0  0
 30 32  1  0  0  0
 30 33  1  0  0  0
  3  4  2  0  0  0
  4  5  1  0  0  0
  5  6  2  0  0  0
  6  7  1  0  0  0
 10 11  2  0  0  0
 11 12  1  0  0  0
 12 13  2  0  0  0
 13 14  1  0  0  0
 20 21  1  0  0  0
 21 22  1  0  0  0
 22 18  2  0  0  0
 13  8  1  0  0  0
  6  1  1  0  0  0
 26 27  1  0  0  0
 33 34  1  0  0  0
 14 15  1  0  0  0
 14 16  1  0  0  0
M  END
> <minimizedAffinity>
25.27817

> <CNNscore>
0.5500113368

> <CNNaffinity>
6.4918007851

> <CNN_VS>
3.5705640316

> <CNNaffinity_variance>
0.4235890508

$$$$
[H]OC(C([H])([H])[H])(C([H])([H])[H])C([H])([H])C([H])([H])N([H])S(=O)(=O)c1c([H])c([H])c(C([H])([H])[H])c(-c2c([H])nc(N([H])[H])c(-c3onc(C([H])([H])[H])c3[H])c2[H])c1[H]


 34 36  0  0  0  0  0  0  0  0999 V2000
   24.4708    7.6297   54.3924 C   0  0  0  0  0  0  0  0  0  0  0  0
   23.3213    8.4287   54.3815 C   0  0  0  0  0  0  0  0  0  0  0  0
   22.0601    7.8842   54.2618 C   0  0  0  0  0  0  0  0  0  0  0  0
   21.8996    6.5270   54.1489 C   0  0  0  0  0  0  0  0  0  0  0  0
   23.0149    5.7182   54.1573 C   0  0  0  0  0  0  0  0  0  0  0  0
   24.3006    6.2786   54.2800 C   0  0  0  0  0  0  0  0  0  0  0  0
   25.4868    5.3816   54.3056 C   0  0  0  0  0  0  0  0  0  0  0  0
   27.5200    9.2249   55.8190 C   0  0  0  0  0  0  0  0  0  0  0  0
   26.2503    8.6347   55.7391 C   0  0  0  0  0  0  0  0  0  0  0  0
   25.7961    8.2286   54.5022 C   0  0  0  0  0  0  0  0  0  0  0  0
   26.6123    8.4232   53.4049 C   0  0  0  0  0  0  0  0  0  0  0  0
   27.8212    8.9876   53.4978 N   0  0  0  0  0  0  0  0  0  0  0  0
   28.2849    9.3944   54.7140 C   0  0  0  0  0  0  0  0  0  0  0  0
   29.5664    9.9851   54.7654 N   0  0  0  0  0  0  0  0  0  0  0  0
   29.7335   11.0113   54.6491 H   0  0  0  0  0  0  0  0  0  0  0  0
   30.4034    9.3987   54.9251 H   0  0  0  0  0  0  0  0  0  0  0  0
   29.0572   11.7842   59.9225 C   0  0  0  0  0  0  0  0  0  0  0  0
   28.6136   10.7156   58.9770 C   0  0  0  0  0  0  0  0  0  0  0  0
   28.2906   10.8698   57.6151 C   0  0  0  0  0  0  0  0  0  0  0  0
   27.9440    9.6345   57.1647 C   0  0  0  0  0  0  0  0  0  0  0  0
   28.0492    8.7901   58.1823 O   0  0  0  0  0  0  0  0  0  0  0  0
   28.4349    9.4152   59.2246 N   0  0  0  0  0  0  0  0  0  0  0  0
   20.6508    8.9460   54.2547 S   0  0  0  0  0  0  0  0  0  0  0  0
   19.5513    8.2158   54.9911 O   0  0  0  0  0  0  0  0  0  0  0  0
   21.0004   10.2305   54.9189 O   0  0  0  0  0  0  0  0  0  0  0  0
   20.1538    9.1358   52.6356 N   0  0  0  0  0  0  0  0  0  0  0  0
   19.5301    9.9949   52.6018 H   0  0  0  0  0  0  0  0  0  0  0  0
   21.2673    9.3035   51.7239 C   0  0  0  0  0  0  0  0  0  0  0  0
   22.1627   10.4348   52.1123 C   0  0  0  0  0  0  0  0  0  0  0  0
   21.6149   11.7776   51.7613 C   0  0  0  0  0  0  0  0  0  0  0  0
   22.6335   12.7841   51.3337 C   0  0  0  0  0  0  0  0  0  0  0  0
   20.5962   11.6186   50.6589 C   0  0  0  0  0  0  0  0  0  0  0  0
   20.9373   12.2974   52.8660 O   0  0  0  0  0  0  0  0  0  0  0  0
   20.1373   12.7960   52.6052 H   0  0  0  0  0  0  0  0  0  0  0  0
 17 18  1  0  0  0
 18 19  1  0  0  0
 19 20  2  0  0  0
 20  8  1  0  0  0
  8  9  2  0  0  0
  9 10  1  0  0  0
 10  1  1  0  0  0
  1  2  2  0  0  0
  2  3  1  0  0  0
  3 23  1  0  0  0
 23 24  2  0  0  0
 23 25  2  0  0  0
 23 26  1  0  0  0
 26 28  1  0  0  0
 28 29  1  0  0  0
 29 30  1  0  0  0
 30 31  1  0  0  0
 30 32  1  0  0  0
 30 33  1  0  0  0
  3  4  2  0  0  0
  4  5  1  0  0  0
  5  6  2  0  0  0
  6  7  1  0  0  0
 10 11  2  0  0  0
 11 12  1  0  0  0
 12 13  2  0  0  0
 13 14  1  0  0  0
 20 21  1  0  0  0
 21 22  1  0  0  0
 22 18  2  0  0  0
 13  8  1  0  0  0
  6  1  1  0  0  0
 26 27  1  0  0  0
 33 34  1  0  0  0
 14 15  1  0  0  0
 14 16  1  0  0  0
M  END
> <minimizedAffinity>
18.20111

> <CNNscore>
0.5432111025

> <CNNaffinity>
6.5763845444

> <CNN_VS>
3.5723650455

> <CNNaffinity_variance>
0.2810420096

$$$$
[H]/C(=C(/[H])c1c([H])c(OC([H])([H])[H])c([H])c(OC([H])([H])[H])c1[H])c1c([H])c([H])c(OC([H])([H])C([H])([H])[H])c([H])c1[H]


 21 22  0  0  0  0  0  0  0  0999 V2000
   25.6331    9.4282   56.4768 C   0  0  0  0  0  0  0  0  0  0  0  0
   26.9261    9.2201   56.5601 C   0  0  0  0  0  0  0  0  0  0  0  0
   23.2925    8.1102   53.1612 C   0  0  0  0  0  0  0  0  0  0  0  0
   24.5834    7.6735   53.3466 C   0  0  0  0  0  0  0  0  0  0  0  0
   25.3267    8.1148   54.4315 C   0  0  0  0  0  0  0  0  0  0  0  0
   24.8068    8.9947   55.3512 C   0  0  0  0  0  0  0  0  0  0  0  0
   23.5180    9.4312   55.1669 C   0  0  0  0  0  0  0  0  0  0  0  0
   22.7656    8.9906   54.0771 C   0  0  0  0  0  0  0  0  0  0  0  0
   22.5086    7.6966   52.0902 O   0  0  0  0  0  0  0  0  0  0  0  0
   20.5718    7.2070   53.4208 C   0  0  0  0  0  0  0  0  0  0  0  0
   21.1129    7.8656   52.1676 C   0  0  0  0  0  0  0  0  0  0  0  0
   27.7168    9.6664   57.6969 C   0  0  0  0  0  0  0  0  0  0  0  0
   27.7132   11.0319   57.9973 C   0  0  0  0  0  0  0  0  0  0  0  0
   28.4225   11.5665   59.0471 C   0  0  0  0  0  0  0  0  0  0  0  0
   29.1726   10.7277   59.8435 C   0  0  0  0  0  0  0  0  0  0  0  0
   29.1783    9.3861   59.5512 C   0  0  0  0  0  0  0  0  0  0  0  0
   28.4627    8.8477   58.4922 C   0  0  0  0  0  0  0  0  0  0  0  0
   28.3448   12.9321   59.2502 O   0  0  0  0  0  0  0  0  0  0  0  0
   28.8686   13.6056   60.3622 C   0  0  0  0  0  0  0  0  0  0  0  0
   29.9413    8.5590   60.3672 O   0  0  0  0  0  0  0  0  0  0  0  0
   29.8360    7.1647   60.3939 C   0  0  0  0  0  0  0  0  0  0  0  0
 10 11  1  0  0  0
 11  9  1  0  0  0
  9  3  1  0  0  0
  3  4  2  0  0  0
  4  5  1  0  0  0
  5  6  2  0  0  0
  6  1  1  0  0  0
  1  2  2  0  0  0
  2 12  1  0  0  0
 12 13  2  0  0  0
 13 14  1  0  0  0
 14 18  1  0  0  0
 18 19  1  0  0  0
 14 15  2  0  0  0
 15 16  1  0  0  0
 16 20  1  0  0  0
 20 21  1  0  0  0
 16 17  2  0  0  0
  6  7  1  0  0  0
  7  8  2  0  0  0
  8  3  1  0  0  0
 17 12  1  0  0  0
M  END
> <minimizedAffinity>
2.82418

> <CNNscore>
0.6718620062

> <CNNaffinity>
5.0674157143

> <CNN_VS>
3.4046041965

> <CNNaffinity_variance>
0.1288636476

$$$$
[H]/C(=C(/[H])c1c([H])c(OC([H])([H])[H])c([H])c(OC([H])([H])[H])c1[H])c1c([H])c([H])c(OC([H])([H])C([H])([H])[H])c([H])c1[H]


 21 22  0  0  0  0  0  0  0  0999 V2000
   24.9022    8.5258   54.2307 C   0  0  0  0  0  0  0  0  0  0  0  0
   23.6438    8.4832   54.6005 C   0  0  0  0  0  0  0  0  0  0  0  0
   28.0904    9.2502   56.9729 C   0  0  0  0  0  0  0  0  0  0  0  0
   26.7808    9.4945   57.3148 C   0  0  0  0  0  0  0  0  0  0  0  0
   25.7597    9.2519   56.4079 C   0  0  0  0  0  0  0  0  0  0  0  0
   26.0154    8.7639   55.1482 C   0  0  0  0  0  0  0  0  0  0  0  0
   27.3226    8.5197   54.8060 C   0  0  0  0  0  0  0  0  0  0  0  0
   28.3541    8.7619   55.7145 C   0  0  0  0  0  0  0  0  0  0  0  0
   29.1474    9.4773   57.8469 O   0  0  0  0  0  0  0  0  0  0  0  0
   29.3536   10.8541   59.8023 C   0  0  0  0  0  0  0  0  0  0  0  0
   28.8835    9.5322   59.2288 C   0  0  0  0  0  0  0  0  0  0  0  0
   22.5612    8.2435   53.6584 C   0  0  0  0  0  0  0  0  0  0  0  0
   22.1978    9.2887   52.8038 C   0  0  0  0  0  0  0  0  0  0  0  0
   21.1905    9.1762   51.8744 C   0  0  0  0  0  0  0  0  0  0  0  0
   20.5036    7.9852   51.7734 C   0  0  0  0  0  0  0  0  0  0  0  0
   20.8582    6.9567   52.6113 C   0  0  0  0  0  0  0  0  0  0  0  0
   21.8742    7.0710   53.5484 C   0  0  0  0  0  0  0  0  0  0  0  0
   20.9172   10.2758   51.0819 O   0  0  0  0  0  0  0  0  0  0  0  0
   21.4113   11.5674   51.3094 C   0  0  0  0  0  0  0  0  0  0  0  0
   20.1525    5.7651   52.4921 O   0  0  0  0  0  0  0  0  0  0  0  0
   19.8665    4.9089   53.5604 C   0  0  0  0  0  0  0  0  0  0  0  0
 10 11  1  0  0  0
 11  9  1  0  0  0
  9  3  1  0  0  0
  3  4  2  0  0  0
  4  5  1  0  0  0
  5  6  2  0  0  0
  6  1  1  0  0  0
  1  2  2  0  0  0
  2 12  1  0  0  0
 12 13  2  0  0  0
 13 14  1  0  0  0
 14 18  1  0  0  0
 18 19  1  0  0  0
 14 15  2  0  0  0
 15 16  1  0  0  0
 16 20  1  0  0  0
 20 21  1  0  0  0
 16 17  2  0  0  0
  6  7  1  0  0  0
  7  8  2  0  0  0
  8  3  1  0  0  0
 17 12  1  0  0  0
M  END
> <minimizedAffinity>
6.39468

> <CNNscore>
0.6423223615

> <CNNaffinity>
5.3812303543

> <CNN_VS>
3.4564845562

> <CNNaffinity_variance>
0.0630555004

$$$$
[H]/C(=C(/[H])c1c([H])c(OC([H])([H])[H])c([H])c(OC([H])([H])[H])c1[H])c1c([H])c([H])c(OC([H])([H])C([H])([H])[H])c([H])c1[H]


 21 22  0  0  0  0  0  0  0  0999 V2000
   25.7279    9.4875   56.3622 C   0  0  0  0  0  0  0  0  0  0  0  0
   26.9610    9.1285   56.6318 C   0  0  0  0  0  0  0  0  0  0  0  0
   23.2708    7.7581   53.3322 C   0  0  0  0  0  0  0  0  0  0  0  0
   22.7373    8.5461   54.3252 C   0  0  0  0  0  0  0  0  0  0  0  0
   23.5544    9.0985   55.3006 C   0  0  0  0  0  0  0  0  0  0  0  0
   24.9121    8.8815   55.3111 C   0  0  0  0  0  0  0  0  0  0  0  0
   25.4455    8.0949   54.3201 C   0  0  0  0  0  0  0  0  0  0  0  0
   24.6281    7.5365   53.3362 C   0  0  0  0  0  0  0  0  0  0  0  0
   22.4931    7.1829   52.3337 O   0  0  0  0  0  0  0  0  0  0  0  0
   20.9839    8.9321   51.6823 C   0  0  0  0  0  0  0  0  0  0  0  0
   21.1323    7.5340   52.2486 C   0  0  0  0  0  0  0  0  0  0  0  0
   27.7433    9.7549   57.6866 C   0  0  0  0  0  0  0  0  0  0  0  0
   28.4594    8.9202   58.5498 C   0  0  0  0  0  0  0  0  0  0  0  0
   29.2319    9.4005   59.5812 C   0  0  0  0  0  0  0  0  0  0  0  0
   29.3098   10.7623   59.7805 C   0  0  0  0  0  0  0  0  0  0  0  0
   28.6077   11.5848   58.9343 C   0  0  0  0  0  0  0  0  0  0  0  0
   27.8289   11.0997   57.8944 C   0  0  0  0  0  0  0  0  0  0  0  0
   29.8967    8.4816   60.3723 O   0  0  0  0  0  0  0  0  0  0  0  0
   29.6327    7.1054   60.3924 C   0  0  0  0  0  0  0  0  0  0  0  0
   28.7008   12.9543   59.1536 O   0  0  0  0  0  0  0  0  0  0  0  0
   28.4970   13.5690   60.3931 C   0  0  0  0  0  0  0  0  0  0  0  0
 10 11  1  0  0  0
 11  9  1  0  0  0
  9  3  1  0  0  0
  3  4  2  0  0  0
  4  5  1  0  0  0
  5  6  2  0  0  0
  6  1  1  0  0  0
  1  2  2  0  0  0
  2 12  1  0  0  0
 12 13  2  0  0  0
 13 14  1  0  0  0
 14 18  1  0  0  0
 18 19  1  0  0  0
 14 15  2  0  0  0
 15 16  1  0  0  0
 16 20  1  0  0  0
 20 21  1  0  0  0
 16 17  2  0  0  0
  6  7  1  0  0  0
  7  8  2  0  0  0
  8  3  1  0  0  0
 17 12  1  0  0  0
M  END
> <minimizedAffinity>
2.41309

> <CNNscore>
0.6350265145

> <CNNaffinity>
5.0065336227

> <CNN_VS>
3.1792817116

> <CNNaffinity_variance>
0.1142047495

$$$$
[H]/C(=C(/[H])c1c([H])c(OC([H])([H])[H])c([H])c(OC([H])([H])[H])c1[H])c1c([H])c([H])c(OC([H])([H])C([H])([H])[H])c([H])c1[H]


 21 22  0  0  0  0  0  0  0  0999 V2000
   25.1135    8.4385   54.4942 C   0  0  0  0  0  0  0  0  0  0  0  0
   23.8504    8.4073   54.8485 C   0  0  0  0  0  0  0  0  0  0  0  0
   28.2316    9.5924   57.1692 C   0  0  0  0  0  0  0  0  0  0  0  0
   26.9064    9.7517   57.5010 C   0  0  0  0  0  0  0  0  0  0  0  0
   25.9086    9.3698   56.6163 C   0  0  0  0  0  0  0  0  0  0  0  0
   26.2035    8.8242   55.3892 C   0  0  0  0  0  0  0  0  0  0  0  0
   27.5263    8.6648   55.0571 C   0  0  0  0  0  0  0  0  0  0  0  0
   28.5344    9.0473   55.9433 C   0  0  0  0  0  0  0  0  0  0  0  0
   29.2664    9.9598   58.0217 O   0  0  0  0  0  0  0  0  0  0  0  0
   29.5410   10.3054   60.3811 C   0  0  0  0  0  0  0  0  0  0  0  0
   28.9902   10.8489   59.0779 C   0  0  0  0  0  0  0  0  0  0  0  0
   22.7915    8.0179   53.9297 C   0  0  0  0  0  0  0  0  0  0  0  0
   22.2819    6.7203   54.0351 C   0  0  0  0  0  0  0  0  0  0  0  0
   21.2815    6.2434   53.2209 C   0  0  0  0  0  0  0  0  0  0  0  0
   20.7519    7.0734   52.2559 C   0  0  0  0  0  0  0  0  0  0  0  0
   21.2503    8.3485   52.1498 C   0  0  0  0  0  0  0  0  0  0  0  0
   22.2592    8.8286   52.9714 C   0  0  0  0  0  0  0  0  0  0  0  0
   20.8554    4.9424   53.4154 O   0  0  0  0  0  0  0  0  0  0  0  0
   19.5206    4.5205   53.3494 C   0  0  0  0  0  0  0  0  0  0  0  0
   20.7017    9.1680   51.1702 O   0  0  0  0  0  0  0  0  0  0  0  0
   20.9396   10.5424   51.0692 C   0  0  0  0  0  0  0  0  0  0  0  0
 10 11  1  0  0  0
 11  9  1  0  0  0
  9  3  1  0  0  0
  3  4  2  0  0  0
  4  5  1  0  0  0
  5  6  2  0  0  0
  6  1  1  0  0  0
  1  2  2  0  0  0
  2 12  1  0  0  0
 12 13  2  0  0  0
 13 14  1  0  0  0
 14 18  1  0  0  0
 18 19  1  0  0  0
 14 15  2  0  0  0
 15 16  1  0  0  0
 16 20  1  0  0  0
 20 21  1  0  0  0
 16 17  2  0  0  0
  6  7  1  0  0  0
  7  8  2  0  0  0
  8  3  1  0  0  0
 17 12  1  0  0  0
M  END
> <minimizedAffinity>
7.50568

> <CNNscore>
0.6090976596

> <CNNaffinity>
5.4796857834

> <CNN_VS>
3.3376638889

> <CNNaffinity_variance>
0.1283782423

$$$$
[H]/C(=C(/[H])c1c([H])c(OC([H])([H])[H])c([H])c(OC([H])([H])[H])c1[H])c1c([H])c([H])c(OC([H])([H])C([H])([H])[H])c([H])c1[H]


 21 22  0  0  0  0  0  0  0  0999 V2000
   24.6778    9.2839   55.7472 C   0  0  0  0  0  0  0  0  0  0  0  0
   25.9413    8.9295   55.7470 C   0  0  0  0  0  0  0  0  0  0  0  0
   21.9602    8.1350   52.6644 C   0  0  0  0  0  0  0  0  0  0  0  0
   23.2978    7.8228   52.5944 C   0  0  0  0  0  0  0  0  0  0  0  0
   24.1639    8.2061   53.6079 C   0  0  0  0  0  0  0  0  0  0  0  0
   23.7229    8.9041   54.7073 C   0  0  0  0  0  0  0  0  0  0  0  0
   22.3875    9.2162   54.7779 C   0  0  0  0  0  0  0  0  0  0  0  0
   21.5115    8.8331   53.7612 C   0  0  0  0  0  0  0  0  0  0  0  0
   21.0539    7.7728   51.6744 O   0  0  0  0  0  0  0  0  0  0  0  0
   21.0140   10.1402   51.2799 C   0  0  0  0  0  0  0  0  0  0  0  0
   20.4315    8.7873   50.9222 C   0  0  0  0  0  0  0  0  0  0  0  0
   26.8634    9.3266   56.8001 C   0  0  0  0  0  0  0  0  0  0  0  0
   26.8557   10.6657   57.2022 C   0  0  0  0  0  0  0  0  0  0  0  0
   27.6825   11.1535   58.1868 C   0  0  0  0  0  0  0  0  0  0  0  0
   28.5604   10.2926   58.8102 C   0  0  0  0  0  0  0  0  0  0  0  0
   28.5704    8.9768   58.4176 C   0  0  0  0  0  0  0  0  0  0  0  0
   27.7363    8.4857   57.4245 C   0  0  0  0  0  0  0  0  0  0  0  0
   27.5884   12.4964   58.5026 O   0  0  0  0  0  0  0  0  0  0  0  0
   28.6731   13.3140   58.8480 C   0  0  0  0  0  0  0  0  0  0  0  0
   29.4634    8.1267   59.0596 O   0  0  0  0  0  0  0  0  0  0  0  0
   29.9376    8.3198   60.3610 C   0  0  0  0  0  0  0  0  0  0  0  0
 10 11  1  0  0  0
 11  9  1  0  0  0
  9  3  1  0  0  0
  3  4  2  0  0  0
  4  5  1  0  0  0
  5  6  2  0  0  0
  6  1  1  0  0  0
  1  2  2  0  0  0
  2 12  1  0  0  0
 12 13  2  0  0  0
 13 14  1  0  0  0
 14 18  1  0  0  0
 18 19  1  0  0  0
 14 15  2  0  0  0
 15 16  1  0  0  0
 16 20  1  0  0  0
 20 21  1  0  0  0
 16 17  2  0  0  0
  6  7  1  0  0  0
  7  8  2  0  0  0
  8  3  1  0  0  0
 17 12  1  0  0  0
M  END
> <minimizedAffinity>
11.78093

> <CNNscore>
0.5922033191

> <CNNaffinity>
5.2412219048

> <CNN_VS>
3.1038689613

> <CNNaffinity_variance>
0.1172875389

$$$$
[H]/C(=C(/[H])c1c([H])c(OC([H])([H])[H])c([H])c(OC([H])([H])[H])c1[H])c1c([H])c([H])c(OC([H])([H])C([H])([H])[H])c([H])c1[H]


 21 22  0  0  0  0  0  0  0  0999 V2000
   26.4628    8.9803   56.2083 C   0  0  0  0  0  0  0  0  0  0  0  0
   25.2507    9.4286   55.9805 C   0  0  0  0  0  0  0  0  0  0  0  0
   29.0844   10.5149   59.2052 C   0  0  0  0  0  0  0  0  0  0  0  0
   28.6064    9.2266   59.2618 C   0  0  0  0  0  0  0  0  0  0  0  0
   27.7551    8.7479   58.2768 C   0  0  0  0  0  0  0  0  0  0  0  0
   27.3618    9.5341   57.2196 C   0  0  0  0  0  0  0  0  0  0  0  0
   27.8385   10.8206   57.1624 C   0  0  0  0  0  0  0  0  0  0  0  0
   28.6954   11.3075   58.1507 C   0  0  0  0  0  0  0  0  0  0  0  0
   29.9392   11.0394   60.1679 O   0  0  0  0  0  0  0  0  0  0  0  0
   28.5136   12.9574   60.3933 C   0  0  0  0  0  0  0  0  0  0  0  0
   29.9343   12.4293   60.3928 C   0  0  0  0  0  0  0  0  0  0  0  0
   24.3834    8.8519   54.9646 C   0  0  0  0  0  0  0  0  0  0  0  0
   24.7940    7.6619   54.3564 C   0  0  0  0  0  0  0  0  0  0  0  0
   24.0559    7.0275   53.3849 C   0  0  0  0  0  0  0  0  0  0  0  0
   22.8578    7.5812   52.9868 C   0  0  0  0  0  0  0  0  0  0  0  0
   22.4517    8.7500   53.5823 C   0  0  0  0  0  0  0  0  0  0  0  0
   23.1967    9.3892   54.5619 C   0  0  0  0  0  0  0  0  0  0  0  0
   24.5603    5.8550   52.8531 O   0  0  0  0  0  0  0  0  0  0  0  0
   24.1767    4.5671   53.2511 C   0  0  0  0  0  0  0  0  0  0  0  0
   21.2407    9.2905   53.1657 O   0  0  0  0  0  0  0  0  0  0  0  0
   21.0573    9.9762   51.9607 C   0  0  0  0  0  0  0  0  0  0  0  0
 10 11  1  0  0  0
 11  9  1  0  0  0
  9  3  1  0  0  0
  3  4  2  0  0  0
  4  5  1  0  0  0
  5  6  2  0  0  0
  6  1  1  0  0  0
  1  2  2  0  0  0
  2 12  1  0  0  0
 12 13  2  0  0  0
 13 14  1  0  0  0
 14 18  1  0  0  0
 18 19  1  0  0  0
 14 15  2  0  0  0
 15 16  1  0  0  0
 16 20  1  0  0  0
 20 21  1  0  0  0
 16 17  2  0  0  0
  6  7  1  0  0  0
  7  8  2  0  0  0
  8  3  1  0  0  0
 17 12  1  0  0  0
M  END
> <minimizedAffinity>
6.44968

> <CNNscore>
0.5862155557

> <CNNaffinity>
4.8626012802

> <CNN_VS>
2.8505325317

> <CNNaffinity_variance>
0.1193126440

$$$$
[H]/C(=C(/[H])c1c([H])c(OC([H])([H])[H])c([H])c(OC([H])([H])[H])c1[H])c1c([H])c([H])c(OC([H])([H])C([H])([H])[H])c([H])c1[H]


 21 22  0  0  0  0  0  0  0  0999 V2000
   20.3710    7.6168   53.7101 C   0  0  0  0  0  0  0  0  0  0  0  0
   19.7723    6.8126   52.8635 C   0  0  0  0  0  0  0  0  0  0  0  0
   21.9554   11.4603   52.7477 C   0  0  0  0  0  0  0  0  0  0  0  0
   21.7228   11.0862   54.0505 C   0  0  0  0  0  0  0  0  0  0  0  0
   21.2071    9.8317   54.3411 C   0  0  0  0  0  0  0  0  0  0  0  0
   20.9128    8.9260   53.3493 C   0  0  0  0  0  0  0  0  0  0  0  0
   21.1448    9.2988   52.0482 C   0  0  0  0  0  0  0  0  0  0  0  0
   21.6634   10.5597   51.7501 C   0  0  0  0  0  0  0  0  0  0  0  0
   22.4708   12.7057   52.4069 O   0  0  0  0  0  0  0  0  0  0  0  0
   21.1211   12.6288   50.4234 C   0  0  0  0  0  0  0  0  0  0  0  0
   21.7659   13.5003   51.4827 C   0  0  0  0  0  0  0  0  0  0  0  0
   19.2449    5.5155   53.2590 C   0  0  0  0  0  0  0  0  0  0  0  0
   20.1012    4.4130   53.1821 C   0  0  0  0  0  0  0  0  0  0  0  0
   19.7119    3.1406   53.5295 C   0  0  0  0  0  0  0  0  0  0  0  0
   18.4235    2.9333   53.9739 C   0  0  0  0  0  0  0  0  0  0  0  0
   17.5800    4.0141   54.0506 C   0  0  0  0  0  0  0  0  0  0  0  0
   17.9734    5.2970   53.7001 C   0  0  0  0  0  0  0  0  0  0  0  0
   20.6438    2.1257   53.4132 O   0  0  0  0  0  0  0  0  0  0  0  0
   20.8110    1.3207   52.2782 C   0  0  0  0  0  0  0  0  0  0  0  0
   16.2857    3.7820   54.5013 O   0  0  0  0  0  0  0  0  0  0  0  0
   15.1502    3.8133   53.6855 C   0  0  0  0  0  0  0  0  0  0  0  0
 10 11  1  0  0  0
 11  9  1  0  0  0
  9  3  1  0  0  0
  3  4  2  0  0  0
  4  5  1  0  0  0
  5  6  2  0  0  0
  6  1  1  0  0  0
  1  2  2  0  0  0
  2 12  1  0  0  0
 12 13  2  0  0  0
 13 14  1  0  0  0
 14 18  1  0  0  0
 18 19  1  0  0  0
 14 15  2  0  0  0
 15 16  1  0  0  0
 16 20  1  0  0  0
 20 21  1  0  0  0
 16 17  2  0  0  0
  6  7  1  0  0  0
  7  8  2  0  0  0
  8  3  1  0  0  0
 17 12  1  0  0  0
M  END
> <minimizedAffinity>
24.53506

> <CNNscore>
0.5384651423

> <CNNaffinity>
5.4338631630

> <CNN_VS>
2.9259459972

> <CNNaffinity_variance>
0.2155942619

$$$$
[H]/C(=C(/[H])c1c([H])c(OC([H])([H])[H])c([H])c(OC([H])([H])[H])c1[H])c1c([H])c([H])c(OC([H])([H])C([H])([H])[H])c([H])c1[H]


 21 22  0  0  0  0  0  0  0  0999 V2000
   22.4401    5.7734   54.0770 C   0  0  0  0  0  0  0  0  0  0  0  0
   21.2522    6.1264   53.6454 C   0  0  0  0  0  0  0  0  0  0  0  0
   25.7105    8.4942   54.4104 C   0  0  0  0  0  0  0  0  0  0  0  0
   24.4981    8.7537   55.0056 C   0  0  0  0  0  0  0  0  0  0  0  0
   23.4480    7.8554   54.8845 C   0  0  0  0  0  0  0  0  0  0  0  0
   23.5784    6.6859   54.1734 C   0  0  0  0  0  0  0  0  0  0  0  0
   24.7886    6.4261   53.5788 C   0  0  0  0  0  0  0  0  0  0  0  0
   25.8485    7.3263   53.6973 C   0  0  0  0  0  0  0  0  0  0  0  0
   26.7916    9.3633   54.5035 O   0  0  0  0  0  0  0  0  0  0  0  0
   27.8778    9.3655   56.6440 C   0  0  0  0  0  0  0  0  0  0  0  0
   27.9444    8.9386   55.1912 C   0  0  0  0  0  0  0  0  0  0  0  0
   20.1417    5.1900   53.5631 C   0  0  0  0  0  0  0  0  0  0  0  0
   20.4139    3.8944   53.1135 C   0  0  0  0  0  0  0  0  0  0  0  0
   19.4439    2.9267   52.9956 C   0  0  0  0  0  0  0  0  0  0  0  0
   18.1440    3.2381   53.3328 C   0  0  0  0  0  0  0  0  0  0  0  0
   17.8734    4.5098   53.7747 C   0  0  0  0  0  0  0  0  0  0  0  0
   18.8522    5.4851   53.8933 C   0  0  0  0  0  0  0  0  0  0  0  0
   19.8282    1.6790   52.5399 O   0  0  0  0  0  0  0  0  0  0  0  0
   21.0893    1.1049   52.7507 C   0  0  0  0  0  0  0  0  0  0  0  0
   16.5562    4.8017   54.1092 O   0  0  0  0  0  0  0  0  0  0  0  0
   15.4741    3.9505   53.8636 C   0  0  0  0  0  0  0  0  0  0  0  0
 10 11  1  0  0  0
 11  9  1  0  0  0
  9  3  1  0  0  0
  3  4  2  0  0  0
  4  5  1  0  0  0
  5  6  2  0  0  0
  6  1  1  0  0  0
  1  2  2  0  0  0
  2 12  1  0  0  0
 12 13  2  0  0  0
 13 14  1  0  0  0
 14 18  1  0  0  0
 18 19  1  0  0  0
 14 15  2  0  0  0
 15 16  1  0  0  0
 16 20  1  0  0  0
 20 21  1  0  0  0
 16 17  2  0  0  0
  6  7  1  0  0  0
  7  8  2  0  0  0
  8  3  1  0  0  0
 17 12  1  0  0  0
M  END
> <minimizedAffinity>
20.45667

> <CNNscore>
0.5329509377

> <CNNaffinity>
5.4150338173

> <CNN_VS>
2.8859474659

> <CNNaffinity_variance>
0.2314541638

$$$$
[H]/C(=C(/[H])c1c([H])c(OC([H])([H])[H])c([H])c(OC([H])([H])[H])c1[H])c1c([H])c([H])c(OC([H])([H])C([H])([H])[H])c([H])c1[H]


 21 22  0  0  0  0  0  0  0  0999 V2000
   22.3381    5.6529   54.0811 C   0  0  0  0  0  0  0  0  0  0  0  0
   21.0578    5.9060   53.9439 C   0  0  0  0  0  0  0  0  0  0  0  0
   25.2150    8.6892   54.9259 C   0  0  0  0  0  0  0  0  0  0  0  0
   23.8722    8.8934   55.1419 C   0  0  0  0  0  0  0  0  0  0  0  0
   22.9539    7.8926   54.8603 C   0  0  0  0  0  0  0  0  0  0  0  0
   23.3470    6.6735   54.3607 C   0  0  0  0  0  0  0  0  0  0  0  0
   24.6876    6.4687   54.1448 C   0  0  0  0  0  0  0  0  0  0  0  0
   25.6159    7.4721   54.4263 C   0  0  0  0  0  0  0  0  0  0  0  0
   26.1727    9.6610   55.1926 O   0  0  0  0  0  0  0  0  0  0  0  0
   28.0761    8.3778   54.4911 C   0  0  0  0  0  0  0  0  0  0  0  0
   27.4662    9.2517   55.5689 C   0  0  0  0  0  0  0  0  0  0  0  0
   20.0816    4.8636   53.6657 C   0  0  0  0  0  0  0  0  0  0  0  0
   18.7398    5.1352   53.9491 C   0  0  0  0  0  0  0  0  0  0  0  0
   17.7319    4.2263   53.7271 C   0  0  0  0  0  0  0  0  0  0  0  0
   18.0485    2.9913   53.2028 C   0  0  0  0  0  0  0  0  0  0  0  0
   19.3656    2.7215   52.9233 C   0  0  0  0  0  0  0  0  0  0  0  0
   20.3814    3.6386   53.1474 C   0  0  0  0  0  0  0  0  0  0  0  0
   16.4402    4.6036   54.0454 O   0  0  0  0  0  0  0  0  0  0  0  0
   15.2995    3.8232   53.8129 C   0  0  0  0  0  0  0  0  0  0  0  0
   19.6619    1.4703   52.3952 O   0  0  0  0  0  0  0  0  0  0  0  0
   20.7957    0.7228   52.7295 C   0  0  0  0  0  0  0  0  0  0  0  0
 10 11  1  0  0  0
 11  9  1  0  0  0
  9  3  1  0  0  0
  3  4  2  0  0  0
  4  5  1  0  0  0
  5  6  2  0  0  0
  6  1  1  0  0  0
  1  2  2  0  0  0
  2 12  1  0  0  0
 12 13  2  0  0  0
 13 14  1  0  0  0
 14 18  1  0  0  0
 18 19  1  0  0  0
 14 15  2  0  0  0
 15 16  1  0  0  0
 16 20  1  0  0  0
 20 21  1  0  0  0
 16 17  2  0  0  0
  6  7  1  0  0  0
  7  8  2  0  0  0
  8  3  1  0  0  0
 17 12  1  0  0  0
M  END
> <minimizedAffinity>
22.20093

> <CNNscore>
0.5311812758

> <CNNaffinity>
5.3704681396

> <CNN_VS>
2.8526921272

> <CNNaffinity_variance>
0.1995446384

$$$$
[H]/C(C(=O)N(C([H])([H])[H])C([H])([H])c1sc2c([H])c([H])c([H])c([H])c2c1C([H])([H])[H])=C(/[H])c1c([H])nc2c(c1[H])C([H])([H])N([H])C([H])([H])C([H])([H])N2[H]


 30 33  0  0  0  0  0  0  0  0999 V2000
   23.5401    7.5064   54.7814 N   0  0  0  0  0  0  0  0  0  0  0  0
   23.8820    6.2933   55.4732 C   0  0  0  0  0  0  0  0  0  0  0  0
   24.0531    8.7550   55.3677 C   0  0  0  0  0  0  0  0  0  0  0  0
   23.5830    9.8577   55.0880 O   0  0  0  0  0  0  0  0  0  0  0  0
   25.2005    8.6441   56.2607 C   0  0  0  0  0  0  0  0  0  0  0  0
   25.9170    9.7695   56.4117 C   0  0  0  0  0  0  0  0  0  0  0  0
   27.1151    9.8202   57.2703 C   0  0  0  0  0  0  0  0  0  0  0  0
   27.7251    8.6437   57.6442 C   0  0  0  0  0  0  0  0  0  0  0  0
   28.7440    8.5973   58.5668 N   0  0  0  0  0  0  0  0  0  0  0  0
   29.1472    9.7552   59.1153 C   0  0  0  0  0  0  0  0  0  0  0  0
   28.5499   10.9427   58.7384 C   0  0  0  0  0  0  0  0  0  0  0  0
   27.5325   10.9928   57.8196 C   0  0  0  0  0  0  0  0  0  0  0  0
   28.9519   12.2836   59.2778 C   0  0  0  0  0  0  0  0  0  0  0  0
   28.6653   12.1916   60.6821 N   0  0  0  0  0  0  0  0  0  0  0  0
   29.6716   11.6654   61.5099 C   0  0  0  0  0  0  0  0  0  0  0  0
   30.5399   10.5650   61.1117 C   0  0  0  0  0  0  0  0  0  0  0  0
   30.1427    9.6051   60.1511 N   0  0  0  0  0  0  0  0  0  0  0  0
   27.7232   11.7420   60.7720 H   0  0  0  0  0  0  0  0  0  0  0  0
   30.5764    8.6595   60.1901 H   0  0  0  0  0  0  0  0  0  0  0  0
   22.7311    7.6315   53.6836 C   0  0  0  0  0  0  0  0  0  0  0  0
   21.4049   10.0300   55.2739 C   0  0  0  0  0  0  0  0  0  0  0  0
   21.6337    9.9830   53.7447 C   0  0  0  0  0  0  0  0  0  0  0  0
   21.9875    8.7918   53.2011 C   0  0  0  0  0  0  0  0  0  0  0  0
   21.9388    9.2126   51.4615 S   0  0  0  0  0  0  0  0  0  0  0  0
   21.5013   10.8501   51.5969 C   0  0  0  0  0  0  0  0  0  0  0  0
   21.3263   11.8941   50.6722 C   0  0  0  0  0  0  0  0  0  0  0  0
   21.0232   13.1691   51.0761 C   0  0  0  0  0  0  0  0  0  0  0  0
   20.9016   13.3441   52.4436 C   0  0  0  0  0  0  0  0  0  0  0  0
   21.0678   12.3554   53.3320 C   0  0  0  0  0  0  0  0  0  0  0  0
   21.3884   11.0349   52.9393 C   0  0  0  0  0  0  0  0  0  0  0  0
 21 22  1  0  0  0
 22 23  2  0  0  0
 23 20  1  0  0  0
 20  1  1  0  0  0
  1  2  1  0  0  0
  1  3  1  0  0  0
  3  4  2  0  0  0
  3  5  1  0  0  0
  5  6  2  0  0  0
  6  7  1  0  0  0
  7  8  2  0  0  0
  8  9  1  0  0  0
  9 10  2  0  0  0
 10 11  1  0  0  0
 11 12  2  0  0  0
 11 13  1  0  0  0
 13 14  1  0  0  0
 14 15  1  0  0  0
 15 16  1  0  0  0
 16 17  1  0  0  0
 23 24  1  0  0  0
 24 25  1  0  0  0
 25 26  2  0  0  0
 26 27  1  0  0  0
 27 28  2  0  0  0
 28 29  1  0  0  0
 29 30  2  0  0  0
 30 22  1  0  0  0
 12  7  1  0  0  0
 30 25  1  0  0  0
 17 10  1  0  0  0
 14 18  1  0  0  0
 17 19  1  0  0  0
M  END
> <minimizedAffinity>
22.63806

> <CNNscore>
0.6184732914

> <CNNaffinity>
5.8959078789

> <CNN_VS>
3.6464614868

> <CNNaffinity_variance>
0.0743588060

$$$$
[H]/C(C(=O)N(C([H])([H])[H])C([H])([H])c1sc2c([H])c([H])c([H])c([H])c2c1C([H])([H])[H])=C(/[H])c1c([H])nc2c(c1[H])C([H])([H])N([H])C([H])([H])C([H])([H])N2[H]


 30 33  0  0  0  0  0  0  0  0999 V2000
   22.8985    8.7956   54.5322 N   0  0  0  0  0  0  0  0  0  0  0  0
   23.8019    7.6771   54.5418 C   0  0  0  0  0  0  0  0  0  0  0  0
   22.8688    9.6168   55.7530 C   0  0  0  0  0  0  0  0  0  0  0  0
   21.9392   10.3810   56.0121 O   0  0  0  0  0  0  0  0  0  0  0  0
   24.0303    9.5391   56.6312 C   0  0  0  0  0  0  0  0  0  0  0  0
   25.1434   10.1221   56.1580 C   0  0  0  0  0  0  0  0  0  0  0  0
   26.4069   10.1195   56.9187 C   0  0  0  0  0  0  0  0  0  0  0  0
   27.0034    8.9177   57.2284 C   0  0  0  0  0  0  0  0  0  0  0  0
   28.0901    8.8232   58.0660 N   0  0  0  0  0  0  0  0  0  0  0  0
   28.5757    9.9586   58.5945 C   0  0  0  0  0  0  0  0  0  0  0  0
   27.9922   11.1710   58.2808 C   0  0  0  0  0  0  0  0  0  0  0  0
   26.9073   11.2691   57.4469 C   0  0  0  0  0  0  0  0  0  0  0  0
   28.4823   12.4894   58.8026 C   0  0  0  0  0  0  0  0  0  0  0  0
   28.3050   12.3864   60.2240 N   0  0  0  0  0  0  0  0  0  0  0  0
   29.3550   11.8143   60.9624 C   0  0  0  0  0  0  0  0  0  0  0  0
   30.1500   10.6912   60.4828 C   0  0  0  0  0  0  0  0  0  0  0  0
   29.6446    9.7596   59.5455 N   0  0  0  0  0  0  0  0  0  0  0  0
   27.3580   11.9676   60.3836 H   0  0  0  0  0  0  0  0  0  0  0  0
   30.0467    8.7994   59.5383 H   0  0  0  0  0  0  0  0  0  0  0  0
   22.0135    9.1341   53.5435 C   0  0  0  0  0  0  0  0  0  0  0  0
   20.9864    9.4817   50.5660 C   0  0  0  0  0  0  0  0  0  0  0  0
   21.3311   10.6346   51.5383 C   0  0  0  0  0  0  0  0  0  0  0  0
   21.9835   10.3136   52.6833 C   0  0  0  0  0  0  0  0  0  0  0  0
   22.3049   11.9511   53.3321 S   0  0  0  0  0  0  0  0  0  0  0  0
   21.5652   12.8712   52.1084 C   0  0  0  0  0  0  0  0  0  0  0  0
   21.3364   14.2455   51.9228 C   0  0  0  0  0  0  0  0  0  0  0  0
   20.6396   14.7187   50.8405 C   0  0  0  0  0  0  0  0  0  0  0  0
   20.1895   13.7528   49.9575 C   0  0  0  0  0  0  0  0  0  0  0  0
   20.4018   12.4411   50.1271 C   0  0  0  0  0  0  0  0  0  0  0  0
   21.1105   11.9296   51.2392 C   0  0  0  0  0  0  0  0  0  0  0  0
 21 22  1  0  0  0
 22 23  2  0  0  0
 23 20  1  0  0  0
 20  1  1  0  0  0
  1  2  1  0  0  0
  1  3  1  0  0  0
  3  4  2  0  0  0
  3  5  1  0  0  0
  5  6  2  0  0  0
  6  7  1  0  0  0
  7  8  2  0  0  0
  8  9  1  0  0  0
  9 10  2  0  0  0
 10 11  1  0  0  0
 11 12  2  0  0  0
 11 13  1  0  0  0
 13 14  1  0  0  0
 14 15  1  0  0  0
 15 16  1  0  0  0
 16 17  1  0  0  0
 23 24  1  0  0  0
 24 25  1  0  0  0
 25 26  2  0  0  0
 26 27  1  0  0  0
 27 28  2  0  0  0
 28 29  1  0  0  0
 29 30  2  0  0  0
 30 22  1  0  0  0
 12  7  1  0  0  0
 30 25  1  0  0  0
 17 10  1  0  0  0
 14 18  1  0  0  0
 17 19  1  0  0  0
M  END
> <minimizedAffinity>
36.97456

> <CNNscore>
0.6102874875

> <CNNaffinity>
5.7417693138

> <CNN_VS>
3.5041298866

> <CNNaffinity_variance>
0.1470165551

$$$$
[H]/C(C(=O)N(C([H])([H])[H])C([H])([H])c1sc2c([H])c([H])c([H])c([H])c2c1C([H])([H])[H])=C(/[H])c1c([H])nc2c(c1[H])C([H])([H])N([H])C([H])([H])C([H])([H])N2[H]


 30 33  0  0  0  0  0  0  0  0999 V2000
   27.9773    9.1904   57.8763 N   0  0  0  0  0  0  0  0  0  0  0  0
   27.0262    8.4777   58.6854 C   0  0  0  0  0  0  0  0  0  0  0  0
   27.8445    9.0244   56.4201 C   0  0  0  0  0  0  0  0  0  0  0  0
   28.7568    9.2942   55.6389 O   0  0  0  0  0  0  0  0  0  0  0  0
   26.5488    8.5802   55.9202 C   0  0  0  0  0  0  0  0  0  0  0  0
   25.7026    9.5639   55.5749 C   0  0  0  0  0  0  0  0  0  0  0  0
   24.3482    9.2818   55.0639 C   0  0  0  0  0  0  0  0  0  0  0  0
   23.2614    9.8529   55.6874 C   0  0  0  0  0  0  0  0  0  0  0  0
   21.9652    9.5160   55.3744 N   0  0  0  0  0  0  0  0  0  0  0  0
   21.7702    8.5908   54.4204 C   0  0  0  0  0  0  0  0  0  0  0  0
   22.8534    8.0202   53.7801 C   0  0  0  0  0  0  0  0  0  0  0  0
   24.1476    8.3527   54.0905 C   0  0  0  0  0  0  0  0  0  0  0  0
   22.7306    7.0001   52.6870 C   0  0  0  0  0  0  0  0  0  0  0  0
   22.0889    5.8849   53.3251 N   0  0  0  0  0  0  0  0  0  0  0  0
   20.6839    5.8820   53.3526 C   0  0  0  0  0  0  0  0  0  0  0  0
   19.8857    7.0857   53.5460 C   0  0  0  0  0  0  0  0  0  0  0  0
   20.3877    8.2172   54.2312 N   0  0  0  0  0  0  0  0  0  0  0  0
   22.5607    5.7507   54.2509 H   0  0  0  0  0  0  0  0  0  0  0  0
   19.7077    8.8567   54.6921 H   0  0  0  0  0  0  0  0  0  0  0  0
   29.0339    9.9437   58.3139 C   0  0  0  0  0  0  0  0  0  0  0  0
   31.0508   10.6197   60.6626 C   0  0  0  0  0  0  0  0  0  0  0  0
   29.9931   11.5866   60.0800 C   0  0  0  0  0  0  0  0  0  0  0  0
   29.0556   11.0630   59.2514 C   0  0  0  0  0  0  0  0  0  0  0  0
   28.0034   12.4934   59.0225 S   0  0  0  0  0  0  0  0  0  0  0  0
   28.8635   13.6102   59.9735 C   0  0  0  0  0  0  0  0  0  0  0  0
   28.7122   14.9804   60.2479 C   0  0  0  0  0  0  0  0  0  0  0  0
   29.6143   15.6622   61.0237 C   0  0  0  0  0  0  0  0  0  0  0  0
   30.6670   14.9070   61.5104 C   0  0  0  0  0  0  0  0  0  0  0  0
   30.8198   13.6014   61.2529 C   0  0  0  0  0  0  0  0  0  0  0  0
   29.9067   12.8794   60.4494 C   0  0  0  0  0  0  0  0  0  0  0  0
 21 22  1  0  0  0
 22 23  2  0  0  0
 23 20  1  0  0  0
 20  1  1  0  0  0
  1  2  1  0  0  0
  1  3  1  0  0  0
  3  4  2  0  0  0
  3  5  1  0  0  0
  5  6  2  0  0  0
  6  7  1  0  0  0
  7  8  2  0  0  0
  8  9  1  0  0  0
  9 10  2  0  0  0
 10 11  1  0  0  0
 11 12  2  0  0  0
 11 13  1  0  0  0
 13 14  1  0  0  0
 14 15  1  0  0  0
 15 16  1  0  0  0
 16 17  1  0  0  0
 23 24  1  0  0  0
 24 25  1  0  0  0
 25 26  2  0  0  0
 26 27  1  0  0  0
 27 28  2  0  0  0
 28 29  1  0  0  0
 29 30  2  0  0  0
 30 22  1  0  0  0
 12  7  1  0  0  0
 30 25  1  0  0  0
 17 10  1  0  0  0
 14 18  1  0  0  0
 17 19  1  0  0  0
M  END
> <minimizedAffinity>
9.61615

> <CNNscore>
0.5879343152

> <CNNaffinity>
6.0653548241

> <CNN_VS>
3.5660302639

> <CNNaffinity_variance>
0.4501187801

$$$$
[H]/C(C(=O)N(C([H])([H])[H])C([H])([H])c1sc2c([H])c([H])c([H])c([H])c2c1C([H])([H])[H])=C(/[H])c1c([H])nc2c(c1[H])C([H])([H])N([H])C([H])([H])C([H])([H])N2[H]


 30 33  0  0  0  0  0  0  0  0999 V2000
   22.5299    7.9912   53.2004 N   0  0  0  0  0  0  0  0  0  0  0  0
   21.3531    8.7772   52.9467 C   0  0  0  0  0  0  0  0  0  0  0  0
   22.3115    6.6802   53.8324 C   0  0  0  0  0  0  0  0  0  0  0  0
   23.2137    6.0600   54.3951 O   0  0  0  0  0  0  0  0  0  0  0  0
   20.9784    6.1017   53.7124 C   0  0  0  0  0  0  0  0  0  0  0  0
   20.9372    4.7596   53.7057 C   0  0  0  0  0  0  0  0  0  0  0  0
   19.6674    4.0205   53.5776 C   0  0  0  0  0  0  0  0  0  0  0  0
   19.5767    2.9915   52.6672 C   0  0  0  0  0  0  0  0  0  0  0  0
   18.3892    2.3621   52.3754 N   0  0  0  0  0  0  0  0  0  0  0  0
   17.2836    2.7809   53.0129 C   0  0  0  0  0  0  0  0  0  0  0  0
   17.3656    3.8046   53.9372 C   0  0  0  0  0  0  0  0  0  0  0  0
   18.5479    4.4358   54.2298 C   0  0  0  0  0  0  0  0  0  0  0  0
   16.1901    4.3193   54.7144 C   0  0  0  0  0  0  0  0  0  0  0  0
   15.3115    4.8432   53.7064 N   0  0  0  0  0  0  0  0  0  0  0  0
   14.4046    3.9467   53.1159 C   0  0  0  0  0  0  0  0  0  0  0  0
   14.7359    2.5613   52.8084 C   0  0  0  0  0  0  0  0  0  0  0  0
   16.0661    2.1429   52.5690 N   0  0  0  0  0  0  0  0  0  0  0  0
   15.9051    5.3922   53.0401 H   0  0  0  0  0  0  0  0  0  0  0  0
   16.2192    1.2986   51.9795 H   0  0  0  0  0  0  0  0  0  0  0  0
   23.8314    8.3597   52.9864 C   0  0  0  0  0  0  0  0  0  0  0  0
   26.9355    8.2733   52.3554 C   0  0  0  0  0  0  0  0  0  0  0  0
   26.3077    8.5268   53.7464 C   0  0  0  0  0  0  0  0  0  0  0  0
   24.9795    8.2906   53.8860 C   0  0  0  0  0  0  0  0  0  0  0  0
   24.7996    8.5366   55.6503 S   0  0  0  0  0  0  0  0  0  0  0  0
   26.4091    8.9344   56.0280 C   0  0  0  0  0  0  0  0  0  0  0  0
   27.0672    9.3291   57.2056 C   0  0  0  0  0  0  0  0  0  0  0  0
   28.3988    9.6568   57.2099 C   0  0  0  0  0  0  0  0  0  0  0  0
   29.0348    9.5667   55.9840 C   0  0  0  0  0  0  0  0  0  0  0  0
   28.4154    9.1928   54.8567 C   0  0  0  0  0  0  0  0  0  0  0  0
   27.0415    8.8578   54.8267 C   0  0  0  0  0  0  0  0  0  0  0  0
 21 22  1  0  0  0
 22 23  2  0  0  0
 23 20  1  0  0  0
 20  1  1  0  0  0
  1  2  1  0  0  0
  1  3  1  0  0  0
  3  4  2  0  0  0
  3  5  1  0  0  0
  5  6  2  0  0  0
  6  7  1  0  0  0
  7  8  2  0  0  0
  8  9  1  0  0  0
  9 10  2  0  0  0
 10 11  1  0  0  0
 11 12  2  0  0  0
 11 13  1  0  0  0
 13 14  1  0  0  0
 14 15  1  0  0  0
 15 16  1  0  0  0
 16 17  1  0  0  0
 23 24  1  0  0  0
 24 25  1  0  0  0
 25 26  2  0  0  0
 26 27  1  0  0  0
 27 28  2  0  0  0
 28 29  1  0  0  0
 29 30  2  0  0  0
 30 22  1  0  0  0
 12  7  1  0  0  0
 30 25  1  0  0  0
 17 10  1  0  0  0
 14 18  1  0  0  0
 17 19  1  0  0  0
M  END
> <minimizedAffinity>
30.95947

> <CNNscore>
0.5751367807

> <CNNaffinity>
6.3712968826

> <CNN_VS>
3.6643671989

> <CNNaffinity_variance>
0.3670397401

$$$$
[H]/C(C(=O)N(C([H])([H])[H])C([H])([H])c1sc2c([H])c([H])c([H])c([H])c2c1C([H])([H])[H])=C(/[H])c1c([H])nc2c(c1[H])C([H])([H])N([H])C([H])([H])C([H])([H])N2[H]


 30 33  0  0  0  0  0  0  0  0999 V2000
   25.5844    8.4062   54.3070 N   0  0  0  0  0  0  0  0  0  0  0  0
   26.8946    7.8695   54.5568 C   0  0  0  0  0  0  0  0  0  0  0  0
   24.8808    8.9697   55.4703 C   0  0  0  0  0  0  0  0  0  0  0  0
   23.6641    9.1562   55.4793 O   0  0  0  0  0  0  0  0  0  0  0  0
   25.6990    9.3653   56.6106 C   0  0  0  0  0  0  0  0  0  0  0  0
   26.9089    9.8587   56.3011 C   0  0  0  0  0  0  0  0  0  0  0  0
   27.8618   10.2918   57.3400 C   0  0  0  0  0  0  0  0  0  0  0  0
   28.5552    9.3412   58.0554 C   0  0  0  0  0  0  0  0  0  0  0  0
   29.3373    9.6554   59.1422 N   0  0  0  0  0  0  0  0  0  0  0  0
   29.4162   10.9458   59.5065 C   0  0  0  0  0  0  0  0  0  0  0  0
   28.7341   11.9091   58.7883 C   0  0  0  0  0  0  0  0  0  0  0  0
   27.9519   11.5994   57.7047 C   0  0  0  0  0  0  0  0  0  0  0  0
   28.7844   13.3744   59.1061 C   0  0  0  0  0  0  0  0  0  0  0  0
   28.2115   13.4632   60.4201 N   0  0  0  0  0  0  0  0  0  0  0  0
   29.0801   13.2959   61.5121 C   0  0  0  0  0  0  0  0  0  0  0  0
   30.1810   12.3413   61.5187 C   0  0  0  0  0  0  0  0  0  0  0  0
   30.1675   11.1742   60.7189 N   0  0  0  0  0  0  0  0  0  0  0  0
   27.3582   12.8553   60.4223 H   0  0  0  0  0  0  0  0  0  0  0  0
   30.7284   10.3550   61.0321 H   0  0  0  0  0  0  0  0  0  0  0  0
   24.8938    8.3830   53.1247 C   0  0  0  0  0  0  0  0  0  0  0  0
   23.8445    5.4280   53.5810 C   0  0  0  0  0  0  0  0  0  0  0  0
   22.9672    6.6452   53.2045 C   0  0  0  0  0  0  0  0  0  0  0  0
   23.6028    7.7770   52.8112 C   0  0  0  0  0  0  0  0  0  0  0  0
   22.1980    8.7730   52.3213 S   0  0  0  0  0  0  0  0  0  0  0  0
   20.9534    7.6725   52.6834 C   0  0  0  0  0  0  0  0  0  0  0  0
   19.5499    7.7356   52.6386 C   0  0  0  0  0  0  0  0  0  0  0  0
   18.7694    6.6894   53.0589 C   0  0  0  0  0  0  0  0  0  0  0  0
   19.4605    5.5827   53.5201 C   0  0  0  0  0  0  0  0  0  0  0  0
   20.7974    5.5142   53.5676 C   0  0  0  0  0  0  0  0  0  0  0  0
   21.6225    6.5833   53.1470 C   0  0  0  0  0  0  0  0  0  0  0  0
 21 22  1  0  0  0
 22 23  2  0  0  0
 23 20  1  0  0  0
 20  1  1  0  0  0
  1  2  1  0  0  0
  1  3  1  0  0  0
  3  4  2  0  0  0
  3  5  1  0  0  0
  5  6  2  0  0  0
  6  7  1  0  0  0
  7  8  2  0  0  0
  8  9  1  0  0  0
  9 10  2  0  0  0
 10 11  1  0  0  0
 11 12  2  0  0  0
 11 13  1  0  0  0
 13 14  1  0  0  0
 14 15  1  0  0  0
 15 16  1  0  0  0
 16 17  1  0  0  0
 23 24  1  0  0  0
 24 25  1  0  0  0
 25 26  2  0  0  0
 26 27  1  0  0  0
 27 28  2  0  0  0
 28 29  1  0  0  0
 29 30  2  0  0  0
 30 22  1  0  0  0
 12  7  1  0  0  0
 30 25  1  0  0  0
 17 10  1  0  0  0
 14 18  1  0  0  0
 17 19  1  0  0  0
M  END
> <minimizedAffinity>
14.70184

> <CNNscore>
0.5546284318

> <CNNaffinity>
5.8273324966

> <CNN_VS>
3.2320041656

> <CNNaffinity_variance>
0.1899410188

$$$$
[H]/C(C(=O)N(C([H])([H])[H])C([H])([H])c1sc2c([H])c([H])c([H])c([H])c2c1C([H])([H])[H])=C(/[H])c1c([H])nc2c(c1[H])C([H])([H])N([H])C([H])([H])C([H])([H])N2[H]


 30 33  0  0  0  0  0  0  0  0999 V2000
   22.6704    7.4212   52.9868 N   0  0  0  0  0  0  0  0  0  0  0  0
   21.5528    8.2039   52.5333 C   0  0  0  0  0  0  0  0  0  0  0  0
   22.3575    6.3117   53.9016 C   0  0  0  0  0  0  0  0  0  0  0  0
   23.2115    5.7805   54.6115 O   0  0  0  0  0  0  0  0  0  0  0  0
   20.9876    5.8124   53.8920 C   0  0  0  0  0  0  0  0  0  0  0  0
   20.8544    4.5176   53.5622 C   0  0  0  0  0  0  0  0  0  0  0  0
   19.5342    3.8637   53.4936 C   0  0  0  0  0  0  0  0  0  0  0  0
   19.3431    2.8247   52.6105 C   0  0  0  0  0  0  0  0  0  0  0  0
   18.1067    2.2713   52.3730 N   0  0  0  0  0  0  0  0  0  0  0  0
   17.0545    2.7771   53.0374 C   0  0  0  0  0  0  0  0  0  0  0  0
   17.2371    3.8117   53.9347 C   0  0  0  0  0  0  0  0  0  0  0  0
   18.4685    4.3672   54.1732 C   0  0  0  0  0  0  0  0  0  0  0  0
   16.1266    4.4207   54.7388 C   0  0  0  0  0  0  0  0  0  0  0  0
   15.2504    4.9820   53.7490 N   0  0  0  0  0  0  0  0  0  0  0  0
   14.2654    4.1370   53.2097 C   0  0  0  0  0  0  0  0  0  0  0  0
   14.4922    2.7263   52.9231 C   0  0  0  0  0  0  0  0  0  0  0  0
   15.7823    2.2139   52.6492 N   0  0  0  0  0  0  0  0  0  0  0  0
   15.8558    5.4757   53.0508 H   0  0  0  0  0  0  0  0  0  0  0  0
   15.8578    1.3492   52.0743 H   0  0  0  0  0  0  0  0  0  0  0  0
   23.9954    7.6410   52.7199 C   0  0  0  0  0  0  0  0  0  0  0  0
   23.7319    9.1919   55.4706 C   0  0  0  0  0  0  0  0  0  0  0  0
   25.0612    8.7886   54.7899 C   0  0  0  0  0  0  0  0  0  0  0  0
   24.9999    8.3493   53.5081 C   0  0  0  0  0  0  0  0  0  0  0  0
   26.7463    8.2076   53.1399 S   0  0  0  0  0  0  0  0  0  0  0  0
   27.3746    8.6928   54.6436 C   0  0  0  0  0  0  0  0  0  0  0  0
   28.6719    8.7832   55.1770 C   0  0  0  0  0  0  0  0  0  0  0  0
   28.8900    9.1580   56.4780 C   0  0  0  0  0  0  0  0  0  0  0  0
   27.7510    9.4391   57.2122 C   0  0  0  0  0  0  0  0  0  0  0  0
   26.5110    9.3544   56.7126 C   0  0  0  0  0  0  0  0  0  0  0  0
   26.2616    8.9626   55.3765 C   0  0  0  0  0  0  0  0  0  0  0  0
 21 22  1  0  0  0
 22 23  2  0  0  0
 23 20  1  0  0  0
 20  1  1  0  0  0
  1  2  1  0  0  0
  1  3  1  0  0  0
  3  4  2  0  0  0
  3  5  1  0  0  0
  5  6  2  0  0  0
  6  7  1  0  0  0
  7  8  2  0  0  0
  8  9  1  0  0  0
  9 10  2  0  0  0
 10 11  1  0  0  0
 11 12  2  0  0  0
 11 13  1  0  0  0
 13 14  1  0  0  0
 14 15  1  0  0  0
 15 16  1  0  0  0
 16 17  1  0  0  0
 23 24  1  0  0  0
 24 25  1  0  0  0
 25 26  2  0  0  0
 26 27  1  0  0  0
 27 28  2  0  0  0
 28 29  1  0  0  0
 29 30  2  0  0  0
 30 22  1  0  0  0
 12  7  1  0  0  0
 30 25  1  0  0  0
 17 10  1  0  0  0
 14 18  1  0  0  0
 17 19  1  0  0  0
M  END
> <minimizedAffinity>
28.65868

> <CNNscore>
0.5521016121

> <CNNaffinity>
6.2155399323

> <CNN_VS>
3.4316096306

> <CNNaffinity_variance>
0.4746723175

$$$$
[H]/C(C(=O)N(C([H])([H])[H])C([H])([H])c1sc2c([H])c([H])c([H])c([H])c2c1C([H])([H])[H])=C(/[H])c1c([H])nc2c(c1[H])C([H])([H])N([H])C([H])([H])C([H])([H])N2[H]


 30 33  0  0  0  0  0  0  0  0999 V2000
   25.0789    8.8886   54.3761 N   0  0  0  0  0  0  0  0  0  0  0  0
   24.8245    9.8318   55.4310 C   0  0  0  0  0  0  0  0  0  0  0  0
   26.4737    8.4442   54.2248 C   0  0  0  0  0  0  0  0  0  0  0  0
   26.8900    7.9153   53.1941 O   0  0  0  0  0  0  0  0  0  0  0  0
   27.3465    8.5981   55.3827 C   0  0  0  0  0  0  0  0  0  0  0  0
   26.9229    9.4787   56.3036 C   0  0  0  0  0  0  0  0  0  0  0  0
   27.6978    9.7591   57.5267 C   0  0  0  0  0  0  0  0  0  0  0  0
   28.4235   10.9263   57.6107 C   0  0  0  0  0  0  0  0  0  0  0  0
   29.2935   11.1859   58.6437 N   0  0  0  0  0  0  0  0  0  0  0  0
   29.4287   10.2524   59.6000 C   0  0  0  0  0  0  0  0  0  0  0  0
   28.6962    9.0829   59.5317 C   0  0  0  0  0  0  0  0  0  0  0  0
   27.8286    8.8198   58.5022 C   0  0  0  0  0  0  0  0  0  0  0  0
   28.7634    7.9981   60.5658 C   0  0  0  0  0  0  0  0  0  0  0  0
   30.1259    7.5479   60.5070 N   0  0  0  0  0  0  0  0  0  0  0  0
   31.0625    8.2299   61.3024 C   0  0  0  0  0  0  0  0  0  0  0  0
   31.0290    9.6705   61.5187 C   0  0  0  0  0  0  0  0  0  0  0  0
   30.4398   10.5562   60.5858 N   0  0  0  0  0  0  0  0  0  0  0  0
   30.3732    7.4567   59.4930 H   0  0  0  0  0  0  0  0  0  0  0  0
   30.7768   11.5409   60.5596 H   0  0  0  0  0  0  0  0  0  0  0  0
   24.1820    8.4182   53.4544 C   0  0  0  0  0  0  0  0  0  0  0  0
   21.2524    9.1229   52.4737 C   0  0  0  0  0  0  0  0  0  0  0  0
   21.6991    7.7666   53.0686 C   0  0  0  0  0  0  0  0  0  0  0  0
   22.9195    7.7134   53.6581 C   0  0  0  0  0  0  0  0  0  0  0  0
   22.8741    6.0530   54.3266 S   0  0  0  0  0  0  0  0  0  0  0  0
   21.3341    5.5875   53.7760 C   0  0  0  0  0  0  0  0  0  0  0  0
   20.5944    4.3938   53.8374 C   0  0  0  0  0  0  0  0  0  0  0  0
   19.3669    4.2770   53.2374 C   0  0  0  0  0  0  0  0  0  0  0  0
   18.9187    5.4094   52.5801 C   0  0  0  0  0  0  0  0  0  0  0  0
   19.6173    6.5505   52.5154 C   0  0  0  0  0  0  0  0  0  0  0  0
   20.8884    6.6917   53.1196 C   0  0  0  0  0  0  0  0  0  0  0  0
 21 22  1  0  0  0
 22 23  2  0  0  0
 23 20  1  0  0  0
 20  1  1  0  0  0
  1  2  1  0  0  0
  1  3  1  0  0  0
  3  4  2  0  0  0
  3  5  1  0  0  0
  5  6  2  0  0  0
  6  7  1  0  0  0
  7  8  2  0  0  0
  8  9  1  0  0  0
  9 10  2  0  0  0
 10 11  1  0  0  0
 11 12  2  0  0  0
 11 13  1  0  0  0
 13 14  1  0  0  0
 14 15  1  0  0  0
 15 16  1  0  0  0
 16 17  1  0  0  0
 23 24  1  0  0  0
 24 25  1  0  0  0
 25 26  2  0  0  0
 26 27  1  0  0  0
 27 28  2  0  0  0
 28 29  1  0  0  0
 29 30  2  0  0  0
 30 22  1  0  0  0
 12  7  1  0  0  0
 30 25  1  0  0  0
 17 10  1  0  0  0
 14 18  1  0  0  0
 17 19  1  0  0  0
M  END
> <minimizedAffinity>
15.28359

> <CNNscore>
0.5448165536

> <CNNaffinity>
5.9470815659

> <CNN_VS>
3.2400684357

> <CNNaffinity_variance>
0.1849153936

$$$$
[H]/C(C(=O)N(C([H])([H])[H])C([H])([H])c1sc2c([H])c([H])c([H])c([H])c2c1C([H])([H])[H])=C(/[H])c1c([H])nc2c(c1[H])C([H])([H])N([H])C([H])([H])C([H])([H])N2[H]


 30 33  0  0  0  0  0  0  0  0999 V2000
   23.6922    7.9853   54.7867 N   0  0  0  0  0  0  0  0  0  0  0  0
   24.2220    6.9454   55.6263 C   0  0  0  0  0  0  0  0  0  0  0  0
   23.7783    9.3553   55.3171 C   0  0  0  0  0  0  0  0  0  0  0  0
   23.0919   10.2778   54.8776 O   0  0  0  0  0  0  0  0  0  0  0  0
   24.7686    9.6004   56.3589 C   0  0  0  0  0  0  0  0  0  0  0  0
   26.0361    9.7046   55.9283 C   0  0  0  0  0  0  0  0  0  0  0  0
   27.1571    9.9389   56.8576 C   0  0  0  0  0  0  0  0  0  0  0  0
   27.9504    8.8789   57.2357 C   0  0  0  0  0  0  0  0  0  0  0  0
   28.9098    8.9832   58.2156 N   0  0  0  0  0  0  0  0  0  0  0  0
   29.0652   10.1738   58.8177 C   0  0  0  0  0  0  0  0  0  0  0  0
   28.2826   11.2471   58.4375 C   0  0  0  0  0  0  0  0  0  0  0  0
   27.3237   11.1466   57.4616 C   0  0  0  0  0  0  0  0  0  0  0  0
   28.4039   12.6177   59.0354 C   0  0  0  0  0  0  0  0  0  0  0  0
   28.0639   12.4238   60.4172 N   0  0  0  0  0  0  0  0  0  0  0  0
   29.1035   12.0576   61.2890 C   0  0  0  0  0  0  0  0  0  0  0  0
   30.1779   11.1474   60.9140 C   0  0  0  0  0  0  0  0  0  0  0  0
   30.0144   10.1678   59.9064 N   0  0  0  0  0  0  0  0  0  0  0  0
   27.2162   11.8085   60.4390 H   0  0  0  0  0  0  0  0  0  0  0  0
   30.6105    9.3151   59.9460 H   0  0  0  0  0  0  0  0  0  0  0  0
   23.0524    7.8317   53.5856 C   0  0  0  0  0  0  0  0  0  0  0  0
   22.6368    4.7138   53.2026 C   0  0  0  0  0  0  0  0  0  0  0  0
   21.5067    5.7599   53.3487 C   0  0  0  0  0  0  0  0  0  0  0  0
   21.8504    7.0690   53.2607 C   0  0  0  0  0  0  0  0  0  0  0  0
   20.2273    7.8239   53.2963 S   0  0  0  0  0  0  0  0  0  0  0  0
   19.2836    6.4169   53.4420 C   0  0  0  0  0  0  0  0  0  0  0  0
   17.9077    6.1754   53.5974 C   0  0  0  0  0  0  0  0  0  0  0  0
   17.4141    4.9059   53.7565 C   0  0  0  0  0  0  0  0  0  0  0  0
   18.3611    3.8968   53.7487 C   0  0  0  0  0  0  0  0  0  0  0  0
   19.6742    4.1179   53.6025 C   0  0  0  0  0  0  0  0  0  0  0  0
   20.2068    5.4187   53.4448 C   0  0  0  0  0  0  0  0  0  0  0  0
 21 22  1  0  0  0
 22 23  2  0  0  0
 23 20  1  0  0  0
 20  1  1  0  0  0
  1  2  1  0  0  0
  1  3  1  0  0  0
  3  4  2  0  0  0
  3  5  1  0  0  0
  5  6  2  0  0  0
  6  7  1  0  0  0
  7  8  2  0  0  0
  8  9  1  0  0  0
  9 10  2  0  0  0
 10 11  1  0  0  0
 11 12  2  0  0  0
 11 13  1  0  0  0
 13 14  1  0  0  0
 14 15  1  0  0  0
 15 16  1  0  0  0
 16 17  1  0  0  0
 23 24  1  0  0  0
 24 25  1  0  0  0
 25 26  2  0  0  0
 26 27  1  0  0  0
 27 28  2  0  0  0
 28 29  1  0  0  0
 29 30  2  0  0  0
 30 22  1  0  0  0
 12  7  1  0  0  0
 30 25  1  0  0  0
 17 10  1  0  0  0
 14 18  1  0  0  0
 17 19  1  0  0  0
M  END
> <minimizedAffinity>
29.40219

> <CNNscore>
0.5346407294

> <CNNaffinity>
5.7184524536

> <CNN_VS>
3.0573174953

> <CNNaffinity_variance>
0.1977105439

$$$$
[H]/C(C(=O)N(C([H])([H])[H])C([H])([H])c1sc2c([H])c([H])c([H])c([H])c2c1C([H])([H])[H])=C(/[H])c1c([H])nc2c(c1[H])C([H])([H])N([H])C([H])([H])C([H])([H])N2[H]


 30 33  0  0  0  0  0  0  0  0999 V2000
   27.6154    9.0261   56.0237 N   0  0  0  0  0  0  0  0  0  0  0  0
   27.8410    8.3887   54.7549 C   0  0  0  0  0  0  0  0  0  0  0  0
   26.2663    9.5701   56.2464 C   0  0  0  0  0  0  0  0  0  0  0  0
   26.0272   10.4068   57.1171 O   0  0  0  0  0  0  0  0  0  0  0  0
   25.1901    9.0271   55.4259 C   0  0  0  0  0  0  0  0  0  0  0  0
   23.9492    9.3391   55.8329 C   0  0  0  0  0  0  0  0  0  0  0  0
   22.7518    8.8570   55.1193 C   0  0  0  0  0  0  0  0  0  0  0  0
   22.1628    7.6767   55.5144 C   0  0  0  0  0  0  0  0  0  0  0  0
   21.1464    7.0813   54.8046 N   0  0  0  0  0  0  0  0  0  0  0  0
   20.7242    7.6887   53.6835 C   0  0  0  0  0  0  0  0  0  0  0  0
   21.3002    8.8795   53.2846 C   0  0  0  0  0  0  0  0  0  0  0  0
   22.3151    9.4757   53.9891 C   0  0  0  0  0  0  0  0  0  0  0  0
   20.8761    9.6403   52.0631 C   0  0  0  0  0  0  0  0  0  0  0  0
   21.1666    8.7441   50.9791 N   0  0  0  0  0  0  0  0  0  0  0  0
   20.1708    7.8167   50.6281 C   0  0  0  0  0  0  0  0  0  0  0  0
   19.3210    7.1482   51.6051 C   0  0  0  0  0  0  0  0  0  0  0  0
   19.7331    6.9432   52.9430 N   0  0  0  0  0  0  0  0  0  0  0  0
   22.1164    8.3417   51.1626 H   0  0  0  0  0  0  0  0  0  0  0  0
   19.3159    6.1492   53.4715 H   0  0  0  0  0  0  0  0  0  0  0  0
   28.5365    9.2463   57.0128 C   0  0  0  0  0  0  0  0  0  0  0  0
   29.8495    9.0445   59.8898 C   0  0  0  0  0  0  0  0  0  0  0  0
   29.2157   10.3163   59.2782 C   0  0  0  0  0  0  0  0  0  0  0  0
   28.4874   10.1690   58.1435 C   0  0  0  0  0  0  0  0  0  0  0  0
   27.8404   11.8290   57.9668 S   0  0  0  0  0  0  0  0  0  0  0  0
   28.5712   12.5445   59.3252 C   0  0  0  0  0  0  0  0  0  0  0  0
   28.6054   13.8515   59.8412 C   0  0  0  0  0  0  0  0  0  0  0  0
   29.3461   14.1671   60.9513 C   0  0  0  0  0  0  0  0  0  0  0  0
   30.0436   13.1141   61.5170 C   0  0  0  0  0  0  0  0  0  0  0  0
   30.0179   11.8660   61.0314 C   0  0  0  0  0  0  0  0  0  0  0  0
   29.2677   11.5188   59.8836 C   0  0  0  0  0  0  0  0  0  0  0  0
 21 22  1  0  0  0
 22 23  2  0  0  0
 23 20  1  0  0  0
 20  1  1  0  0  0
  1  2  1  0  0  0
  1  3  1  0  0  0
  3  4  2  0  0  0
  3  5  1  0  0  0
  5  6  2  0  0  0
  6  7  1  0  0  0
  7  8  2  0  0  0
  8  9  1  0  0  0
  9 10  2  0  0  0
 10 11  1  0  0  0
 11 12  2  0  0  0
 11 13  1  0  0  0
 13 14  1  0  0  0
 14 15  1  0  0  0
 15 16  1  0  0  0
 16 17  1  0  0  0
 23 24  1  0  0  0
 24 25  1  0  0  0
 25 26  2  0  0  0
 26 27  1  0  0  0
 27 28  2  0  0  0
 28 29  1  0  0  0
 29 30  2  0  0  0
 30 22  1  0  0  0
 12  7  1  0  0  0
 30 25  1  0  0  0
 17 10  1  0  0  0
 14 18  1  0  0  0
 17 19  1  0  0  0
M  END
> <minimizedAffinity>
12.82872

> <CNNscore>
0.5149641037

> <CNNaffinity>
6.1026206017

> <CNN_VS>
3.1426305771

> <CNNaffinity_variance>
0.1310207248

$$$$
[H]c1c([H])c([H])c(C([H])([H])N(C([H])([H])[H])C([H])([H])C([H])([H])OC(=O)C2=C(C([H])([H])[H])N=C(C([H])([H])[H])C([H])(C(=O)OC([H])([H])[H])C2([H])c2c([H])c([H])c([H])c([N+](=O)[O-])c2[H])c([H])c1[H]


 35 37  0  0  0  0  0  0  0  0999 V2000
   23.3774    6.9901   53.9873 C   0  0  0  0  0  0  0  0  0  0  0  0
   24.5594    6.6282   53.1981 C   0  0  0  0  0  0  0  0  0  0  0  0
   24.3558    5.5668   52.1292 C   0  0  0  0  0  0  0  0  0  0  0  0
   25.7119    7.1143   53.3258 N   0  0  0  0  0  0  0  0  0  0  0  0
   25.9816    8.1093   54.2939 C   0  0  0  0  0  0  0  0  0  0  0  0
   27.3977    8.6136   54.3862 C   0  0  0  0  0  0  0  0  0  0  0  0
   25.0113    8.5389   55.0730 C   0  0  0  0  0  0  0  0  0  0  0  0
   23.6011    8.0476   54.9637 C   0  0  0  0  0  0  0  0  0  0  0  0
   22.7239    9.2385   54.7506 C   0  0  0  0  0  0  0  0  0  0  0  0
   22.1362    9.9263   55.7762 C   0  0  0  0  0  0  0  0  0  0  0  0
   21.3479   11.0356   55.5461 C   0  0  0  0  0  0  0  0  0  0  0  0
   21.1436   11.4680   54.2401 C   0  0  0  0  0  0  0  0  0  0  0  0
   21.7350   10.7773   53.1948 C   0  0  0  0  0  0  0  0  0  0  0  0
   22.5180    9.6705   53.4659 C   0  0  0  0  0  0  0  0  0  0  0  0
   21.5127   11.2373   51.8712 N   0  0  0  0  0  0  0  0  0  0  0  0
   21.7583   12.4254   51.6103 O   0  0  0  0  0  0  0  0  0  0  0  0
   21.0410   10.4323   50.8732 O   0  0  0  0  0  0  0  0  0  0  0  0
   22.9059    5.7016   54.6251 C   0  0  0  0  0  0  0  0  0  0  0  0
   23.5269    5.1523   55.5345 O   0  0  0  0  0  0  0  0  0  0  0  0
   20.7100    5.9711   53.6087 C   0  0  0  0  0  0  0  0  0  0  0  0
   21.7358    5.1452   54.1511 O   0  0  0  0  0  0  0  0  0  0  0  0
   25.2848    9.5600   56.0717 C   0  0  0  0  0  0  0  0  0  0  0  0
   24.7606   10.7219   55.8781 O   0  0  0  0  0  0  0  0  0  0  0  0
   26.0375    9.4626   57.2187 O   0  0  0  0  0  0  0  0  0  0  0  0
   27.4016    9.9151   57.1667 C   0  0  0  0  0  0  0  0  0  0  0  0
   27.9099   10.3668   58.4763 C   0  0  0  0  0  0  0  0  0  0  0  0
   28.9597    9.6641   59.0943 N   0  0  0  0  0  0  0  0  0  0  0  0
   29.0622    8.2786   58.9888 C   0  0  0  0  0  0  0  0  0  0  0  0
   29.1415   10.1579   60.4314 C   0  0  0  0  0  0  0  0  0  0  0  0
   29.1609   11.6293   60.5426 C   0  0  0  0  0  0  0  0  0  0  0  0
   30.3151   12.3829   60.6533 C   0  0  0  0  0  0  0  0  0  0  0  0
   30.2899   13.7572   60.7549 C   0  0  0  0  0  0  0  0  0  0  0  0
   29.0700   14.4050   60.7460 C   0  0  0  0  0  0  0  0  0  0  0  0
   27.9090   13.6714   60.6365 C   0  0  0  0  0  0  0  0  0  0  0  0
   27.9607   12.3115   60.5373 C   0  0  0  0  0  0  0  0  0  0  0  0
 20 21  1  0  0  0
 21 18  1  0  0  0
 18 19  2  0  0  0
 18  1  1  0  0  0
  1  2  1  0  0  0
  2  3  1  0  0  0
  2  4  2  0  0  0
  4  5  1  0  0  0
  5  6  1  0  0  0
  5  7  2  0  0  0
  7 22  1  0  0  0
 22 23  2  0  0  0
 22 24  1  0  0  0
 24 25  1  0  0  0
 25 26  1  0  0  0
 26 27  1  0  0  0
 27 28  1  0  0  0
 27 29  1  0  0  0
 29 30  1  0  0  0
 30 31  2  0  0  0
 31 32  1  0  0  0
 32 33  2  0  0  0
 33 34  1  0  0  0
 34 35  2  0  0  0
  7  8  1  0  0  0
  8  9  1  0  0  0
  9 10  2  0  0  0
 10 11  1  0  0  0
 11 12  2  0  0  0
 12 13  1  0  0  0
 13 15  1  0  0  0
 15 16  2  0  0  0
 15 17  1  0  0  0
 13 14  2  0  0  0
  8  1  1  0  0  0
 14  9  1  0  0  0
 35 30  1  0  0  0
M  CHG 1  15   1
M  CHG 1  17  -1
M  END
> <minimizedAffinity>
9.76990

> <CNNscore>
0.6712422967

> <CNNaffinity>
6.7042436600

> <CNN_VS>
4.5001721382

> <CNNaffinity_variance>
0.5807647109

$$$$
[H]c1c([H])c([H])c(C([H])([H])N(C([H])([H])[H])C([H])([H])C([H])([H])OC(=O)C2=C(C([H])([H])[H])N=C(C([H])([H])[H])C([H])(C(=O)OC([H])([H])[H])C2([H])c2c([H])c([H])c([H])c([N+](=O)[O-])c2[H])c([H])c1[H]


 35 37  0  0  0  0  0  0  0  0999 V2000
   26.7356    9.4524   56.5756 C   0  0  0  0  0  0  0  0  0  0  0  0
   27.9962    8.7983   56.9415 C   0  0  0  0  0  0  0  0  0  0  0  0
   28.3644    8.8235   58.4161 C   0  0  0  0  0  0  0  0  0  0  0  0
   28.7885    8.2241   56.1520 N   0  0  0  0  0  0  0  0  0  0  0  0
   28.5154    8.1537   54.7661 C   0  0  0  0  0  0  0  0  0  0  0  0
   29.5353    7.4652   53.8979 C   0  0  0  0  0  0  0  0  0  0  0  0
   27.4121    8.6936   54.2923 C   0  0  0  0  0  0  0  0  0  0  0  0
   26.3925    9.3601   55.1631 C   0  0  0  0  0  0  0  0  0  0  0  0
   25.0817    8.6849   54.9202 C   0  0  0  0  0  0  0  0  0  0  0  0
   24.9574    7.3335   54.7522 C   0  0  0  0  0  0  0  0  0  0  0  0
   23.7283    6.7389   54.5503 C   0  0  0  0  0  0  0  0  0  0  0  0
   22.5851    7.5303   54.5161 C   0  0  0  0  0  0  0  0  0  0  0  0
   22.7015    8.9004   54.6854 C   0  0  0  0  0  0  0  0  0  0  0  0
   23.9505    9.4588   54.8853 C   0  0  0  0  0  0  0  0  0  0  0  0
   21.5216    9.6873   54.6472 N   0  0  0  0  0  0  0  0  0  0  0  0
   21.1427   10.1299   53.5515 O   0  0  0  0  0  0  0  0  0  0  0  0
   20.7856    9.9791   55.7606 O   0  0  0  0  0  0  0  0  0  0  0  0
   26.8697   10.8836   57.0479 C   0  0  0  0  0  0  0  0  0  0  0  0
   25.9500   11.6960   56.9541 O   0  0  0  0  0  0  0  0  0  0  0  0
   28.1129   12.0614   58.7785 C   0  0  0  0  0  0  0  0  0  0  0  0
   28.0760   11.2640   57.5989 O   0  0  0  0  0  0  0  0  0  0  0  0
   27.1286    8.6259   52.8676 C   0  0  0  0  0  0  0  0  0  0  0  0
   25.8906    8.5236   52.5224 O   0  0  0  0  0  0  0  0  0  0  0  0
   28.0098    8.6571   51.8121 O   0  0  0  0  0  0  0  0  0  0  0  0
   27.5408    9.1911   50.5618 C   0  0  0  0  0  0  0  0  0  0  0  0
   27.8080   10.6350   50.4148 C   0  0  0  0  0  0  0  0  0  0  0  0
   28.6791   11.0812   49.4050 N   0  0  0  0  0  0  0  0  0  0  0  0
   28.2016   11.7657   48.2893 C   0  0  0  0  0  0  0  0  0  0  0  0
   29.6147   10.0378   49.0873 C   0  0  0  0  0  0  0  0  0  0  0  0
   29.2791    9.2633   47.8768 C   0  0  0  0  0  0  0  0  0  0  0  0
   28.9317    9.8316   46.6649 C   0  0  0  0  0  0  0  0  0  0  0  0
   28.6251    9.0718   45.5567 C   0  0  0  0  0  0  0  0  0  0  0  0
   28.6660    7.6948   45.6591 C   0  0  0  0  0  0  0  0  0  0  0  0
   29.0100    7.1101   46.8582 C   0  0  0  0  0  0  0  0  0  0  0  0
   29.3091    7.8846   47.9411 C   0  0  0  0  0  0  0  0  0  0  0  0
 20 21  1  0  0  0
 21 18  1  0  0  0
 18 19  2  0  0  0
 18  1  1  0  0  0
  1  2  1  0  0  0
  2  3  1  0  0  0
  2  4  2  0  0  0
  4  5  1  0  0  0
  5  6  1  0  0  0
  5  7  2  0  0  0
  7 22  1  0  0  0
 22 23  2  0  0  0
 22 24  1  0  0  0
 24 25  1  0  0  0
 25 26  1  0  0  0
 26 27  1  0  0  0
 27 28  1  0  0  0
 27 29  1  0  0  0
 29 30  1  0  0  0
 30 31  2  0  0  0
 31 32  1  0  0  0
 32 33  2  0  0  0
 33 34  1  0  0  0
 34 35  2  0  0  0
  7  8  1  0  0  0
  8  9  1  0  0  0
  9 10  2  0  0  0
 10 11  1  0  0  0
 11 12  2  0  0  0
 12 13  1  0  0  0
 13 15  1  0  0  0
 15 16  2  0  0  0
 15 17  1  0  0  0
 13 14  2  0  0  0
  8  1  1  0  0  0
 14  9  1  0  0  0
 35 30  1  0  0  0
M  CHG 1  15   1
M  CHG 1  17  -1
M  END
> <minimizedAffinity>
28.30008

> <CNNscore>
0.5547807813

> <CNNaffinity>
6.1077857018

> <CNN_VS>
3.3884820938

> <CNNaffinity_variance>
0.5747261643

$$$$
[H]c1c([H])c([H])c(C([H])([H])N(C([H])([H])[H])C([H])([H])C([H])([H])OC(=O)C2=C(C([H])([H])[H])N=C(C([H])([H])[H])C([H])(C(=O)OC([H])([H])[H])C2([H])c2c([H])c([H])c([H])c([N+](=O)[O-])c2[H])c([H])c1[H]


 35 37  0  0  0  0  0  0  0  0999 V2000
   26.6859    9.8638   56.8810 C   0  0  0  0  0  0  0  0  0  0  0  0
   27.8961    9.0791   57.1464 C   0  0  0  0  0  0  0  0  0  0  0  0
   28.5231    9.2527   58.5203 C   0  0  0  0  0  0  0  0  0  0  0  0
   28.4527    8.2838   56.3473 N   0  0  0  0  0  0  0  0  0  0  0  0
   27.9286    8.0637   55.0524 C   0  0  0  0  0  0  0  0  0  0  0  0
   28.6782    7.1102   54.1596 C   0  0  0  0  0  0  0  0  0  0  0  0
   26.8376    8.6971   54.6759 C   0  0  0  0  0  0  0  0  0  0  0  0
   26.0859    9.6293   55.5747 C   0  0  0  0  0  0  0  0  0  0  0  0
   24.6765    9.1392   55.6554 C   0  0  0  0  0  0  0  0  0  0  0  0
   23.6029    9.9734   55.8024 C   0  0  0  0  0  0  0  0  0  0  0  0
   22.3114    9.4895   55.8526 C   0  0  0  0  0  0  0  0  0  0  0  0
   22.0918    8.1198   55.7516 C   0  0  0  0  0  0  0  0  0  0  0  0
   23.1736    7.2671   55.6024 C   0  0  0  0  0  0  0  0  0  0  0  0
   24.4525    7.7903   55.5565 C   0  0  0  0  0  0  0  0  0  0  0  0
   22.9251    5.8739   55.5009 N   0  0  0  0  0  0  0  0  0  0  0  0
   22.0895    5.3663   56.2652 O   0  0  0  0  0  0  0  0  0  0  0  0
   23.5636    5.0680   54.6014 O   0  0  0  0  0  0  0  0  0  0  0  0
   27.0869   11.3085   57.0846 C   0  0  0  0  0  0  0  0  0  0  0  0
   26.3845   12.2455   56.7062 O   0  0  0  0  0  0  0  0  0  0  0  0
   28.3231   12.2981   58.9339 C   0  0  0  0  0  0  0  0  0  0  0  0
   28.2867   11.5549   57.7195 O   0  0  0  0  0  0  0  0  0  0  0  0
   26.2967    8.4757   53.3443 C   0  0  0  0  0  0  0  0  0  0  0  0
   26.8248    9.1489   52.3797 O   0  0  0  0  0  0  0  0  0  0  0  0
   25.2816    7.6325   52.9567 O   0  0  0  0  0  0  0  0  0  0  0  0
   23.9956    8.2134   52.6793 C   0  0  0  0  0  0  0  0  0  0  0  0
   22.9796    7.2121   52.3014 C   0  0  0  0  0  0  0  0  0  0  0  0
   21.6299    7.4342   52.6278 N   0  0  0  0  0  0  0  0  0  0  0  0
   20.7961    6.3845   53.0073 C   0  0  0  0  0  0  0  0  0  0  0  0
   21.0440    8.3171   51.6572 C   0  0  0  0  0  0  0  0  0  0  0  0
   21.2392    9.7523   51.9395 C   0  0  0  0  0  0  0  0  0  0  0  0
   21.3543   10.7253   50.9636 C   0  0  0  0  0  0  0  0  0  0  0  0
   21.5359   12.0568   51.2696 C   0  0  0  0  0  0  0  0  0  0  0  0
   21.6055   12.4334   52.5968 C   0  0  0  0  0  0  0  0  0  0  0  0
   21.4929   11.4783   53.5834 C   0  0  0  0  0  0  0  0  0  0  0  0
   21.3137   10.1663   53.2544 C   0  0  0  0  0  0  0  0  0  0  0  0
 20 21  1  0  0  0
 21 18  1  0  0  0
 18 19  2  0  0  0
 18  1  1  0  0  0
  1  2  1  0  0  0
  2  3  1  0  0  0
  2  4  2  0  0  0
  4  5  1  0  0  0
  5  6  1  0  0  0
  5  7  2  0  0  0
  7 22  1  0  0  0
 22 23  2  0  0  0
 22 24  1  0  0  0
 24 25  1  0  0  0
 25 26  1  0  0  0
 26 27  1  0  0  0
 27 28  1  0  0  0
 27 29  1  0  0  0
 29 30  1  0  0  0
 30 31  2  0  0  0
 31 32  1  0  0  0
 32 33  2  0  0  0
 33 34  1  0  0  0
 34 35  2  0  0  0
  7  8  1  0  0  0
  8  9  1  0  0  0
  9 10  2  0  0  0
 10 11  1  0  0  0
 11 12  2  0  0  0
 12 13  1  0  0  0
 13 15  1  0  0  0
 15 16  2  0  0  0
 15 17  1  0  0  0
 13 14  2  0  0  0
  8  1  1  0  0  0
 14  9  1  0  0  0
 35 30  1  0  0  0
M  CHG 1  15   1
M  CHG 1  17  -1
M  END
> <minimizedAffinity>
19.09201

> <CNNscore>
0.5507643223

> <CNNaffinity>
6.7189521790

> <CNN_VS>
3.7005591393

> <CNNaffinity_variance>
0.6283257008

$$$$
[H]c1c([H])c([H])c(C([H])([H])N(C([H])([H])[H])C([H])([H])C([H])([H])OC(=O)C2=C(C([H])([H])[H])N=C(C([H])([H])[H])C([H])(C(=O)OC([H])([H])[H])C2([H])c2c([H])c([H])c([H])c([N+](=O)[O-])c2[H])c([H])c1[H]


 35 37  0  0  0  0  0  0  0  0999 V2000
   26.6498    9.5576   56.7493 C   0  0  0  0  0  0  0  0  0  0  0  0
   27.9458    8.9005   56.9484 C   0  0  0  0  0  0  0  0  0  0  0  0
   28.5487    9.0089   58.3396 C   0  0  0  0  0  0  0  0  0  0  0  0
   28.5931    8.2619   56.0801 N   0  0  0  0  0  0  0  0  0  0  0  0
   28.0979    8.1119   54.7639 C   0  0  0  0  0  0  0  0  0  0  0  0
   28.9556    7.3495   53.7888 C   0  0  0  0  0  0  0  0  0  0  0  0
   26.9384    8.6449   54.4405 C   0  0  0  0  0  0  0  0  0  0  0  0
   26.0810    9.3855   55.4195 C   0  0  0  0  0  0  0  0  0  0  0  0
   24.7408    8.7248   55.4352 C   0  0  0  0  0  0  0  0  0  0  0  0
   24.5773    7.3671   55.4309 C   0  0  0  0  0  0  0  0  0  0  0  0
   23.3248    6.7884   55.4670 C   0  0  0  0  0  0  0  0  0  0  0  0
   22.1981    7.6028   55.5088 C   0  0  0  0  0  0  0  0  0  0  0  0
   22.3542    8.9795   55.5135 C   0  0  0  0  0  0  0  0  0  0  0  0
   23.6257    9.5213   55.4765 C   0  0  0  0  0  0  0  0  0  0  0  0
   21.1905    9.7900   55.5569 N   0  0  0  0  0  0  0  0  0  0  0  0
   20.0821    9.2322   55.5444 O   0  0  0  0  0  0  0  0  0  0  0  0
   21.2358   11.1543   55.6115 O   0  0  0  0  0  0  0  0  0  0  0  0
   26.8746   11.0120   57.1006 C   0  0  0  0  0  0  0  0  0  0  0  0
   26.0272   11.8786   56.8875 O   0  0  0  0  0  0  0  0  0  0  0  0
   28.1280   12.2625   58.7718 C   0  0  0  0  0  0  0  0  0  0  0  0
   28.0806   11.3504   57.6789 O   0  0  0  0  0  0  0  0  0  0  0  0
   26.4266    8.4954   53.0875 C   0  0  0  0  0  0  0  0  0  0  0  0
   27.2322    8.7834   52.1229 O   0  0  0  0  0  0  0  0  0  0  0  0
   25.1803    8.0809   52.6795 O   0  0  0  0  0  0  0  0  0  0  0  0
   24.1244    9.0568   52.6510 C   0  0  0  0  0  0  0  0  0  0  0  0
   22.8376    8.5012   52.1890 C   0  0  0  0  0  0  0  0  0  0  0  0
   21.8019    9.3722   51.8065 N   0  0  0  0  0  0  0  0  0  0  0  0
   21.7115   10.6606   52.3290 C   0  0  0  0  0  0  0  0  0  0  0  0
   20.5547    8.6586   51.8067 C   0  0  0  0  0  0  0  0  0  0  0  0
   20.6084    7.3335   52.4539 C   0  0  0  0  0  0  0  0  0  0  0  0
   21.7671    6.5959   52.6143 C   0  0  0  0  0  0  0  0  0  0  0  0
   21.7745    5.3605   53.2253 C   0  0  0  0  0  0  0  0  0  0  0  0
   20.5838    4.8403   53.6940 C   0  0  0  0  0  0  0  0  0  0  0  0
   19.4189    5.5603   53.5435 C   0  0  0  0  0  0  0  0  0  0  0  0
   19.4380    6.7813   52.9347 C   0  0  0  0  0  0  0  0  0  0  0  0
 20 21  1  0  0  0
 21 18  1  0  0  0
 18 19  2  0  0  0
 18  1  1  0  0  0
  1  2  1  0  0  0
  2  3  1  0  0  0
  2  4  2  0  0  0
  4  5  1  0  0  0
  5  6  1  0  0  0
  5  7  2  0  0  0
  7 22  1  0  0  0
 22 23  2  0  0  0
 22 24  1  0  0  0
 24 25  1  0  0  0
 25 26  1  0  0  0
 26 27  1  0  0  0
 27 28  1  0  0  0
 27 29  1  0  0  0
 29 30  1  0  0  0
 30 31  2  0  0  0
 31 32  1  0  0  0
 32 33  2  0  0  0
 33 34  1  0  0  0
 34 35  2  0  0  0
  7  8  1  0  0  0
  8  9  1  0  0  0
  9 10  2  0  0  0
 10 11  1  0  0  0
 11 12  2  0  0  0
 12 13  1  0  0  0
 13 15  1  0  0  0
 15 16  2  0  0  0
 15 17  1  0  0  0
 13 14  2  0  0  0
  8  1  1  0  0  0
 14  9  1  0  0  0
 35 30  1  0  0  0
M  CHG 1  15   1
M  CHG 1  17  -1
M  END
> <minimizedAffinity>
23.14644

> <CNNscore>
0.5407762527

> <CNNaffinity>
6.3808960915

> <CNN_VS>
3.4506371021

> <CNNaffinity_variance>
0.7413480878

$$$$
[H]c1c([H])c([H])c(C([H])([H])N(C([H])([H])[H])C([H])([H])C([H])([H])OC(=O)C2=C(C([H])([H])[H])N=C(C([H])([H])[H])C([H])(C(=O)OC([H])([H])[H])C2([H])c2c([H])c([H])c([H])c([N+](=O)[O-])c2[H])c([H])c1[H]


 35 37  0  0  0  0  0  0  0  0999 V2000
   21.7717    9.3716   53.6854 C   0  0  0  0  0  0  0  0  0  0  0  0
   21.7403   10.1912   54.9012 C   0  0  0  0  0  0  0  0  0  0  0  0
   20.4563   10.9628   55.1598 C   0  0  0  0  0  0  0  0  0  0  0  0
   22.6704   10.3088   55.7388 N   0  0  0  0  0  0  0  0  0  0  0  0
   23.8944    9.6202   55.5723 C   0  0  0  0  0  0  0  0  0  0  0  0
   24.9565    9.8424   56.6166 C   0  0  0  0  0  0  0  0  0  0  0  0
   24.0643    8.8390   54.5264 C   0  0  0  0  0  0  0  0  0  0  0  0
   22.9976    8.6069   53.5015 C   0  0  0  0  0  0  0  0  0  0  0  0
   22.7637    7.1332   53.4199 C   0  0  0  0  0  0  0  0  0  0  0  0
   23.7739    6.2238   53.2697 C   0  0  0  0  0  0  0  0  0  0  0  0
   23.5253    4.8672   53.2187 C   0  0  0  0  0  0  0  0  0  0  0  0
   22.2161    4.4093   53.3224 C   0  0  0  0  0  0  0  0  0  0  0  0
   21.1862    5.3235   53.4748 C   0  0  0  0  0  0  0  0  0  0  0  0
   21.4757    6.6746   53.5214 C   0  0  0  0  0  0  0  0  0  0  0  0
   19.8590    4.8330   53.5789 N   0  0  0  0  0  0  0  0  0  0  0  0
   18.9266    5.5758   53.2342 O   0  0  0  0  0  0  0  0  0  0  0  0
   19.5623    3.5821   54.0412 O   0  0  0  0  0  0  0  0  0  0  0  0
   21.5084   10.3294   52.5440 C   0  0  0  0  0  0  0  0  0  0  0  0
   21.6965   11.5413   52.6459 O   0  0  0  0  0  0  0  0  0  0  0  0
   20.5797    8.4523   51.3024 C   0  0  0  0  0  0  0  0  0  0  0  0
   21.0417    9.7983   51.3594 O   0  0  0  0  0  0  0  0  0  0  0  0
   25.3222    8.1310   54.3498 C   0  0  0  0  0  0  0  0  0  0  0  0
   25.4169    6.9643   54.8903 O   0  0  0  0  0  0  0  0  0  0  0  0
   26.4498    8.5349   53.6737 O   0  0  0  0  0  0  0  0  0  0  0  0
   27.6985    8.5283   54.3870 C   0  0  0  0  0  0  0  0  0  0  0  0
   27.5263    8.5712   55.8520 C   0  0  0  0  0  0  0  0  0  0  0  0
   27.9767    9.6920   56.5721 N   0  0  0  0  0  0  0  0  0  0  0  0
   28.9076   10.5742   56.0277 C   0  0  0  0  0  0  0  0  0  0  0  0
   28.2693    9.3035   57.9243 C   0  0  0  0  0  0  0  0  0  0  0  0
   28.5805   10.4267   58.8294 C   0  0  0  0  0  0  0  0  0  0  0  0
   28.0723   11.7044   58.6820 C   0  0  0  0  0  0  0  0  0  0  0  0
   28.3881   12.7268   59.5506 C   0  0  0  0  0  0  0  0  0  0  0  0
   29.2417   12.4673   60.6052 C   0  0  0  0  0  0  0  0  0  0  0  0
   29.7581   11.2005   60.7686 C   0  0  0  0  0  0  0  0  0  0  0  0
   29.4301   10.2052   59.8947 C   0  0  0  0  0  0  0  0  0  0  0  0
 20 21  1  0  0  0
 21 18  1  0  0  0
 18 19  2  0  0  0
 18  1  1  0  0  0
  1  2  1  0  0  0
  2  3  1  0  0  0
  2  4  2  0  0  0
  4  5  1  0  0  0
  5  6  1  0  0  0
  5  7  2  0  0  0
  7 22  1  0  0  0
 22 23  2  0  0  0
 22 24  1  0  0  0
 24 25  1  0  0  0
 25 26  1  0  0  0
 26 27  1  0  0  0
 27 28  1  0  0  0
 27 29  1  0  0  0
 29 30  1  0  0  0
 30 31  2  0  0  0
 31 32  1  0  0  0
 32 33  2  0  0  0
 33 34  1  0  0  0
 34 35  2  0  0  0
  7  8  1  0  0  0
  8  9  1  0  0  0
  9 10  2  0  0  0
 10 11  1  0  0  0
 11 12  2  0  0  0
 12 13  1  0  0  0
 13 15  1  0  0  0
 15 16  2  0  0  0
 15 17  1  0  0  0
 13 14  2  0  0  0
  8  1  1  0  0  0
 14  9  1  0  0  0
 35 30  1  0  0  0
M  CHG 1  15   1
M  CHG 1  17  -1
M  END
> <minimizedAffinity>
12.09158

> <CNNscore>
0.5100230575

> <CNNaffinity>
6.7190718651

> <CNN_VS>
3.4268815517

> <CNNaffinity_variance>
0.3077507615

$$$$
[H]c1c([H])c([H])c(C([H])([H])N(C([H])([H])[H])C([H])([H])C([H])([H])OC(=O)C2=C(C([H])([H])[H])N=C(C([H])([H])[H])C([H])(C(=O)OC([H])([H])[H])C2([H])c2c([H])c([H])c([H])c([N+](=O)[O-])c2[H])c([H])c1[H]


 35 37  0  0  0  0  0  0  0  0999 V2000
   22.9130    9.9307   54.0503 C   0  0  0  0  0  0  0  0  0  0  0  0
   22.0619   10.2090   52.8889 C   0  0  0  0  0  0  0  0  0  0  0  0
   21.5159   11.6234   52.7781 C   0  0  0  0  0  0  0  0  0  0  0  0
   21.7494    9.3906   51.9871 N   0  0  0  0  0  0  0  0  0  0  0  0
   22.2204    8.0574   52.0157 C   0  0  0  0  0  0  0  0  0  0  0  0
   21.7734    7.1457   50.9035 C   0  0  0  0  0  0  0  0  0  0  0  0
   23.0026    7.6649   52.9992 C   0  0  0  0  0  0  0  0  0  0  0  0
   23.4593    8.5811   54.0919 C   0  0  0  0  0  0  0  0  0  0  0  0
   24.9532    8.5527   54.1092 C   0  0  0  0  0  0  0  0  0  0  0  0
   25.6799    8.1357   55.1900 C   0  0  0  0  0  0  0  0  0  0  0  0
   27.0594    8.1020   55.1658 C   0  0  0  0  0  0  0  0  0  0  0  0
   27.7313    8.5012   54.0153 C   0  0  0  0  0  0  0  0  0  0  0  0
   27.0033    8.9252   52.9154 C   0  0  0  0  0  0  0  0  0  0  0  0
   25.6223    8.9448   52.9786 C   0  0  0  0  0  0  0  0  0  0  0  0
   27.7104    9.3273   51.7530 N   0  0  0  0  0  0  0  0  0  0  0  0
   28.5800   10.2054   51.8654 O   0  0  0  0  0  0  0  0  0  0  0  0
   27.4768    8.7922   50.5179 O   0  0  0  0  0  0  0  0  0  0  0  0
   22.0639   10.2506   55.2611 C   0  0  0  0  0  0  0  0  0  0  0  0
   21.2928   11.2093   55.2888 O   0  0  0  0  0  0  0  0  0  0  0  0
   21.6702    8.0919   56.3159 C   0  0  0  0  0  0  0  0  0  0  0  0
   22.1779    9.4219   56.3582 O   0  0  0  0  0  0  0  0  0  0  0  0
   23.4871    6.2942   53.0340 C   0  0  0  0  0  0  0  0  0  0  0  0
   24.5629    6.0377   52.3713 O   0  0  0  0  0  0  0  0  0  0  0  0
   22.9522    5.2084   53.6871 O   0  0  0  0  0  0  0  0  0  0  0  0
   22.3024    5.4376   54.9494 C   0  0  0  0  0  0  0  0  0  0  0  0
   20.8306    5.4599   54.8449 C   0  0  0  0  0  0  0  0  0  0  0  0
   20.2225    5.3794   53.5795 N   0  0  0  0  0  0  0  0  0  0  0  0
   19.4466    6.4247   53.0829 C   0  0  0  0  0  0  0  0  0  0  0  0
   19.6187    4.0849   53.4224 C   0  0  0  0  0  0  0  0  0  0  0  0
   18.3273    3.9241   54.1181 C   0  0  0  0  0  0  0  0  0  0  0  0
   17.1008    4.2251   53.5547 C   0  0  0  0  0  0  0  0  0  0  0  0
   15.9160    4.0603   54.2393 C   0  0  0  0  0  0  0  0  0  0  0  0
   15.9540    3.5777   55.5330 C   0  0  0  0  0  0  0  0  0  0  0  0
   17.1664    3.2722   56.1115 C   0  0  0  0  0  0  0  0  0  0  0  0
   18.3257    3.4444   55.4126 C   0  0  0  0  0  0  0  0  0  0  0  0
 20 21  1  0  0  0
 21 18  1  0  0  0
 18 19  2  0  0  0
 18  1  1  0  0  0
  1  2  1  0  0  0
  2  3  1  0  0  0
  2  4  2  0  0  0
  4  5  1  0  0  0
  5  6  1  0  0  0
  5  7  2  0  0  0
  7 22  1  0  0  0
 22 23  2  0  0  0
 22 24  1  0  0  0
 24 25  1  0  0  0
 25 26  1  0  0  0
 26 27  1  0  0  0
 27 28  1  0  0  0
 27 29  1  0  0  0
 29 30  1  0  0  0
 30 31  2  0  0  0
 31 32  1  0  0  0
 32 33  2  0  0  0
 33 34  1  0  0  0
 34 35  2  0  0  0
  7  8  1  0  0  0
  8  9  1  0  0  0
  9 10  2  0  0  0
 10 11  1  0  0  0
 11 12  2  0  0  0
 12 13  1  0  0  0
 13 15  1  0  0  0
 15 16  2  0  0  0
 15 17  1  0  0  0
 13 14  2  0  0  0
  8  1  1  0  0  0
 14  9  1  0  0  0
 35 30  1  0  0  0
M  CHG 1  15   1
M  CHG 1  17  -1
M  END
> <minimizedAffinity>
29.50755

> <CNNscore>
0.5064948201

> <CNNaffinity>
6.4120469093

> <CNN_VS>
3.2476685047

> <CNNaffinity_variance>
0.9876538515

$$$$
[H]c1c([H])c([H])c(C([H])([H])N(C([H])([H])[H])C([H])([H])C([H])([H])OC(=O)C2=C(C([H])([H])[H])N=C(C([H])([H])[H])C([H])(C(=O)OC([H])([H])[H])C2([H])c2c([H])c([H])c([H])c([N+](=O)[O-])c2[H])c([H])c1[H]


 35 37  0  0  0  0  0  0  0  0999 V2000
   26.7566    9.9449   56.9671 C   0  0  0  0  0  0  0  0  0  0  0  0
   27.9237    9.1041   57.2529 C   0  0  0  0  0  0  0  0  0  0  0  0
   28.5103    9.2193   58.6505 C   0  0  0  0  0  0  0  0  0  0  0  0
   28.4739    8.3049   56.4533 N   0  0  0  0  0  0  0  0  0  0  0  0
   27.9855    8.1371   55.1367 C   0  0  0  0  0  0  0  0  0  0  0  0
   28.7250    7.1739   54.2460 C   0  0  0  0  0  0  0  0  0  0  0  0
   26.9349    8.8243   54.7401 C   0  0  0  0  0  0  0  0  0  0  0  0
   26.1921    9.7661   55.6363 C   0  0  0  0  0  0  0  0  0  0  0  0
   24.7618    9.3339   55.6584 C   0  0  0  0  0  0  0  0  0  0  0  0
   24.3667    8.0782   56.0289 C   0  0  0  0  0  0  0  0  0  0  0  0
   23.0348    7.7174   56.0584 C   0  0  0  0  0  0  0  0  0  0  0  0
   22.0672    8.6512   55.7032 C   0  0  0  0  0  0  0  0  0  0  0  0
   22.4583    9.9259   55.3265 C   0  0  0  0  0  0  0  0  0  0  0  0
   23.8025   10.2491   55.3095 C   0  0  0  0  0  0  0  0  0  0  0  0
   21.4536   10.8615   54.9689 N   0  0  0  0  0  0  0  0  0  0  0  0
   20.4951   11.0221   55.7407 O   0  0  0  0  0  0  0  0  0  0  0  0
   21.4939   11.5918   53.8150 O   0  0  0  0  0  0  0  0  0  0  0  0
   27.2096   11.3663   57.2192 C   0  0  0  0  0  0  0  0  0  0  0  0
   26.6027   12.3390   56.7720 O   0  0  0  0  0  0  0  0  0  0  0  0
   28.3219   12.3996   59.1226 C   0  0  0  0  0  0  0  0  0  0  0  0
   28.3456   11.5491   57.9804 O   0  0  0  0  0  0  0  0  0  0  0  0
   26.4309    8.6568   53.3863 C   0  0  0  0  0  0  0  0  0  0  0  0
   27.1072    9.2102   52.4384 O   0  0  0  0  0  0  0  0  0  0  0  0
   25.3129    7.9772   52.9619 O   0  0  0  0  0  0  0  0  0  0  0  0
   25.2486    6.5639   53.2195 C   0  0  0  0  0  0  0  0  0  0  0  0
   23.9082    5.9945   52.9809 C   0  0  0  0  0  0  0  0  0  0  0  0
   23.0014    5.8804   54.0498 N   0  0  0  0  0  0  0  0  0  0  0  0
   23.1935    4.9440   55.0634 C   0  0  0  0  0  0  0  0  0  0  0  0
   21.6580    5.9152   53.5408 C   0  0  0  0  0  0  0  0  0  0  0  0
   21.3375    7.1142   52.7424 C   0  0  0  0  0  0  0  0  0  0  0  0
   20.1789    7.2657   52.0028 C   0  0  0  0  0  0  0  0  0  0  0  0
   19.9170    8.4030   51.2697 C   0  0  0  0  0  0  0  0  0  0  0  0
   20.8435    9.4276   51.2732 C   0  0  0  0  0  0  0  0  0  0  0  0
   22.0039    9.2952   52.0040 C   0  0  0  0  0  0  0  0  0  0  0  0
   22.2398    8.1588   52.7216 C   0  0  0  0  0  0  0  0  0  0  0  0
 20 21  1  0  0  0
 21 18  1  0  0  0
 18 19  2  0  0  0
 18  1  1  0  0  0
  1  2  1  0  0  0
  2  3  1  0  0  0
  2  4  2  0  0  0
  4  5  1  0  0  0
  5  6  1  0  0  0
  5  7  2  0  0  0
  7 22  1  0  0  0
 22 23  2  0  0  0
 22 24  1  0  0  0
 24 25  1  0  0  0
 25 26  1  0  0  0
 26 27  1  0  0  0
 27 28  1  0  0  0
 27 29  1  0  0  0
 29 30  1  0  0  0
 30 31  2  0  0  0
 31 32  1  0  0  0
 32 33  2  0  0  0
 33 34  1  0  0  0
 34 35  2  0  0  0
  7  8  1  0  0  0
  8  9  1  0  0  0
  9 10  2  0  0  0
 10 11  1  0  0  0
 11 12  2  0  0  0
 12 13  1  0  0  0
 13 15  1  0  0  0
 15 16  2  0  0  0
 15 17  1  0  0  0
 13 14  2  0  0  0
  8  1  1  0  0  0
 14  9  1  0  0  0
 35 30  1  0  0  0
M  CHG 1  15   1
M  CHG 1  17  -1
M  END
> <minimizedAffinity>
22.43158

> <CNNscore>
0.5037550330

> <CNNaffinity>
6.3361558914

> <CNN_VS>
3.1918704510

> <CNNaffinity_variance>
0.5211185217

$$$$
[H]c1c([H])c([H])c(C([H])([H])N(C([H])([H])[H])C([H])([H])C([H])([H])OC(=O)C2=C(C([H])([H])[H])N=C(C([H])([H])[H])C([H])(C(=O)OC([H])([H])[H])C2([H])c2c([H])c([H])c([H])c([N+](=O)[O-])c2[H])c([H])c1[H]


 35 37  0  0  0  0  0  0  0  0999 V2000
   28.8176    9.1289   55.0151 C   0  0  0  0  0  0  0  0  0  0  0  0
   28.5161    7.9535   54.1914 C   0  0  0  0  0  0  0  0  0  0  0  0
   29.6756    7.3709   53.3997 C   0  0  0  0  0  0  0  0  0  0  0  0
   27.3964    7.3915   54.0854 N   0  0  0  0  0  0  0  0  0  0  0  0
   26.2692    7.8700   54.7929 C   0  0  0  0  0  0  0  0  0  0  0  0
   24.9664    7.1442   54.5835 C   0  0  0  0  0  0  0  0  0  0  0  0
   26.3920    8.9184   55.5797 C   0  0  0  0  0  0  0  0  0  0  0  0
   27.6942    9.6242   55.7988 C   0  0  0  0  0  0  0  0  0  0  0  0
   27.9616    9.6310   57.2690 C   0  0  0  0  0  0  0  0  0  0  0  0
   27.9841    8.4946   58.0293 C   0  0  0  0  0  0  0  0  0  0  0  0
   28.2551    8.5337   59.3821 C   0  0  0  0  0  0  0  0  0  0  0  0
   28.5123    9.7574   59.9911 C   0  0  0  0  0  0  0  0  0  0  0  0
   28.4917   10.9139   59.2285 C   0  0  0  0  0  0  0  0  0  0  0  0
   28.2160   10.8337   57.8761 C   0  0  0  0  0  0  0  0  0  0  0  0
   28.7575   12.1504   59.8715 N   0  0  0  0  0  0  0  0  0  0  0  0
   29.7581   12.2332   60.6007 O   0  0  0  0  0  0  0  0  0  0  0  0
   27.9624   13.2516   59.7241 O   0  0  0  0  0  0  0  0  0  0  0  0
   29.3593   10.1671   54.0569 C   0  0  0  0  0  0  0  0  0  0  0  0
   28.9750   10.2497   52.8907 O   0  0  0  0  0  0  0  0  0  0  0  0
   30.1023   12.4459   54.4841 C   0  0  0  0  0  0  0  0  0  0  0  0
   30.3165   11.0387   54.5338 O   0  0  0  0  0  0  0  0  0  0  0  0
   25.2350    9.4153   56.3071 C   0  0  0  0  0  0  0  0  0  0  0  0
   25.3597    9.5473   57.5835 O   0  0  0  0  0  0  0  0  0  0  0  0
   24.0001    9.7739   55.8190 O   0  0  0  0  0  0  0  0  0  0  0  0
   22.8574    9.0255   56.2688 C   0  0  0  0  0  0  0  0  0  0  0  0
   22.7467    7.7009   55.6279 C   0  0  0  0  0  0  0  0  0  0  0  0
   21.6129    7.3961   54.8538 N   0  0  0  0  0  0  0  0  0  0  0  0
   21.7262    6.7170   53.6425 C   0  0  0  0  0  0  0  0  0  0  0  0
   20.7531    8.5460   54.7945 C   0  0  0  0  0  0  0  0  0  0  0  0
   21.0564    9.4801   53.6931 C   0  0  0  0  0  0  0  0  0  0  0  0
   21.0733    9.1234   52.3571 C   0  0  0  0  0  0  0  0  0  0  0  0
   21.3616   10.0275   51.3575 C   0  0  0  0  0  0  0  0  0  0  0  0
   21.6436   11.3353   51.7012 C   0  0  0  0  0  0  0  0  0  0  0  0
   21.6316   11.7098   53.0270 C   0  0  0  0  0  0  0  0  0  0  0  0
   21.3432   10.7956   53.9981 C   0  0  0  0  0  0  0  0  0  0  0  0
 20 21  1  0  0  0
 21 18  1  0  0  0
 18 19  2  0  0  0
 18  1  1  0  0  0
  1  2  1  0  0  0
  2  3  1  0  0  0
  2  4  2  0  0  0
  4  5  1  0  0  0
  5  6  1  0  0  0
  5  7  2  0  0  0
  7 22  1  0  0  0
 22 23  2  0  0  0
 22 24  1  0  0  0
 24 25  1  0  0  0
 25 26  1  0  0  0
 26 27  1  0  0  0
 27 28  1  0  0  0
 27 29  1  0  0  0
 29 30  1  0  0  0
 30 31  2  0  0  0
 31 32  1  0  0  0
 32 33  2  0  0  0
 33 34  1  0  0  0
 34 35  2  0  0  0
  7  8  1  0  0  0
  8  9  1  0  0  0
  9 10  2  0  0  0
 10 11  1  0  0  0
 11 12  2  0  0  0
 12 13  1  0  0  0
 13 15  1  0  0  0
 15 16  2  0  0  0
 15 17  1  0  0  0
 13 14  2  0  0  0
  8  1  1  0  0  0
 14  9  1  0  0  0
 35 30  1  0  0  0
M  CHG 1  15   1
M  CHG 1  17  -1
M  END
> <minimizedAffinity>
21.24120

> <CNNscore>
0.5016110539

> <CNNaffinity>
6.3289332390

> <CNN_VS>
3.1746628284

> <CNNaffinity_variance>
0.4332880974

$$$$
[H]c1c([H])c([H])c(C([H])([H])N(C([H])([H])[H])C([H])([H])C([H])([H])OC(=O)C2=C(C([H])([H])[H])N=C(C([H])([H])[H])C([H])(C(=O)OC([H])([H])[H])C2([H])c2c([H])c([H])c([H])c([N+](=O)[O-])c2[H])c([H])c1[H]


 35 37  0  0  0  0  0  0  0  0999 V2000
   23.7971    6.3830   54.8106 C   0  0  0  0  0  0  0  0  0  0  0  0
   22.7636    6.2702   55.8450 C   0  0  0  0  0  0  0  0  0  0  0  0
   22.5687    4.8912   56.4542 C   0  0  0  0  0  0  0  0  0  0  0  0
   22.0347    7.2033   56.2680 N   0  0  0  0  0  0  0  0  0  0  0  0
   22.1576    8.5156   55.7555 C   0  0  0  0  0  0  0  0  0  0  0  0
   21.2249    9.5606   56.3088 C   0  0  0  0  0  0  0  0  0  0  0  0
   23.0520    8.7687   54.8232 C   0  0  0  0  0  0  0  0  0  0  0  0
   23.9897    7.7299   54.2906 C   0  0  0  0  0  0  0  0  0  0  0  0
   25.3817    8.2391   54.4806 C   0  0  0  0  0  0  0  0  0  0  0  0
   26.2761    8.3687   53.4542 C   0  0  0  0  0  0  0  0  0  0  0  0
   27.5484    8.8624   53.6605 C   0  0  0  0  0  0  0  0  0  0  0  0
   27.9345    9.2386   54.9426 C   0  0  0  0  0  0  0  0  0  0  0  0
   27.0349    9.1107   55.9885 C   0  0  0  0  0  0  0  0  0  0  0  0
   25.7693    8.6118   55.7417 C   0  0  0  0  0  0  0  0  0  0  0  0
   27.4510    9.5012   57.2874 N   0  0  0  0  0  0  0  0  0  0  0  0
   27.2088    8.7412   58.2381 O   0  0  0  0  0  0  0  0  0  0  0  0
   28.1048   10.6743   57.5379 O   0  0  0  0  0  0  0  0  0  0  0  0
   23.4022    5.3962   53.7338 C   0  0  0  0  0  0  0  0  0  0  0  0
   23.7750    4.2234   53.7478 O   0  0  0  0  0  0  0  0  0  0  0  0
   23.1252    6.6980   51.6952 C   0  0  0  0  0  0  0  0  0  0  0  0
   22.5953    5.8540   52.7127 O   0  0  0  0  0  0  0  0  0  0  0  0
   23.1801   10.1162   54.2915 C   0  0  0  0  0  0  0  0  0  0  0  0
   23.7214   10.9986   55.0599 O   0  0  0  0  0  0  0  0  0  0  0  0
   22.7998   10.5953   53.0596 O   0  0  0  0  0  0  0  0  0  0  0  0
   21.9747    9.7522   52.2370 C   0  0  0  0  0  0  0  0  0  0  0  0
   20.8496    9.1479   52.9764 C   0  0  0  0  0  0  0  0  0  0  0  0
   20.4019    7.8606   52.6300 N   0  0  0  0  0  0  0  0  0  0  0  0
   20.0113    7.5577   51.3273 C   0  0  0  0  0  0  0  0  0  0  0  0
   19.4880    7.3878   53.6331 C   0  0  0  0  0  0  0  0  0  0  0  0
   19.2426    5.9331   53.5998 C   0  0  0  0  0  0  0  0  0  0  0  0
   20.1889    4.9959   53.2276 C   0  0  0  0  0  0  0  0  0  0  0  0
   19.9191    3.6444   53.2101 C   0  0  0  0  0  0  0  0  0  0  0  0
   18.6602    3.2101   53.5770 C   0  0  0  0  0  0  0  0  0  0  0  0
   17.7040    4.1287   53.9510 C   0  0  0  0  0  0  0  0  0  0  0  0
   17.9960    5.4616   53.9598 C   0  0  0  0  0  0  0  0  0  0  0  0
 20 21  1  0  0  0
 21 18  1  0  0  0
 18 19  2  0  0  0
 18  1  1  0  0  0
  1  2  1  0  0  0
  2  3  1  0  0  0
  2  4  2  0  0  0
  4  5  1  0  0  0
  5  6  1  0  0  0
  5  7  2  0  0  0
  7 22  1  0  0  0
 22 23  2  0  0  0
 22 24  1  0  0  0
 24 25  1  0  0  0
 25 26  1  0  0  0
 26 27  1  0  0  0
 27 28  1  0  0  0
 27 29  1  0  0  0
 29 30  1  0  0  0
 30 31  2  0  0  0
 31 32  1  0  0  0
 32 33  2  0  0  0
 33 34  1  0  0  0
 34 35  2  0  0  0
  7  8  1  0  0  0
  8  9  1  0  0  0
  9 10  2  0  0  0
 10 11  1  0  0  0
 11 12  2  0  0  0
 12 13  1  0  0  0
 13 15  1  0  0  0
 15 16  2  0  0  0
 15 17  1  0  0  0
 13 14  2  0  0  0
  8  1  1  0  0  0
 14  9  1  0  0  0
 35 30  1  0  0  0
M  CHG 1  15   1
M  CHG 1  17  -1
M  END
> <minimizedAffinity>
25.31771

> <CNNscore>
0.4881092310

> <CNNaffinity>
6.3895769119

> <CNN_VS>
3.1188113689

> <CNNaffinity_variance>
0.7733270526

$$$$
[H]/C(=C(\[H])C([H])([H])C([H])([H])C([H])([H])C([H])([H])C([H])([H])C([H])([H])C([H])([H])C([H])([H])[H])C([H])([H])C([H])([H])C([H])([H])C([H])([H])C([H])([H])C([H])([H])C([H])([H])C(=O)c1nc2c([H])c([H])c([H])nc2o1


 28 29  0  0  0  0  0  0  0  0999 V2000
   23.9435    6.3552   54.0956 C   0  0  0  0  0  0  0  0  0  0  0  0
   24.5609    7.4046   53.3032 C   0  0  0  0  0  0  0  0  0  0  0  0
   25.7813    8.1191   53.6713 C   0  0  0  0  0  0  0  0  0  0  0  0
   25.9990    8.4684   55.1087 C   0  0  0  0  0  0  0  0  0  0  0  0
   27.3929    9.0155   55.3030 C   0  0  0  0  0  0  0  0  0  0  0  0
   28.1486    9.0853   54.3121 O   0  0  0  0  0  0  0  0  0  0  0  0
   27.8435    9.4467   56.5966 C   0  0  0  0  0  0  0  0  0  0  0  0
   28.0654   10.7317   56.9699 N   0  0  0  0  0  0  0  0  0  0  0  0
   28.4809   10.7675   58.2496 C   0  0  0  0  0  0  0  0  0  0  0  0
   28.8460   11.7346   59.1449 C   0  0  0  0  0  0  0  0  0  0  0  0
   29.2274   11.3816   60.4143 C   0  0  0  0  0  0  0  0  0  0  0  0
   29.2343   10.0444   60.7638 C   0  0  0  0  0  0  0  0  0  0  0  0
   28.8733    9.0728   59.8826 N   0  0  0  0  0  0  0  0  0  0  0  0
   28.5020    9.4302   58.6432 C   0  0  0  0  0  0  0  0  0  0  0  0
   28.1157    8.6846   57.6281 O   0  0  0  0  0  0  0  0  0  0  0  0
   22.7052    6.5635   54.8661 C   0  0  0  0  0  0  0  0  0  0  0  0
   22.4158    7.9782   55.2329 C   0  0  0  0  0  0  0  0  0  0  0  0
   21.0229    8.4583   54.8532 C   0  0  0  0  0  0  0  0  0  0  0  0
   20.9140    8.0149   52.4613 C   0  0  0  0  0  0  0  0  0  0  0  0
   20.5614    7.7009   53.6834 C   0  0  0  0  0  0  0  0  0  0  0  0
   21.7810    9.1194   52.1173 C   0  0  0  0  0  0  0  0  0  0  0  0
   21.0186   10.4107   51.8275 C   0  0  0  0  0  0  0  0  0  0  0  0
   21.9222   11.5043   51.3926 C   0  0  0  0  0  0  0  0  0  0  0  0
   21.4955   12.9009   51.8440 C   0  0  0  0  0  0  0  0  0  0  0  0
   21.1161   13.7668   50.7041 C   0  0  0  0  0  0  0  0  0  0  0  0
   20.5362   15.0996   50.9575 C   0  0  0  0  0  0  0  0  0  0  0  0
   18.9150   15.4325   52.8096 C   0  0  0  0  0  0  0  0  0  0  0  0
   20.3267   15.5610   52.3470 C   0  0  0  0  0  0  0  0  0  0  0  0
 27 28  1  0  0  0
 28 26  1  0  0  0
 26 25  1  0  0  0
 25 24  1  0  0  0
 24 23  1  0  0  0
 23 22  1  0  0  0
 22 21  1  0  0  0
 21 19  1  0  0  0
 19 20  2  0  0  0
 20 18  1  0  0  0
 18 17  1  0  0  0
 17 16  1  0  0  0
 16  1  1  0  0  0
  1  2  1  0  0  0
  2  3  1  0  0  0
  3  4  1  0  0  0
  4  5  1  0  0  0
  5  6  2  0  0  0
  5  7  1  0  0  0
  7  8  2  0  0  0
  8  9  1  0  0  0
  9 10  2  0  0  0
 10 11  1  0  0  0
 11 12  2  0  0  0
 12 13  1  0  0  0
 13 14  2  0  0  0
 14 15  1  0  0  0
 15  7  1  0  0  0
 14  9  1  0  0  0
M  END
> <minimizedAffinity>
3.37717

> <CNNscore>
0.5693725348

> <CNNaffinity>
6.3527956009

> <CNN_VS>
3.6171073914

> <CNNaffinity_variance>
0.0185364857

$$$$
[H]/C(=C(\[H])C([H])([H])C([H])([H])C([H])([H])C([H])([H])C([H])([H])C([H])([H])C([H])([H])C([H])([H])[H])C([H])([H])C([H])([H])C([H])([H])C([H])([H])C([H])([H])C([H])([H])C([H])([H])C(=O)c1nc2c([H])c([H])c([H])nc2o1


 28 29  0  0  0  0  0  0  0  0999 V2000
   24.8379    8.7645   55.1413 C   0  0  0  0  0  0  0  0  0  0  0  0
   26.2558    8.8821   55.4345 C   0  0  0  0  0  0  0  0  0  0  0  0
   27.3089    8.1038   54.7860 C   0  0  0  0  0  0  0  0  0  0  0  0
   28.0308    8.7070   53.6238 C   0  0  0  0  0  0  0  0  0  0  0  0
   27.0968    8.8344   52.4441 C   0  0  0  0  0  0  0  0  0  0  0  0
   25.8885    8.5696   52.6101 O   0  0  0  0  0  0  0  0  0  0  0  0
   27.5833    9.2500   51.1585 C   0  0  0  0  0  0  0  0  0  0  0  0
   27.8507   10.5273   50.7882 N   0  0  0  0  0  0  0  0  0  0  0  0
   28.2887   10.5489   49.5157 C   0  0  0  0  0  0  0  0  0  0  0  0
   28.6982   11.5035   48.6262 C   0  0  0  0  0  0  0  0  0  0  0  0
   29.0902   11.1375   47.3636 C   0  0  0  0  0  0  0  0  0  0  0  0
   29.0625    9.8003   47.0152 C   0  0  0  0  0  0  0  0  0  0  0  0
   28.6572    8.8412   47.8908 N   0  0  0  0  0  0  0  0  0  0  0  0
   28.2759    9.2111   49.1234 C   0  0  0  0  0  0  0  0  0  0  0  0
   27.8500    8.4788   50.1323 O   0  0  0  0  0  0  0  0  0  0  0  0
   23.8775    9.8498   55.4064 C   0  0  0  0  0  0  0  0  0  0  0  0
   22.5008    9.4064   55.7641 C   0  0  0  0  0  0  0  0  0  0  0  0
   21.4849    9.5251   54.6379 C   0  0  0  0  0  0  0  0  0  0  0  0
   21.6823    8.4050   52.4848 C   0  0  0  0  0  0  0  0  0  0  0  0
   22.1569    9.2557   53.3609 C   0  0  0  0  0  0  0  0  0  0  0  0
   20.4665    7.6425   52.6591 C   0  0  0  0  0  0  0  0  0  0  0  0
   20.7215    6.2029   53.1009 C   0  0  0  0  0  0  0  0  0  0  0  0
   19.5141    5.3534   52.9521 C   0  0  0  0  0  0  0  0  0  0  0  0
   19.6263    3.9690   53.5901 C   0  0  0  0  0  0  0  0  0  0  0  0
   18.4565    3.6467   54.4392 C   0  0  0  0  0  0  0  0  0  0  0  0
   17.1835    4.3643   54.2358 C   0  0  0  0  0  0  0  0  0  0  0  0
   15.6965    2.8002   53.0061 C   0  0  0  0  0  0  0  0  0  0  0  0
   15.9072    3.6169   54.2358 C   0  0  0  0  0  0  0  0  0  0  0  0
 27 28  1  0  0  0
 28 26  1  0  0  0
 26 25  1  0  0  0
 25 24  1  0  0  0
 24 23  1  0  0  0
 23 22  1  0  0  0
 22 21  1  0  0  0
 21 19  1  0  0  0
 19 20  2  0  0  0
 20 18  1  0  0  0
 18 17  1  0  0  0
 17 16  1  0  0  0
 16  1  1  0  0  0
  1  2  1  0  0  0
  2  3  1  0  0  0
  3  4  1  0  0  0
  4  5  1  0  0  0
  5  6  2  0  0  0
  5  7  1  0  0  0
  7  8  2  0  0  0
  8  9  1  0  0  0
  9 10  2  0  0  0
 10 11  1  0  0  0
 11 12  2  0  0  0
 12 13  1  0  0  0
 13 14  2  0  0  0
 14 15  1  0  0  0
 15  7  1  0  0  0
 14  9  1  0  0  0
M  END
> <minimizedAffinity>
16.58036

> <CNNscore>
0.5658209324

> <CNNaffinity>
5.8872213364

> <CNN_VS>
3.3311131001

> <CNNaffinity_variance>
0.2266435176

$$$$
[H]/C(=C(\[H])C([H])([H])C([H])([H])C([H])([H])C([H])([H])C([H])([H])C([H])([H])C([H])([H])C([H])([H])[H])C([H])([H])C([H])([H])C([H])([H])C([H])([H])C([H])([H])C([H])([H])C([H])([H])C(=O)c1nc2c([H])c([H])c([H])nc2o1


 28 29  0  0  0  0  0  0  0  0999 V2000
   24.3211    7.6671   53.9672 C   0  0  0  0  0  0  0  0  0  0  0  0
   24.1491    6.3060   53.4897 C   0  0  0  0  0  0  0  0  0  0  0  0
   23.1274    5.3772   53.9679 C   0  0  0  0  0  0  0  0  0  0  0  0
   21.7140    5.8560   54.0616 C   0  0  0  0  0  0  0  0  0  0  0  0
   21.6674    7.2000   54.7483 C   0  0  0  0  0  0  0  0  0  0  0  0
   21.6875    7.2323   55.9958 O   0  0  0  0  0  0  0  0  0  0  0  0
   21.6011    8.4162   53.9875 C   0  0  0  0  0  0  0  0  0  0  0  0
   21.7551    9.6695   54.4830 N   0  0  0  0  0  0  0  0  0  0  0  0
   21.6305   10.5690   53.4895 C   0  0  0  0  0  0  0  0  0  0  0  0
   21.6841   11.9307   53.3750 C   0  0  0  0  0  0  0  0  0  0  0  0
   21.5026   12.5209   52.1502 C   0  0  0  0  0  0  0  0  0  0  0  0
   21.2676   11.7194   51.0490 C   0  0  0  0  0  0  0  0  0  0  0  0
   21.2120   10.3639   51.1496 N   0  0  0  0  0  0  0  0  0  0  0  0
   21.3911    9.7975   52.3533 C   0  0  0  0  0  0  0  0  0  0  0  0
   21.3828    8.5264   52.6994 O   0  0  0  0  0  0  0  0  0  0  0  0
   25.6317    8.2135   54.3598 C   0  0  0  0  0  0  0  0  0  0  0  0
   25.7125    8.7300   55.7549 C   0  0  0  0  0  0  0  0  0  0  0  0
   27.0393    9.3834   56.1121 C   0  0  0  0  0  0  0  0  0  0  0  0
   28.3368    8.4081   54.2970 C   0  0  0  0  0  0  0  0  0  0  0  0
   28.1328    8.5598   55.5822 C   0  0  0  0  0  0  0  0  0  0  0  0
   27.5315    9.0173   53.2624 C   0  0  0  0  0  0  0  0  0  0  0  0
   28.3432    9.4244   52.0344 C   0  0  0  0  0  0  0  0  0  0  0  0
   27.5501    9.3217   50.7846 C   0  0  0  0  0  0  0  0  0  0  0  0
   27.9721   10.2910   49.6806 C   0  0  0  0  0  0  0  0  0  0  0  0
   28.8504    9.6485   48.6762 C   0  0  0  0  0  0  0  0  0  0  0  0
   28.2795    9.1698   47.4027 C   0  0  0  0  0  0  0  0  0  0  0  0
   28.6762    8.3013   45.1097 C   0  0  0  0  0  0  0  0  0  0  0  0
   29.0520    8.2393   46.5514 C   0  0  0  0  0  0  0  0  0  0  0  0
 27 28  1  0  0  0
 28 26  1  0  0  0
 26 25  1  0  0  0
 25 24  1  0  0  0
 24 23  1  0  0  0
 23 22  1  0  0  0
 22 21  1  0  0  0
 21 19  1  0  0  0
 19 20  2  0  0  0
 20 18  1  0  0  0
 18 17  1  0  0  0
 17 16  1  0  0  0
 16  1  1  0  0  0
  1  2  1  0  0  0
  2  3  1  0  0  0
  3  4  1  0  0  0
  4  5  1  0  0  0
  5  6  2  0  0  0
  5  7  1  0  0  0
  7  8  2  0  0  0
  8  9  1  0  0  0
  9 10  2  0  0  0
 10 11  1  0  0  0
 11 12  2  0  0  0
 12 13  1  0  0  0
 13 14  2  0  0  0
 14 15  1  0  0  0
 15  7  1  0  0  0
 14  9  1  0  0  0
M  END
> <minimizedAffinity>
8.53930

> <CNNscore>
0.5525049567

> <CNNaffinity>
6.3318119049

> <CNN_VS>
3.4983575344

> <CNNaffinity_variance>
0.1359684169

$$$$
[H]/C(=C(\[H])C([H])([H])C([H])([H])C([H])([H])C([H])([H])C([H])([H])C([H])([H])C([H])([H])C([H])([H])[H])C([H])([H])C([H])([H])C([H])([H])C([H])([H])C([H])([H])C([H])([H])C([H])([H])C(=O)c1nc2c([H])c([H])c([H])nc2o1


 28 29  0  0  0  0  0  0  0  0999 V2000
   23.6884    8.2066   54.3749 C   0  0  0  0  0  0  0  0  0  0  0  0
   22.9530    7.2107   55.1348 C   0  0  0  0  0  0  0  0  0  0  0  0
   22.7008    5.8415   54.6908 C   0  0  0  0  0  0  0  0  0  0  0  0
   22.0591    5.6296   53.3570 C   0  0  0  0  0  0  0  0  0  0  0  0
   20.8658    6.5425   53.2059 C   0  0  0  0  0  0  0  0  0  0  0  0
   19.7235    6.0537   53.3238 O   0  0  0  0  0  0  0  0  0  0  0  0
   21.0365    7.9419   52.9322 C   0  0  0  0  0  0  0  0  0  0  0  0
   21.1693    8.9201   53.8625 N   0  0  0  0  0  0  0  0  0  0  0  0
   21.3093   10.1114   53.2520 C   0  0  0  0  0  0  0  0  0  0  0  0
   21.4752   11.4110   53.6441 C   0  0  0  0  0  0  0  0  0  0  0  0
   21.5862   12.4004   52.7006 C   0  0  0  0  0  0  0  0  0  0  0  0
   21.5274   12.0592   51.3626 C   0  0  0  0  0  0  0  0  0  0  0  0
   21.3627   10.7703   50.9595 N   0  0  0  0  0  0  0  0  0  0  0  0
   21.2553    9.8106   51.8917 C   0  0  0  0  0  0  0  0  0  0  0  0
   21.0925    8.5108   51.7523 O   0  0  0  0  0  0  0  0  0  0  0  0
   25.0550    7.9771   53.8747 C   0  0  0  0  0  0  0  0  0  0  0  0
   26.0893    7.7670   54.9262 C   0  0  0  0  0  0  0  0  0  0  0  0
   26.1968    8.8940   55.9426 C   0  0  0  0  0  0  0  0  0  0  0  0
   28.5053    9.0591   55.1857 C   0  0  0  0  0  0  0  0  0  0  0  0
   27.6129    9.2326   56.1291 C   0  0  0  0  0  0  0  0  0  0  0  0
   28.2166    8.5258   53.8734 C   0  0  0  0  0  0  0  0  0  0  0  0
   28.1930    9.5965   52.7844 C   0  0  0  0  0  0  0  0  0  0  0  0
   27.6970    9.0637   51.4915 C   0  0  0  0  0  0  0  0  0  0  0  0
   28.0315    9.9277   50.2758 C   0  0  0  0  0  0  0  0  0  0  0  0
   28.5284    9.1232   49.1360 C   0  0  0  0  0  0  0  0  0  0  0  0
   28.3735    9.6296   47.7589 C   0  0  0  0  0  0  0  0  0  0  0  0
   28.6182   11.9767   48.5339 C   0  0  0  0  0  0  0  0  0  0  0  0
   28.8137   11.0011   47.4233 C   0  0  0  0  0  0  0  0  0  0  0  0
 27 28  1  0  0  0
 28 26  1  0  0  0
 26 25  1  0  0  0
 25 24  1  0  0  0
 24 23  1  0  0  0
 23 22  1  0  0  0
 22 21  1  0  0  0
 21 19  1  0  0  0
 19 20  2  0  0  0
 20 18  1  0  0  0
 18 17  1  0  0  0
 17 16  1  0  0  0
 16  1  1  0  0  0
  1  2  1  0  0  0
  2  3  1  0  0  0
  3  4  1  0  0  0
  4  5  1  0  0  0
  5  6  2  0  0  0
  5  7  1  0  0  0
  7  8  2  0  0  0
  8  9  1  0  0  0
  9 10  2  0  0  0
 10 11  1  0  0  0
 11 12  2  0  0  0
 12 13  1  0  0  0
 13 14  2  0  0  0
 14 15  1  0  0  0
 15  7  1  0  0  0
 14  9  1  0  0  0
M  END
> <minimizedAffinity>
10.47505

> <CNNscore>
0.5462406874

> <CNNaffinity>
6.3744134903

> <CNN_VS>
3.4819641113

> <CNNaffinity_variance>
0.3503010869

$$$$
[H]/C(=C(\[H])C([H])([H])C([H])([H])C([H])([H])C([H])([H])C([H])([H])C([H])([H])C([H])([H])C([H])([H])[H])C([H])([H])C([H])([H])C([H])([H])C([H])([H])C([H])([H])C([H])([H])C([H])([H])C(=O)c1nc2c([H])c([H])c([H])nc2o1


 28 29  0  0  0  0  0  0  0  0999 V2000
   22.9792    8.4630   55.1998 C   0  0  0  0  0  0  0  0  0  0  0  0
   24.3687    8.5578   55.6128 C   0  0  0  0  0  0  0  0  0  0  0  0
   25.5115    8.1625   54.7924 C   0  0  0  0  0  0  0  0  0  0  0  0
   26.6146    9.1495   54.5805 C   0  0  0  0  0  0  0  0  0  0  0  0
   27.8086    8.7810   55.4283 C   0  0  0  0  0  0  0  0  0  0  0  0
   28.5672    7.8749   55.0266 O   0  0  0  0  0  0  0  0  0  0  0  0
   28.0693    9.4546   56.6695 C   0  0  0  0  0  0  0  0  0  0  0  0
   27.9728   10.7910   56.8805 N   0  0  0  0  0  0  0  0  0  0  0  0
   28.2891   11.0730   58.1580 C   0  0  0  0  0  0  0  0  0  0  0  0
   28.3709   12.1973   58.9322 C   0  0  0  0  0  0  0  0  0  0  0  0
   28.7421   12.0948   60.2487 C   0  0  0  0  0  0  0  0  0  0  0  0
   29.0278   10.8463   60.7685 C   0  0  0  0  0  0  0  0  0  0  0  0
   28.9501    9.7204   60.0089 N   0  0  0  0  0  0  0  0  0  0  0  0
   28.5858    9.8330   58.7220 C   0  0  0  0  0  0  0  0  0  0  0  0
   28.4411    8.9036   57.7996 O   0  0  0  0  0  0  0  0  0  0  0  0
   21.9381    9.3820   55.6915 C   0  0  0  0  0  0  0  0  0  0  0  0
   21.6393   10.5382   54.8006 C   0  0  0  0  0  0  0  0  0  0  0  0
   22.3060   10.4736   53.4345 C   0  0  0  0  0  0  0  0  0  0  0  0
   21.0314   10.5332   51.3605 C   0  0  0  0  0  0  0  0  0  0  0  0
   21.4395   11.1342   52.4508 C   0  0  0  0  0  0  0  0  0  0  0  0
   21.3735    9.1766   50.9962 C   0  0  0  0  0  0  0  0  0  0  0  0
   21.0134    8.1583   52.0761 C   0  0  0  0  0  0  0  0  0  0  0  0
   22.1945    7.3777   52.5203 C   0  0  0  0  0  0  0  0  0  0  0  0
   21.8679    6.1780   53.4093 C   0  0  0  0  0  0  0  0  0  0  0  0
   20.5017    6.2555   53.9755 C   0  0  0  0  0  0  0  0  0  0  0  0
   19.5490    5.1530   53.7441 C   0  0  0  0  0  0  0  0  0  0  0  0
   18.9606    2.8593   52.9941 C   0  0  0  0  0  0  0  0  0  0  0  0
   19.9834    3.9442   53.0109 C   0  0  0  0  0  0  0  0  0  0  0  0
 27 28  1  0  0  0
 28 26  1  0  0  0
 26 25  1  0  0  0
 25 24  1  0  0  0
 24 23  1  0  0  0
 23 22  1  0  0  0
 22 21  1  0  0  0
 21 19  1  0  0  0
 19 20  2  0  0  0
 20 18  1  0  0  0
 18 17  1  0  0  0
 17 16  1  0  0  0
 16  1  1  0  0  0
  1  2  1  0  0  0
  2  3  1  0  0  0
  3  4  1  0  0  0
  4  5  1  0  0  0
  5  6  2  0  0  0
  5  7  1  0  0  0
  7  8  2  0  0  0
  8  9  1  0  0  0
  9 10  2  0  0  0
 10 11  1  0  0  0
 11 12  2  0  0  0
 12 13  1  0  0  0
 13 14  2  0  0  0
 14 15  1  0  0  0
 15  7  1  0  0  0
 14  9  1  0  0  0
M  END
> <minimizedAffinity>
7.70097

> <CNNscore>
0.5319437981

> <CNNaffinity>
6.2056293488

> <CNN_VS>
3.3010461330

> <CNNaffinity_variance>
0.0429267511

$$$$
[H]/C(=C(\[H])C([H])([H])C([H])([H])C([H])([H])C([H])([H])C([H])([H])C([H])([H])C([H])([H])C([H])([H])[H])C([H])([H])C([H])([H])C([H])([H])C([H])([H])C([H])([H])C([H])([H])C([H])([H])C(=O)c1nc2c([H])c([H])c([H])nc2o1


 28 29  0  0  0  0  0  0  0  0999 V2000
   22.0406   10.2351   55.7308 C   0  0  0  0  0  0  0  0  0  0  0  0
   21.6342   10.5715   54.3774 C   0  0  0  0  0  0  0  0  0  0  0  0
   22.3089   11.5450   53.5215 C   0  0  0  0  0  0  0  0  0  0  0  0
   21.6396   11.9659   52.2524 C   0  0  0  0  0  0  0  0  0  0  0  0
   21.2568   10.7508   51.4417 C   0  0  0  0  0  0  0  0  0  0  0  0
   20.8169   10.9205   50.2861 O   0  0  0  0  0  0  0  0  0  0  0  0
   21.3935    9.4280   51.9840 C   0  0  0  0  0  0  0  0  0  0  0  0
   20.3733    8.5854   52.2825 N   0  0  0  0  0  0  0  0  0  0  0  0
   20.8654    7.4321   52.7718 C   0  0  0  0  0  0  0  0  0  0  0  0
   20.3495    6.2511   53.2292 C   0  0  0  0  0  0  0  0  0  0  0  0
   21.1923    5.2614   53.6670 C   0  0  0  0  0  0  0  0  0  0  0  0
   22.5564    5.4813   53.6357 C   0  0  0  0  0  0  0  0  0  0  0  0
   23.0822    6.6516   53.1830 N   0  0  0  0  0  0  0  0  0  0  0  0
   22.2477    7.6128   52.7572 C   0  0  0  0  0  0  0  0  0  0  0  0
   22.5122    8.8125   52.2814 O   0  0  0  0  0  0  0  0  0  0  0  0
   22.9663    9.1293   56.0324 C   0  0  0  0  0  0  0  0  0  0  0  0
   24.3674    9.3289   55.5668 C   0  0  0  0  0  0  0  0  0  0  0  0
   24.6558    8.7841   54.1759 C   0  0  0  0  0  0  0  0  0  0  0  0
   26.7263    7.5192   54.3823 C   0  0  0  0  0  0  0  0  0  0  0  0
   25.4187    7.5364   54.3027 C   0  0  0  0  0  0  0  0  0  0  0  0
   27.5639    8.6972   54.3564 C   0  0  0  0  0  0  0  0  0  0  0  0
   28.4159    8.8533   55.6143 C   0  0  0  0  0  0  0  0  0  0  0  0
   27.6363    9.4078   56.7486 C   0  0  0  0  0  0  0  0  0  0  0  0
   28.3254    9.2996   58.1087 C   0  0  0  0  0  0  0  0  0  0  0  0
   28.8797   10.5963   58.5609 C   0  0  0  0  0  0  0  0  0  0  0  0
   29.5841   10.6810   59.8545 C   0  0  0  0  0  0  0  0  0  0  0  0
   30.1242    8.2737   60.1423 C   0  0  0  0  0  0  0  0  0  0  0  0
   29.5915    9.5179   60.7680 C   0  0  0  0  0  0  0  0  0  0  0  0
 27 28  1  0  0  0
 28 26  1  0  0  0
 26 25  1  0  0  0
 25 24  1  0  0  0
 24 23  1  0  0  0
 23 22  1  0  0  0
 22 21  1  0  0  0
 21 19  1  0  0  0
 19 20  2  0  0  0
 20 18  1  0  0  0
 18 17  1  0  0  0
 17 16  1  0  0  0
 16  1  1  0  0  0
  1  2  1  0  0  0
  2  3  1  0  0  0
  3  4  1  0  0  0
  4  5  1  0  0  0
  5  6  2  0  0  0
  5  7  1  0  0  0
  7  8  2  0  0  0
  8  9  1  0  0  0
  9 10  2  0  0  0
 10 11  1  0  0  0
 11 12  2  0  0  0
 12 13  1  0  0  0
 13 14  2  0  0  0
 14 15  1  0  0  0
 15  7  1  0  0  0
 14  9  1  0  0  0
M  END
> <minimizedAffinity>
5.22276

> <CNNscore>
0.5264040828

> <CNNaffinity>
6.4237275124

> <CNN_VS>
3.3814764023

> <CNNaffinity_variance>
0.1105745435

$$$$
[H]/C(=C(\[H])C([H])([H])C([H])([H])C([H])([H])C([H])([H])C([H])([H])C([H])([H])C([H])([H])C([H])([H])[H])C([H])([H])C([H])([H])C([H])([H])C([H])([H])C([H])([H])C([H])([H])C([H])([H])C(=O)c1nc2c([H])c([H])c([H])nc2o1


 28 29  0  0  0  0  0  0  0  0999 V2000
   25.0347    8.1920   55.4640 C   0  0  0  0  0  0  0  0  0  0  0  0
   25.1294    6.9607   54.6991 C   0  0  0  0  0  0  0  0  0  0  0  0
   24.1714    5.8594   54.7692 C   0  0  0  0  0  0  0  0  0  0  0  0
   22.8599    6.0074   54.0667 C   0  0  0  0  0  0  0  0  0  0  0  0
   22.0577    7.1205   54.6973 C   0  0  0  0  0  0  0  0  0  0  0  0
   21.5363    6.9202   55.8134 O   0  0  0  0  0  0  0  0  0  0  0  0
   21.8954    8.3826   54.0316 C   0  0  0  0  0  0  0  0  0  0  0  0
   21.9005    9.5998   54.6302 N   0  0  0  0  0  0  0  0  0  0  0  0
   21.7218   10.5614   53.7053 C   0  0  0  0  0  0  0  0  0  0  0  0
   21.6390   11.9264   53.7002 C   0  0  0  0  0  0  0  0  0  0  0  0
   21.4444   12.5945   52.5182 C   0  0  0  0  0  0  0  0  0  0  0  0
   21.3354   11.8671   51.3480 C   0  0  0  0  0  0  0  0  0  0  0  0
   21.4160   10.5091   51.3397 N   0  0  0  0  0  0  0  0  0  0  0  0
   21.6066    9.8661   52.5024 C   0  0  0  0  0  0  0  0  0  0  0  0
   21.7162    8.5763   52.7474 O   0  0  0  0  0  0  0  0  0  0  0  0
   26.0358    9.2685   55.3670 C   0  0  0  0  0  0  0  0  0  0  0  0
   27.4476    8.8125   55.2310 C   0  0  0  0  0  0  0  0  0  0  0  0
   27.6980    7.8672   54.0655 C   0  0  0  0  0  0  0  0  0  0  0  0
   27.0992    9.1644   52.0936 C   0  0  0  0  0  0  0  0  0  0  0  0
   26.8019    8.2277   52.9600 C   0  0  0  0  0  0  0  0  0  0  0  0
   28.3171    9.9430   52.1149 C   0  0  0  0  0  0  0  0  0  0  0  0
   28.7257   10.4523   50.7342 C   0  0  0  0  0  0  0  0  0  0  0  0
   28.0626    9.6954   49.6437 C   0  0  0  0  0  0  0  0  0  0  0  0
   28.0816   10.3906   48.2825 C   0  0  0  0  0  0  0  0  0  0  0  0
   28.8062   11.6815   48.3226 C   0  0  0  0  0  0  0  0  0  0  0  0
   28.1181   12.9210   47.9139 C   0  0  0  0  0  0  0  0  0  0  0  0
   25.9828   14.1878   47.9849 C   0  0  0  0  0  0  0  0  0  0  0  0
   27.0424   13.4812   48.7603 C   0  0  0  0  0  0  0  0  0  0  0  0
 27 28  1  0  0  0
 28 26  1  0  0  0
 26 25  1  0  0  0
 25 24  1  0  0  0
 24 23  1  0  0  0
 23 22  1  0  0  0
 22 21  1  0  0  0
 21 19  1  0  0  0
 19 20  2  0  0  0
 20 18  1  0  0  0
 18 17  1  0  0  0
 17 16  1  0  0  0
 16  1  1  0  0  0
  1  2  1  0  0  0
  2  3  1  0  0  0
  3  4  1  0  0  0
  4  5  1  0  0  0
  5  6  2  0  0  0
  5  7  1  0  0  0
  7  8  2  0  0  0
  8  9  1  0  0  0
  9 10  2  0  0  0
 10 11  1  0  0  0
 11 12  2  0  0  0
 12 13  1  0  0  0
 13 14  2  0  0  0
 14 15  1  0  0  0
 15  7  1  0  0  0
 14  9  1  0  0  0
M  END
> <minimizedAffinity>
14.36221

> <CNNscore>
0.5166525841

> <CNNaffinity>
6.1910452843

> <CNN_VS>
3.1986196041

> <CNNaffinity_variance>
0.2469723970

$$$$
[H]/C(=C(\[H])C([H])([H])C([H])([H])C([H])([H])C([H])([H])C([H])([H])C([H])([H])C([H])([H])C([H])([H])[H])C([H])([H])C([H])([H])C([H])([H])C([H])([H])C([H])([H])C([H])([H])C([H])([H])C(=O)c1nc2c([H])c([H])c([H])nc2o1


 28 29  0  0  0  0  0  0  0  0999 V2000
   24.1451    5.9071   54.5126 C   0  0  0  0  0  0  0  0  0  0  0  0
   23.3946    7.1283   54.7485 C   0  0  0  0  0  0  0  0  0  0  0  0
   22.1688    7.2144   55.5393 C   0  0  0  0  0  0  0  0  0  0  0  0
   21.6006    8.5661   55.8320 C   0  0  0  0  0  0  0  0  0  0  0  0
   22.5967    9.6380   55.4589 C   0  0  0  0  0  0  0  0  0  0  0  0
   22.1787   10.7981   55.2663 O   0  0  0  0  0  0  0  0  0  0  0  0
   23.9941    9.3341   55.3271 C   0  0  0  0  0  0  0  0  0  0  0  0
   24.9572    9.6277   56.2360 N   0  0  0  0  0  0  0  0  0  0  0  0
   26.1514    9.1992   55.7865 C   0  0  0  0  0  0  0  0  0  0  0  0
   27.4413    9.2089   56.2407 C   0  0  0  0  0  0  0  0  0  0  0  0
   28.4383    8.6561   55.4779 C   0  0  0  0  0  0  0  0  0  0  0  0
   28.1146    8.0966   54.2563 C   0  0  0  0  0  0  0  0  0  0  0  0
   26.8355    8.0806   53.7932 N   0  0  0  0  0  0  0  0  0  0  0  0
   25.8682    8.6244   54.5483 C   0  0  0  0  0  0  0  0  0  0  0  0
   24.5750    8.7287   54.3197 O   0  0  0  0  0  0  0  0  0  0  0  0
   24.1091    5.1860   53.2284 C   0  0  0  0  0  0  0  0  0  0  0  0
   22.8618    5.3659   52.4337 C   0  0  0  0  0  0  0  0  0  0  0  0
   22.2104    6.7332   52.5788 C   0  0  0  0  0  0  0  0  0  0  0  0
   19.9923    7.4816   51.9085 C   0  0  0  0  0  0  0  0  0  0  0  0
   20.7541    6.5794   52.4761 C   0  0  0  0  0  0  0  0  0  0  0  0
   20.4763    8.7125   51.3251 C   0  0  0  0  0  0  0  0  0  0  0  0
   21.3115    9.5462   52.2947 C   0  0  0  0  0  0  0  0  0  0  0  0
   21.7067   10.8507   51.7085 C   0  0  0  0  0  0  0  0  0  0  0  0
   21.3983   12.0634   52.5863 C   0  0  0  0  0  0  0  0  0  0  0  0
   21.8363   13.3330   51.9622 C   0  0  0  0  0  0  0  0  0  0  0  0
   21.0225   13.9431   50.8934 C   0  0  0  0  0  0  0  0  0  0  0  0
   20.0091   15.3474   52.6740 C   0  0  0  0  0  0  0  0  0  0  0  0
   20.0339   14.9916   51.2262 C   0  0  0  0  0  0  0  0  0  0  0  0
 27 28  1  0  0  0
 28 26  1  0  0  0
 26 25  1  0  0  0
 25 24  1  0  0  0
 24 23  1  0  0  0
 23 22  1  0  0  0
 22 21  1  0  0  0
 21 19  1  0  0  0
 19 20  2  0  0  0
 20 18  1  0  0  0
 18 17  1  0  0  0
 17 16  1  0  0  0
 16  1  1  0  0  0
  1  2  1  0  0  0
  2  3  1  0  0  0
  3  4  1  0  0  0
  4  5  1  0  0  0
  5  6  2  0  0  0
  5  7  1  0  0  0
  7  8  2  0  0  0
  8  9  1  0  0  0
  9 10  2  0  0  0
 10 11  1  0  0  0
 11 12  2  0  0  0
 12 13  1  0  0  0
 13 14  2  0  0  0
 14 15  1  0  0  0
 15  7  1  0  0  0
 14  9  1  0  0  0
M  END
> <minimizedAffinity>
10.20586

> <CNNscore>
0.5133010149

> <CNNaffinity>
6.2386174202

> <CNN_VS>
3.2022886276

> <CNNaffinity_variance>
0.0981542096

$$$$
[H]/C(=C(\[H])C([H])([H])C([H])([H])C([H])([H])C([H])([H])C([H])([H])C([H])([H])C([H])([H])C([H])([H])[H])C([H])([H])C([H])([H])C([H])([H])C([H])([H])C([H])([H])C([H])([H])C([H])([H])C(=O)c1nc2c([H])c([H])c([H])nc2o1


 28 29  0  0  0  0  0  0  0  0999 V2000
   22.0739    9.3574   52.0567 C   0  0  0  0  0  0  0  0  0  0  0  0
   20.8859    8.6552   51.6029 C   0  0  0  0  0  0  0  0  0  0  0  0
   20.0557    7.7927   52.4408 C   0  0  0  0  0  0  0  0  0  0  0  0
   20.6387    7.2503   53.7064 C   0  0  0  0  0  0  0  0  0  0  0  0
   20.7061    5.7432   53.6407 C   0  0  0  0  0  0  0  0  0  0  0  0
   21.8284    5.1974   53.6273 O   0  0  0  0  0  0  0  0  0  0  0  0
   19.5087    4.9517   53.5942 C   0  0  0  0  0  0  0  0  0  0  0  0
   19.3808    3.7443   52.9894 N   0  0  0  0  0  0  0  0  0  0  0  0
   18.1226    3.2910   53.1420 C   0  0  0  0  0  0  0  0  0  0  0  0
   17.4192    2.1793   52.7688 C   0  0  0  0  0  0  0  0  0  0  0  0
   16.0983    2.0574   53.1182 C   0  0  0  0  0  0  0  0  0  0  0  0
   15.5022    3.0697   53.8462 C   0  0  0  0  0  0  0  0  0  0  0  0
   16.1910    4.1806   54.2236 N   0  0  0  0  0  0  0  0  0  0  0  0
   17.4829    4.2889   53.8760 C   0  0  0  0  0  0  0  0  0  0  0  0
   18.3463    5.2534   54.1204 O   0  0  0  0  0  0  0  0  0  0  0  0
   22.3323    9.6490   53.4775 C   0  0  0  0  0  0  0  0  0  0  0  0
   23.1172    8.6131   54.2059 C   0  0  0  0  0  0  0  0  0  0  0  0
   23.9414    7.6987   53.3120 C   0  0  0  0  0  0  0  0  0  0  0  0
   25.9744    7.2001   54.5562 C   0  0  0  0  0  0  0  0  0  0  0  0
   24.7804    6.8389   54.1558 C   0  0  0  0  0  0  0  0  0  0  0  0
   26.6023    8.4600   54.2269 C   0  0  0  0  0  0  0  0  0  0  0  0
   28.1092    8.4603   54.4758 C   0  0  0  0  0  0  0  0  0  0  0  0
   28.4606    9.1161   55.7596 C   0  0  0  0  0  0  0  0  0  0  0  0
   27.2619    9.5313   56.6122 C   0  0  0  0  0  0  0  0  0  0  0  0
   27.6088    9.6497   58.0470 C   0  0  0  0  0  0  0  0  0  0  0  0
   28.7489    8.8872   58.5906 C   0  0  0  0  0  0  0  0  0  0  0  0
   29.8368    9.7186   60.6630 C   0  0  0  0  0  0  0  0  0  0  0  0
   28.9014    8.7304   60.0533 C   0  0  0  0  0  0  0  0  0  0  0  0
 27 28  1  0  0  0
 28 26  1  0  0  0
 26 25  1  0  0  0
 25 24  1  0  0  0
 24 23  1  0  0  0
 23 22  1  0  0  0
 22 21  1  0  0  0
 21 19  1  0  0  0
 19 20  2  0  0  0
 20 18  1  0  0  0
 18 17  1  0  0  0
 17 16  1  0  0  0
 16  1  1  0  0  0
  1  2  1  0  0  0
  2  3  1  0  0  0
  3  4  1  0  0  0
  4  5  1  0  0  0
  5  6  2  0  0  0
  5  7  1  0  0  0
  7  8  2  0  0  0
  8  9  1  0  0  0
  9 10  2  0  0  0
 10 11  1  0  0  0
 11 12  2  0  0  0
 12 13  1  0  0  0
 13 14  2  0  0  0
 14 15  1  0  0  0
 15  7  1  0  0  0
 14  9  1  0  0  0
M  END
> <minimizedAffinity>
11.45323

> <CNNscore>
0.5108215809

> <CNNaffinity>
6.4039130211

> <CNN_VS>
3.2712569237

> <CNNaffinity_variance>
0.2484059632

$$$$
[H]c1c([H])c([H])c(C([H])([H])C([H])([H])C([H])([H])[H])c(OC([H])(C2=NC([H])([H])C([H])([H])N2[H])C([H])([H])[H])c1[H]


 18 19  0  0  0  0  0  0  0  0999 V2000
   26.7997    8.8232   55.4050 C   0  0  0  0  0  0  0  0  0  0  0  0
   28.0168    8.8918   54.7643 C   0  0  0  0  0  0  0  0  0  0  0  0
   28.1478    8.6677   53.4101 C   0  0  0  0  0  0  0  0  0  0  0  0
   27.0419    8.3629   52.6441 C   0  0  0  0  0  0  0  0  0  0  0  0
   25.8149    8.2897   53.2664 C   0  0  0  0  0  0  0  0  0  0  0  0
   25.6830    8.5131   54.6186 C   0  0  0  0  0  0  0  0  0  0  0  0
   26.6199    9.0491   56.8419 C   0  0  0  0  0  0  0  0  0  0  0  0
   28.3122    8.9415   58.6677 C   0  0  0  0  0  0  0  0  0  0  0  0
   27.7969    9.7600   57.4773 C   0  0  0  0  0  0  0  0  0  0  0  0
   24.4884    8.4501   55.2663 O   0  0  0  0  0  0  0  0  0  0  0  0
   23.3728    7.6943   54.9606 C   0  0  0  0  0  0  0  0  0  0  0  0
   23.6699    6.2725   54.6014 C   0  0  0  0  0  0  0  0  0  0  0  0
   22.5614    8.3193   53.8483 C   0  0  0  0  0  0  0  0  0  0  0  0
   22.0528    9.4913   53.9435 N   0  0  0  0  0  0  0  0  0  0  0  0
   21.3359    9.8351   52.7524 C   0  0  0  0  0  0  0  0  0  0  0  0
   21.2567    8.5518   51.9566 C   0  0  0  0  0  0  0  0  0  0  0  0
   22.2557    7.7364   52.5982 N   0  0  0  0  0  0  0  0  0  0  0  0
   22.6901    6.8496   52.2030 H   0  0  0  0  0  0  0  0  0  0  0  0
  8  9  1  0  0  0
  9  7  1  0  0  0
  7  1  1  0  0  0
  1  2  2  0  0  0
  2  3  1  0  0  0
  3  4  2  0  0  0
  4  5  1  0  0  0
  5  6  2  0  0  0
  6 10  1  0  0  0
 10 11  1  0  0  0
 11 12  1  0  0  0
 11 13  1  0  0  0
 13 14  2  0  0  0
 14 15  1  0  0  0
 15 16  1  0  0  0
 16 17  1  0  0  0
  6  1  1  0  0  0
 17 13  1  0  0  0
 17 18  1  0  0  0
M  END
> <minimizedAffinity>
1.78729

> <CNNscore>
0.7527445555

> <CNNaffinity>
5.1118645668

> <CNN_VS>
3.8479282856

> <CNNaffinity_variance>
0.2377405614

$$$$
[H]c1c([H])c([H])c(C([H])([H])C([H])([H])C([H])([H])[H])c(OC([H])(C2=NC([H])([H])C([H])([H])N2[H])C([H])([H])[H])c1[H]


 18 19  0  0  0  0  0  0  0  0999 V2000
   25.0722    8.8578   55.3331 C   0  0  0  0  0  0  0  0  0  0  0  0
   26.0343    9.3669   56.1767 C   0  0  0  0  0  0  0  0  0  0  0  0
   27.3813    9.2712   55.8975 C   0  0  0  0  0  0  0  0  0  0  0  0
   27.8112    8.6513   54.7429 C   0  0  0  0  0  0  0  0  0  0  0  0
   26.8641    8.1356   53.8854 C   0  0  0  0  0  0  0  0  0  0  0  0
   25.5189    8.2303   54.1633 C   0  0  0  0  0  0  0  0  0  0  0  0
   23.6325    8.9344   55.5965 C   0  0  0  0  0  0  0  0  0  0  0  0
   21.5735   10.1615   54.9158 C   0  0  0  0  0  0  0  0  0  0  0  0
   23.0520   10.3015   55.2991 C   0  0  0  0  0  0  0  0  0  0  0  0
   24.5562    7.7338   53.3404 O   0  0  0  0  0  0  0  0  0  0  0  0
   23.5952    6.7771   53.6052 C   0  0  0  0  0  0  0  0  0  0  0  0
   23.9567    5.3973   53.1530 C   0  0  0  0  0  0  0  0  0  0  0  0
   22.2558    7.1501   53.0107 C   0  0  0  0  0  0  0  0  0  0  0  0
   22.1169    8.1179   52.1829 N   0  0  0  0  0  0  0  0  0  0  0  0
   20.7492    8.2530   51.7802 C   0  0  0  0  0  0  0  0  0  0  0  0
   19.9743    7.3448   52.7082 C   0  0  0  0  0  0  0  0  0  0  0  0
   21.0166    6.5208   53.2643 N   0  0  0  0  0  0  0  0  0  0  0  0
   20.8810    5.5988   53.7768 H   0  0  0  0  0  0  0  0  0  0  0  0
  8  9  1  0  0  0
  9  7  1  0  0  0
  7  1  1  0  0  0
  1  2  2  0  0  0
  2  3  1  0  0  0
  3  4  2  0  0  0
  4  5  1  0  0  0
  5  6  2  0  0  0
  6 10  1  0  0  0
 10 11  1  0  0  0
 11 12  1  0  0  0
 11 13  1  0  0  0
 13 14  2  0  0  0
 14 15  1  0  0  0
 15 16  1  0  0  0
 16 17  1  0  0  0
  6  1  1  0  0  0
 17 13  1  0  0  0
 17 18  1  0  0  0
M  END
> <minimizedAffinity>
-0.37322

> <CNNscore>
0.7491223216

> <CNNaffinity>
5.3347826004

> <CNN_VS>
3.9964046478

> <CNNaffinity_variance>
0.4287751317

$$$$
[H]c1c([H])c([H])c(C([H])([H])C([H])([H])C([H])([H])[H])c(OC([H])(C2=NC([H])([H])C([H])([H])N2[H])C([H])([H])[H])c1[H]


 18 19  0  0  0  0  0  0  0  0999 V2000
   25.1646    8.3667   54.8924 C   0  0  0  0  0  0  0  0  0  0  0  0
   25.8943    7.3468   54.3233 C   0  0  0  0  0  0  0  0  0  0  0  0
   25.3095    6.3723   53.5423 C   0  0  0  0  0  0  0  0  0  0  0  0
   23.9511    6.3924   53.3042 C   0  0  0  0  0  0  0  0  0  0  0  0
   23.2034    7.4049   53.8645 C   0  0  0  0  0  0  0  0  0  0  0  0
   23.7862    8.3782   54.6447 C   0  0  0  0  0  0  0  0  0  0  0  0
   25.7475    9.4170   55.7322 C   0  0  0  0  0  0  0  0  0  0  0  0
   27.7248    9.3068   57.2445 C   0  0  0  0  0  0  0  0  0  0  0  0
   27.2602    9.3572   55.7836 C   0  0  0  0  0  0  0  0  0  0  0  0
   23.0801    9.3926   55.2132 O   0  0  0  0  0  0  0  0  0  0  0  0
   21.9932   10.0826   54.7116 C   0  0  0  0  0  0  0  0  0  0  0  0
   20.9498   10.4161   55.7310 C   0  0  0  0  0  0  0  0  0  0  0  0
   21.3386    9.3406   53.5683 C   0  0  0  0  0  0  0  0  0  0  0  0
   20.6501    8.2749   53.7452 N   0  0  0  0  0  0  0  0  0  0  0  0
   20.1475    7.7789   52.4992 C   0  0  0  0  0  0  0  0  0  0  0  0
   20.8597    8.5871   51.4381 C   0  0  0  0  0  0  0  0  0  0  0  0
   21.3842    9.6909   52.2004 N   0  0  0  0  0  0  0  0  0  0  0  0
   21.7437   10.6110   51.8060 H   0  0  0  0  0  0  0  0  0  0  0  0
  8  9  1  0  0  0
  9  7  1  0  0  0
  7  1  1  0  0  0
  1  2  2  0  0  0
  2  3  1  0  0  0
  3  4  2  0  0  0
  4  5  1  0  0  0
  5  6  2  0  0  0
  6 10  1  0  0  0
 10 11  1  0  0  0
 11 12  1  0  0  0
 11 13  1  0  0  0
 13 14  2  0  0  0
 14 15  1  0  0  0
 15 16  1  0  0  0
 16 17  1  0  0  0
  6  1  1  0  0  0
 17 13  1  0  0  0
 17 18  1  0  0  0
M  END
> <minimizedAffinity>
1.53224

> <CNNscore>
0.6630735397

> <CNNaffinity>
5.2290987968

> <CNN_VS>
3.4672770500

> <CNNaffinity_variance>
0.2172350585

$$$$
[H]c1c([H])c([H])c(C([H])([H])C([H])([H])C([H])([H])[H])c(OC([H])(C2=NC([H])([H])C([H])([H])N2[H])C([H])([H])[H])c1[H]


 18 19  0  0  0  0  0  0  0  0999 V2000
   23.7916    8.6975   55.1978 C   0  0  0  0  0  0  0  0  0  0  0  0
   23.7414   10.0625   55.3727 C   0  0  0  0  0  0  0  0  0  0  0  0
   22.5511   10.7387   55.5377 C   0  0  0  0  0  0  0  0  0  0  0  0
   21.3540   10.0535   55.5324 C   0  0  0  0  0  0  0  0  0  0  0  0
   21.3829    8.6871   55.3589 C   0  0  0  0  0  0  0  0  0  0  0  0
   22.5709    8.0109   55.1939 C   0  0  0  0  0  0  0  0  0  0  0  0
   25.0349    7.9435   55.0139 C   0  0  0  0  0  0  0  0  0  0  0  0
   27.2964    8.4419   54.0942 C   0  0  0  0  0  0  0  0  0  0  0  0
   25.7985    8.3616   53.7743 C   0  0  0  0  0  0  0  0  0  0  0  0
   22.6379    6.6633   55.0209 O   0  0  0  0  0  0  0  0  0  0  0  0
   22.4093    5.9213   53.8780 C   0  0  0  0  0  0  0  0  0  0  0  0
   23.6507    5.4300   53.2024 C   0  0  0  0  0  0  0  0  0  0  0  0
   21.5763    6.6844   52.8730 C   0  0  0  0  0  0  0  0  0  0  0  0
   22.0996    7.4155   51.9604 N   0  0  0  0  0  0  0  0  0  0  0  0
   21.0873    8.0227   51.1495 C   0  0  0  0  0  0  0  0  0  0  0  0
   19.7878    7.7505   51.8732 C   0  0  0  0  0  0  0  0  0  0  0  0
   20.1660    6.7069   52.7909 N   0  0  0  0  0  0  0  0  0  0  0  0
   19.5025    6.0631   53.3169 H   0  0  0  0  0  0  0  0  0  0  0  0
  8  9  1  0  0  0
  9  7  1  0  0  0
  7  1  1  0  0  0
  1  2  2  0  0  0
  2  3  1  0  0  0
  3  4  2  0  0  0
  4  5  1  0  0  0
  5  6  2  0  0  0
  6 10  1  0  0  0
 10 11  1  0  0  0
 11 12  1  0  0  0
 11 13  1  0  0  0
 13 14  2  0  0  0
 14 15  1  0  0  0
 15 16  1  0  0  0
 16 17  1  0  0  0
  6  1  1  0  0  0
 17 13  1  0  0  0
 17 18  1  0  0  0
M  END
> <minimizedAffinity>
1.77095

> <CNNscore>
0.6403627992

> <CNNaffinity>
5.4024214745

> <CNN_VS>
3.4595098495

> <CNNaffinity_variance>
0.4402752519

$$$$
[H]c1c([H])c([H])c(C([H])([H])C([H])([H])C([H])([H])[H])c(OC([H])(C2=NC([H])([H])C([H])([H])N2[H])C([H])([H])[H])c1[H]


 18 19  0  0  0  0  0  0  0  0999 V2000
   24.6948    6.8910   54.1077 C   0  0  0  0  0  0  0  0  0  0  0  0
   25.7841    6.6874   54.9252 C   0  0  0  0  0  0  0  0  0  0  0  0
   26.8616    7.5479   54.9413 C   0  0  0  0  0  0  0  0  0  0  0  0
   26.8787    8.6584   54.1235 C   0  0  0  0  0  0  0  0  0  0  0  0
   25.7980    8.8800   53.2982 C   0  0  0  0  0  0  0  0  0  0  0  0
   24.7218    8.0213   53.2811 C   0  0  0  0  0  0  0  0  0  0  0  0
   23.5340    5.9978   54.0573 C   0  0  0  0  0  0  0  0  0  0  0  0
   21.9983    6.9165   55.7913 C   0  0  0  0  0  0  0  0  0  0  0  0
   22.9228    5.7501   55.4210 C   0  0  0  0  0  0  0  0  0  0  0  0
   23.6380    8.2085   52.4805 O   0  0  0  0  0  0  0  0  0  0  0  0
   22.5365    9.0174   52.6840 C   0  0  0  0  0  0  0  0  0  0  0  0
   22.4315    9.5812   54.0660 C   0  0  0  0  0  0  0  0  0  0  0  0
   21.2473    8.3013   52.3500 C   0  0  0  0  0  0  0  0  0  0  0  0
   20.5727    8.5582   51.2916 N   0  0  0  0  0  0  0  0  0  0  0  0
   19.3993    7.7400   51.2229 C   0  0  0  0  0  0  0  0  0  0  0  0
   19.3025    7.0764   52.5781 C   0  0  0  0  0  0  0  0  0  0  0  0
   20.6217    7.2914   53.1146 N   0  0  0  0  0  0  0  0  0  0  0  0
   21.0533    6.7808   53.9418 H   0  0  0  0  0  0  0  0  0  0  0  0
  8  9  1  0  0  0
  9  7  1  0  0  0
  7  1  1  0  0  0
  1  2  2  0  0  0
  2  3  1  0  0  0
  3  4  2  0  0  0
  4  5  1  0  0  0
  5  6  2  0  0  0
  6 10  1  0  0  0
 10 11  1  0  0  0
 11 12  1  0  0  0
 11 13  1  0  0  0
 13 14  2  0  0  0
 14 15  1  0  0  0
 15 16  1  0  0  0
 16 17  1  0  0  0
  6  1  1  0  0  0
 17 13  1  0  0  0
 17 18  1  0  0  0
M  END
> <minimizedAffinity>
6.96338

> <CNNscore>
0.6295581460

> <CNNaffinity>
5.4470357895

> <CNN_VS>
3.4292256832

> <CNNaffinity_variance>
0.3575512171

$$$$
[H]c1c([H])c([H])c(C([H])([H])C([H])([H])C([H])([H])[H])c(OC([H])(C2=NC([H])([H])C([H])([H])N2[H])C([H])([H])[H])c1[H]


 18 19  0  0  0  0  0  0  0  0999 V2000
   23.4794    8.9369   54.1168 C   0  0  0  0  0  0  0  0  0  0  0  0
   23.5799    9.3136   55.4375 C   0  0  0  0  0  0  0  0  0  0  0  0
   22.6147   10.0776   56.0590 C   0  0  0  0  0  0  0  0  0  0  0  0
   21.4997   10.4937   55.3619 C   0  0  0  0  0  0  0  0  0  0  0  0
   21.3804   10.1270   54.0392 C   0  0  0  0  0  0  0  0  0  0  0  0
   22.3436    9.3643   53.4176 C   0  0  0  0  0  0  0  0  0  0  0  0
   24.4853    8.1308   53.4192 C   0  0  0  0  0  0  0  0  0  0  0  0
   26.8814    8.4211   54.0381 C   0  0  0  0  0  0  0  0  0  0  0  0
   25.5906    7.6479   54.3354 C   0  0  0  0  0  0  0  0  0  0  0  0
   22.2590    8.9831   52.1145 O   0  0  0  0  0  0  0  0  0  0  0  0
   21.4796    7.9931   51.5474 C   0  0  0  0  0  0  0  0  0  0  0  0
   20.1925    8.4810   50.9607 C   0  0  0  0  0  0  0  0  0  0  0  0
   21.1782    6.8858   52.5320 C   0  0  0  0  0  0  0  0  0  0  0  0
   22.1001    6.1969   53.0948 N   0  0  0  0  0  0  0  0  0  0  0  0
   21.5394    5.2177   53.9768 C   0  0  0  0  0  0  0  0  0  0  0  0
   20.0559    5.2283   53.6843 C   0  0  0  0  0  0  0  0  0  0  0  0
   19.8997    6.4632   52.9596 N   0  0  0  0  0  0  0  0  0  0  0  0
   18.9835    6.9714   52.7764 H   0  0  0  0  0  0  0  0  0  0  0  0
  8  9  1  0  0  0
  9  7  1  0  0  0
  7  1  1  0  0  0
  1  2  2  0  0  0
  2  3  1  0  0  0
  3  4  2  0  0  0
  4  5  1  0  0  0
  5  6  2  0  0  0
  6 10  1  0  0  0
 10 11  1  0  0  0
 11 12  1  0  0  0
 11 13  1  0  0  0
 13 14  2  0  0  0
 14 15  1  0  0  0
 15 16  1  0  0  0
 16 17  1  0  0  0
  6  1  1  0  0  0
 17 13  1  0  0  0
 17 18  1  0  0  0
M  END
> <minimizedAffinity>
2.22229

> <CNNscore>
0.6158099771

> <CNNaffinity>
5.4007368088

> <CNN_VS>
3.3258275986

> <CNNaffinity_variance>
0.3009149432

$$$$
[H]c1c([H])c([H])c(C([H])([H])C([H])([H])C([H])([H])[H])c(OC([H])(C2=NC([H])([H])C([H])([H])N2[H])C([H])([H])[H])c1[H]


 18 19  0  0  0  0  0  0  0  0999 V2000
   25.1388    8.0787   53.9361 C   0  0  0  0  0  0  0  0  0  0  0  0
   26.5059    7.9843   53.8005 C   0  0  0  0  0  0  0  0  0  0  0  0
   27.3750    8.5424   54.7142 C   0  0  0  0  0  0  0  0  0  0  0  0
   26.8900    9.2236   55.8110 C   0  0  0  0  0  0  0  0  0  0  0  0
   25.5249    9.3290   55.9648 C   0  0  0  0  0  0  0  0  0  0  0  0
   24.6562    8.7724   55.0530 C   0  0  0  0  0  0  0  0  0  0  0  0
   24.1828    7.5047   52.9849 C   0  0  0  0  0  0  0  0  0  0  0  0
   23.4443    5.7866   54.6317 C   0  0  0  0  0  0  0  0  0  0  0  0
   23.9523    6.0237   53.2040 C   0  0  0  0  0  0  0  0  0  0  0  0
   23.3037    8.8558   55.1727 O   0  0  0  0  0  0  0  0  0  0  0  0
   22.4230    9.6932   54.5154 C   0  0  0  0  0  0  0  0  0  0  0  0
   21.5183   10.4699   55.4193 C   0  0  0  0  0  0  0  0  0  0  0  0
   21.5800    8.9408   53.5106 C   0  0  0  0  0  0  0  0  0  0  0  0
   20.8872    7.9112   53.8286 N   0  0  0  0  0  0  0  0  0  0  0  0
   20.1881    7.3947   52.6904 C   0  0  0  0  0  0  0  0  0  0  0  0
   20.7641    8.1363   51.5051 C   0  0  0  0  0  0  0  0  0  0  0  0
   21.4351    9.2425   52.1380 N   0  0  0  0  0  0  0  0  0  0  0  0
   21.7652   10.1330   51.6591 H   0  0  0  0  0  0  0  0  0  0  0  0
  8  9  1  0  0  0
  9  7  1  0  0  0
  7  1  1  0  0  0
  1  2  2  0  0  0
  2  3  1  0  0  0
  3  4  2  0  0  0
  4  5  1  0  0  0
  5  6  2  0  0  0
  6 10  1  0  0  0
 10 11  1  0  0  0
 11 12  1  0  0  0
 11 13  1  0  0  0
 13 14  2  0  0  0
 14 15  1  0  0  0
 15 16  1  0  0  0
 16 17  1  0  0  0
  6  1  1  0  0  0
 17 13  1  0  0  0
 17 18  1  0  0  0
M  END
> <minimizedAffinity>
-2.37296

> <CNNscore>
0.5677286386

> <CNNaffinity>
5.4206733704

> <CNN_VS>
3.0774714947

> <CNNaffinity_variance>
0.2606780529

$$$$
[H]c1c([H])c([H])c(C([H])([H])C([H])([H])C([H])([H])[H])c(OC([H])(C2=NC([H])([H])C([H])([H])N2[H])C([H])([H])[H])c1[H]


 18 19  0  0  0  0  0  0  0  0999 V2000
   24.7313    8.9022   55.0031 C   0  0  0  0  0  0  0  0  0  0  0  0
   25.8410    9.0571   55.8036 C   0  0  0  0  0  0  0  0  0  0  0  0
   27.1172    8.8034   55.3473 C   0  0  0  0  0  0  0  0  0  0  0  0
   27.3222    8.3794   54.0509 C   0  0  0  0  0  0  0  0  0  0  0  0
   26.2247    8.2184   53.2338 C   0  0  0  0  0  0  0  0  0  0  0  0
   24.9499    8.4713   53.6885 C   0  0  0  0  0  0  0  0  0  0  0  0
   23.3593    9.1561   55.4518 C   0  0  0  0  0  0  0  0  0  0  0  0
   21.3939   10.3357   54.4748 C   0  0  0  0  0  0  0  0  0  0  0  0
   22.8288   10.4982   54.9917 C   0  0  0  0  0  0  0  0  0  0  0  0
   23.8436    8.3242   52.9105 O   0  0  0  0  0  0  0  0  0  0  0  0
   22.9683    7.2576   52.8372 C   0  0  0  0  0  0  0  0  0  0  0  0
   21.6040    7.6122   52.3354 C   0  0  0  0  0  0  0  0  0  0  0  0
   22.8309    6.5542   54.1686 C   0  0  0  0  0  0  0  0  0  0  0  0
   23.6195    5.6126   54.5330 N   0  0  0  0  0  0  0  0  0  0  0  0
   23.2655    5.1240   55.8318 C   0  0  0  0  0  0  0  0  0  0  0  0
   21.9267    5.7565   56.1385 C   0  0  0  0  0  0  0  0  0  0  0  0
   21.8617    6.8142   55.1630 N   0  0  0  0  0  0  0  0  0  0  0  0
   21.2009    7.6474   55.1843 H   0  0  0  0  0  0  0  0  0  0  0  0
  8  9  1  0  0  0
  9  7  1  0  0  0
  7  1  1  0  0  0
  1  2  2  0  0  0
  2  3  1  0  0  0
  3  4  2  0  0  0
  4  5  1  0  0  0
  5  6  2  0  0  0
  6 10  1  0  0  0
 10 11  1  0  0  0
 11 12  1  0  0  0
 11 13  1  0  0  0
 13 14  2  0  0  0
 14 15  1  0  0  0
 15 16  1  0  0  0
 16 17  1  0  0  0
  6  1  1  0  0  0
 17 13  1  0  0  0
 17 18  1  0  0  0
M  END
> <minimizedAffinity>
2.41795

> <CNNscore>
0.5479851961

> <CNNaffinity>
4.9982099533

> <CNN_VS>
2.7389450073

> <CNNaffinity_variance>
0.6031754613

$$$$
[H]c1c([H])c([H])c(C([H])([H])C([H])([H])C([H])([H])[H])c(OC([H])(C2=NC([H])([H])C([H])([H])N2[H])C([H])([H])[H])c1[H]


 18 19  0  0  0  0  0  0  0  0999 V2000
   23.2000    8.6029   54.6902 C   0  0  0  0  0  0  0  0  0  0  0  0
   22.3674    7.8583   53.8847 C   0  0  0  0  0  0  0  0  0  0  0  0
   22.8111    6.7501   53.1945 C   0  0  0  0  0  0  0  0  0  0  0  0
   24.1267    6.3482   53.2936 C   0  0  0  0  0  0  0  0  0  0  0  0
   24.9759    7.0798   54.0947 C   0  0  0  0  0  0  0  0  0  0  0  0
   24.5340    8.1867   54.7842 C   0  0  0  0  0  0  0  0  0  0  0  0
   22.7685    9.7891   55.4350 C   0  0  0  0  0  0  0  0  0  0  0  0
   21.5871   10.7611   53.4682 C   0  0  0  0  0  0  0  0  0  0  0  0
   21.4509   10.3480   54.9390 C   0  0  0  0  0  0  0  0  0  0  0  0
   25.3430    8.9321   55.5844 O   0  0  0  0  0  0  0  0  0  0  0  0
   26.6708    9.2695   55.4051 C   0  0  0  0  0  0  0  0  0  0  0  0
   27.4702    8.2522   54.6535 C   0  0  0  0  0  0  0  0  0  0  0  0
   27.3581    9.5547   56.7214 C   0  0  0  0  0  0  0  0  0  0  0  0
   27.9702   10.6561   56.9526 N   0  0  0  0  0  0  0  0  0  0  0  0
   28.5295   10.6625   58.2710 C   0  0  0  0  0  0  0  0  0  0  0  0
   28.3843    9.2413   58.7667 C   0  0  0  0  0  0  0  0  0  0  0  0
   27.4270    8.6945   57.8399 N   0  0  0  0  0  0  0  0  0  0  0  0
   26.8673    7.7996   57.9712 H   0  0  0  0  0  0  0  0  0  0  0  0
  8  9  1  0  0  0
  9  7  1  0  0  0
  7  1  1  0  0  0
  1  2  2  0  0  0
  2  3  1  0  0  0
  3  4  2  0  0  0
  4  5  1  0  0  0
  5  6  2  0  0  0
  6 10  1  0  0  0
 10 11  1  0  0  0
 11 12  1  0  0  0
 11 13  1  0  0  0
 13 14  2  0  0  0
 14 15  1  0  0  0
 15 16  1  0  0  0
 16 17  1  0  0  0
  6  1  1  0  0  0
 17 13  1  0  0  0
 17 18  1  0  0  0
M  END
> <minimizedAffinity>
-0.82992

> <CNNscore>
0.5342208743

> <CNNaffinity>
4.7911996841

> <CNN_VS>
2.5595588684

> <CNNaffinity_variance>
1.0763673782

$$$$
[H]C1=C2C([H])([H])C([H])([H])C([H])([H])C([H])([H])[C@]2([H])/C(=C(\[H])C([H])([H])C2([H])C([H])([H])C([H])([H])C(C([H])([H])[H])(C([H])([H])[H])[N+]2(C([H])([H])[H])C([H])([H])[H])[C@]2([H])[C@@]1([H])C(=O)O[C@@]2([H])C([H])([H])[H]


 26 29  0  0  0  0  0  0  0  0999 V2000
   25.0695    6.1458   53.2911 C   0  0  0  0  0  0  0  0  0  0  0  0
   24.5585    7.5748   53.6296 C   0  0  0  0  0  0  0  0  0  0  0  0
   25.0236    8.3549   52.5573 O   0  0  0  0  0  0  0  0  0  0  0  0
   26.3877    8.4968   52.8031 C   0  0  0  0  0  0  0  0  0  0  0  0
   27.1939    9.0328   52.0101 O   0  0  0  0  0  0  0  0  0  0  0  0
   26.6933    7.9148   54.1315 C   0  0  0  0  0  0  0  0  0  0  0  0
   27.7809    8.5077   54.8600 C   0  0  0  0  0  0  0  0  0  0  0  0
   27.6795    9.2952   55.8758 C   0  0  0  0  0  0  0  0  0  0  0  0
   28.8575    9.8638   56.5735 C   0  0  0  0  0  0  0  0  0  0  0  0
   28.4818   10.0044   58.0426 C   0  0  0  0  0  0  0  0  0  0  0  0
   27.4934    8.9685   58.4724 C   0  0  0  0  0  0  0  0  0  0  0  0
   26.2061    8.9462   57.7235 C   0  0  0  0  0  0  0  0  0  0  0  0
   26.3727    9.6650   56.3868 C   0  0  0  0  0  0  0  0  0  0  0  0
   25.2060    9.2650   55.4858 C   0  0  0  0  0  0  0  0  0  0  0  0
   24.2403   10.1292   55.5435 C   0  0  0  0  0  0  0  0  0  0  0  0
   25.2908    8.0464   54.7853 C   0  0  0  0  0  0  0  0  0  0  0  0
   22.9951   10.0704   54.8237 C   0  0  0  0  0  0  0  0  0  0  0  0
   22.7385    8.5542   54.5321 C   0  0  0  0  0  0  0  0  0  0  0  0
   22.1095    7.9101   55.7363 C   0  0  0  0  0  0  0  0  0  0  0  0
   20.6527    7.8026   55.2839 C   0  0  0  0  0  0  0  0  0  0  0  0
   20.8636    7.4144   53.8283 C   0  0  0  0  0  0  0  0  0  0  0  0
   21.3543    5.9840   53.8201 C   0  0  0  0  0  0  0  0  0  0  0  0
   19.6117    7.4997   53.0171 C   0  0  0  0  0  0  0  0  0  0  0  0
   21.8841    8.3551   53.4179 N   0  0  0  0  0  0  0  0  0  0  0  0
   22.6705    7.6595   52.3842 C   0  0  0  0  0  0  0  0  0  0  0  0
   21.3501    9.5285   52.8002 C   0  0  0  0  0  0  0  0  0  0  0  0
  1  2  1  0  0  0
  2  3  1  0  0  0
  3  4  1  0  0  0
  4  5  2  0  0  0
  4  6  1  0  0  0
  6  7  1  0  0  0
  7  8  2  0  0  0
  8  9  1  0  0  0
  9 10  1  0  0  0
 10 11  1  0  0  0
 11 12  1  0  0  0
 12 13  1  0  0  0
 13 14  1  0  0  0
 14 15  2  0  0  0
 15 17  1  0  0  0
 17 18  1  0  0  0
 18 19  1  0  0  0
 19 20  1  0  0  0
 20 21  1  0  0  0
 21 22  1  0  0  0
 21 23  1  0  0  0
 21 24  1  0  0  0
 24 25  1  0  0  0
 24 26  1  0  0  0
 14 16  1  0  0  0
 16  2  1  0  0  0
 16  6  1  0  0  0
 13  8  1  0  0  0
 24 18  1  0  0  0
M  CHG 1  24   1
M  END
> <minimizedAffinity>
20.18186

> <CNNscore>
0.6680660248

> <CNNaffinity>
6.3413248062

> <CNN_VS>
4.2364234924

> <CNNaffinity_variance>
0.8316240311

$$$$
[H]C1=C2C([H])([H])C([H])([H])C([H])([H])C([H])([H])[C@]2([H])/C(=C(\[H])C([H])([H])C2([H])C([H])([H])C([H])([H])C(C([H])([H])[H])(C([H])([H])[H])[N+]2(C([H])([H])[H])C([H])([H])[H])[C@]2([H])[C@@]1([H])C(=O)O[C@@]2([H])C([H])([H])[H]


 26 29  0  0  0  0  0  0  0  0999 V2000
   23.0699    4.9776   52.7333 C   0  0  0  0  0  0  0  0  0  0  0  0
   24.0722    5.9729   53.3832 C   0  0  0  0  0  0  0  0  0  0  0  0
   24.2003    5.5004   54.7004 O   0  0  0  0  0  0  0  0  0  0  0  0
   23.0110    5.8815   55.3183 C   0  0  0  0  0  0  0  0  0  0  0  0
   22.6801    5.5441   56.4771 O   0  0  0  0  0  0  0  0  0  0  0  0
   22.2397    6.7305   54.3797 C   0  0  0  0  0  0  0  0  0  0  0  0
   21.3974    7.7371   54.9648 C   0  0  0  0  0  0  0  0  0  0  0  0
   21.6340    9.0041   54.9999 C   0  0  0  0  0  0  0  0  0  0  0  0
   20.7074    9.9784   55.6242 C   0  0  0  0  0  0  0  0  0  0  0  0
   20.8218   11.2743   54.8325 C   0  0  0  0  0  0  0  0  0  0  0  0
   21.1669   11.0294   53.3986 C   0  0  0  0  0  0  0  0  0  0  0  0
   22.4349   10.2881   53.1514 C   0  0  0  0  0  0  0  0  0  0  0  0
   22.8500    9.5373   54.4144 C   0  0  0  0  0  0  0  0  0  0  0  0
   23.8777    8.4786   54.0194 C   0  0  0  0  0  0  0  0  0  0  0  0
   25.0912    8.9084   54.1795 C   0  0  0  0  0  0  0  0  0  0  0  0
   23.4105    7.2543   53.5042 C   0  0  0  0  0  0  0  0  0  0  0  0
   26.3009    8.1758   53.9106 C   0  0  0  0  0  0  0  0  0  0  0  0
   27.0712    8.1038   55.2711 C   0  0  0  0  0  0  0  0  0  0  0  0
   28.5518    8.1498   55.0136 C   0  0  0  0  0  0  0  0  0  0  0  0
   28.8719    9.5942   55.4002 C   0  0  0  0  0  0  0  0  0  0  0  0
   27.9752    9.7384   56.6204 C   0  0  0  0  0  0  0  0  0  0  0  0
   28.6001    8.9179   57.7263 C   0  0  0  0  0  0  0  0  0  0  0  0
   27.8467   11.1534   57.0830 C   0  0  0  0  0  0  0  0  0  0  0  0
   26.7328    9.1714   56.1410 N   0  0  0  0  0  0  0  0  0  0  0  0
   26.0849    8.5805   57.3250 C   0  0  0  0  0  0  0  0  0  0  0  0
   25.8276   10.1533   55.6309 C   0  0  0  0  0  0  0  0  0  0  0  0
  1  2  1  0  0  0
  2  3  1  0  0  0
  3  4  1  0  0  0
  4  5  2  0  0  0
  4  6  1  0  0  0
  6  7  1  0  0  0
  7  8  2  0  0  0
  8  9  1  0  0  0
  9 10  1  0  0  0
 10 11  1  0  0  0
 11 12  1  0  0  0
 12 13  1  0  0  0
 13 14  1  0  0  0
 14 15  2  0  0  0
 15 17  1  0  0  0
 17 18  1  0  0  0
 18 19  1  0  0  0
 19 20  1  0  0  0
 20 21  1  0  0  0
 21 22  1  0  0  0
 21 23  1  0  0  0
 21 24  1  0  0  0
 24 25  1  0  0  0
 24 26  1  0  0  0
 14 16  1  0  0  0
 16  2  1  0  0  0
 16  6  1  0  0  0
 13  8  1  0  0  0
 24 18  1  0  0  0
M  CHG 1  24   1
M  END
> <minimizedAffinity>
23.90802

> <CNNscore>
0.5848931670

> <CNNaffinity>
6.3336286545

> <CNN_VS>
3.7044961452

> <CNNaffinity_variance>
0.5590432882

$$$$
[H]C1=C2C([H])([H])C([H])([H])C([H])([H])C([H])([H])[C@]2([H])/C(=C(\[H])C([H])([H])C2([H])C([H])([H])C([H])([H])C(C([H])([H])[H])(C([H])([H])[H])[N+]2(C([H])([H])[H])C([H])([H])[H])[C@]2([H])[C@@]1([H])C(=O)O[C@@]2([H])C([H])([H])[H]


 26 29  0  0  0  0  0  0  0  0999 V2000
   20.8075   11.1189   55.7188 C   0  0  0  0  0  0  0  0  0  0  0  0
   22.1600   10.4664   55.3154 C   0  0  0  0  0  0  0  0  0  0  0  0
   22.4845   11.1000   54.1039 O   0  0  0  0  0  0  0  0  0  0  0  0
   21.6239   10.5214   53.1733 C   0  0  0  0  0  0  0  0  0  0  0  0
   21.5150   10.8989   51.9851 O   0  0  0  0  0  0  0  0  0  0  0  0
   20.8886    9.4153   53.8311 C   0  0  0  0  0  0  0  0  0  0  0  0
   20.5044    8.3107   52.9960 C   0  0  0  0  0  0  0  0  0  0  0  0
   21.0589    7.1470   52.9670 C   0  0  0  0  0  0  0  0  0  0  0  0
   20.5974    6.0582   52.0731 C   0  0  0  0  0  0  0  0  0  0  0  0
   20.8406    4.7454   52.8057 C   0  0  0  0  0  0  0  0  0  0  0  0
   20.7454    4.9027   54.2894 C   0  0  0  0  0  0  0  0  0  0  0  0
   21.6790    5.8891   54.9009 C   0  0  0  0  0  0  0  0  0  0  0  0
   22.1870    6.8529   53.8311 C   0  0  0  0  0  0  0  0  0  0  0  0
   22.7781    8.0726   54.5353 C   0  0  0  0  0  0  0  0  0  0  0  0
   24.0617    7.9611   54.6860 C   0  0  0  0  0  0  0  0  0  0  0  0
   21.9002    9.0871   54.9627 C   0  0  0  0  0  0  0  0  0  0  0  0
   24.9376    8.9228   55.3024 C   0  0  0  0  0  0  0  0  0  0  0  0
   26.3618    8.2736   55.2954 C   0  0  0  0  0  0  0  0  0  0  0  0
   26.7147    7.8510   53.8963 C   0  0  0  0  0  0  0  0  0  0  0  0
   27.6875    8.9594   53.4918 C   0  0  0  0  0  0  0  0  0  0  0  0
   28.4440    9.1275   54.8008 C   0  0  0  0  0  0  0  0  0  0  0  0
   29.3254    7.9091   54.9603 C   0  0  0  0  0  0  0  0  0  0  0  0
   29.3025   10.3503   54.8227 C   0  0  0  0  0  0  0  0  0  0  0  0
   27.3632    9.1621   55.7628 N   0  0  0  0  0  0  0  0  0  0  0  0
   27.9162    8.5840   57.0000 C   0  0  0  0  0  0  0  0  0  0  0  0
   26.9433   10.4895   56.0878 C   0  0  0  0  0  0  0  0  0  0  0  0
  1  2  1  0  0  0
  2  3  1  0  0  0
  3  4  1  0  0  0
  4  5  2  0  0  0
  4  6  1  0  0  0
  6  7  1  0  0  0
  7  8  2  0  0  0
  8  9  1  0  0  0
  9 10  1  0  0  0
 10 11  1  0  0  0
 11 12  1  0  0  0
 12 13  1  0  0  0
 13 14  1  0  0  0
 14 15  2  0  0  0
 15 17  1  0  0  0
 17 18  1  0  0  0
 18 19  1  0  0  0
 19 20  1  0  0  0
 20 21  1  0  0  0
 21 22  1  0  0  0
 21 23  1  0  0  0
 21 24  1  0  0  0
 24 25  1  0  0  0
 24 26  1  0  0  0
 14 16  1  0  0  0
 16  2  1  0  0  0
 16  6  1  0  0  0
 13  8  1  0  0  0
 24 18  1  0  0  0
M  CHG 1  24   1
M  END
> <minimizedAffinity>
25.78713

> <CNNscore>
0.5545193553

> <CNNaffinity>
6.2842431068

> <CNN_VS>
3.4847345352

> <CNNaffinity_variance>
0.4930714667

$$$$
[H]C1=C2C([H])([H])C([H])([H])C([H])([H])C([H])([H])[C@]2([H])/C(=C(\[H])C([H])([H])C2([H])C([H])([H])C([H])([H])C(C([H])([H])[H])(C([H])([H])[H])[N+]2(C([H])([H])[H])C([H])([H])[H])[C@]2([H])[C@@]1([H])C(=O)O[C@@]2([H])C([H])([H])[H]


 26 29  0  0  0  0  0  0  0  0999 V2000
   28.7878    6.6491   53.5122 C   0  0  0  0  0  0  0  0  0  0  0  0
   27.4075    7.2539   53.8950 C   0  0  0  0  0  0  0  0  0  0  0  0
   27.2036    8.2516   52.9268 O   0  0  0  0  0  0  0  0  0  0  0  0
   28.0592    9.2819   53.3109 C   0  0  0  0  0  0  0  0  0  0  0  0
   28.2632   10.3161   52.6364 O   0  0  0  0  0  0  0  0  0  0  0  0
   28.6605    8.9355   54.6206 C   0  0  0  0  0  0  0  0  0  0  0  0
   28.9918   10.0324   55.4878 C   0  0  0  0  0  0  0  0  0  0  0  0
   28.3414   10.3970   56.5397 C   0  0  0  0  0  0  0  0  0  0  0  0
   28.7542   11.5439   57.3834 C   0  0  0  0  0  0  0  0  0  0  0  0
   28.3602   11.2095   58.8159 C   0  0  0  0  0  0  0  0  0  0  0  0
   28.3896    9.7380   59.0789 C   0  0  0  0  0  0  0  0  0  0  0  0
   27.5134    8.9036   58.2104 C   0  0  0  0  0  0  0  0  0  0  0  0
   27.1479    9.6789   56.9468 C   0  0  0  0  0  0  0  0  0  0  0  0
   26.6276    8.6816   55.9135 C   0  0  0  0  0  0  0  0  0  0  0  0
   25.3330    8.6027   55.9362 C   0  0  0  0  0  0  0  0  0  0  0  0
   27.5658    7.9666   55.1445 C   0  0  0  0  0  0  0  0  0  0  0  0
   24.5117    7.7687   55.0982 C   0  0  0  0  0  0  0  0  0  0  0  0
   23.6454    8.7464   54.2360 C   0  0  0  0  0  0  0  0  0  0  0  0
   23.8053    8.4085   52.7797 C   0  0  0  0  0  0  0  0  0  0  0  0
   22.4893    7.6809   52.5014 C   0  0  0  0  0  0  0  0  0  0  0  0
   21.5408    8.5434   53.3201 C   0  0  0  0  0  0  0  0  0  0  0  0
   21.3937    9.8569   52.5854 C   0  0  0  0  0  0  0  0  0  0  0  0
   20.1892    7.9274   53.4826 C   0  0  0  0  0  0  0  0  0  0  0  0
   22.2675    8.6803   54.5643 N   0  0  0  0  0  0  0  0  0  0  0  0
   21.8841    9.9967   55.1035 C   0  0  0  0  0  0  0  0  0  0  0  0
   21.8868    7.7134   55.5461 C   0  0  0  0  0  0  0  0  0  0  0  0
  1  2  1  0  0  0
  2  3  1  0  0  0
  3  4  1  0  0  0
  4  5  2  0  0  0
  4  6  1  0  0  0
  6  7  1  0  0  0
  7  8  2  0  0  0
  8  9  1  0  0  0
  9 10  1  0  0  0
 10 11  1  0  0  0
 11 12  1  0  0  0
 12 13  1  0  0  0
 13 14  1  0  0  0
 14 15  2  0  0  0
 15 17  1  0  0  0
 17 18  1  0  0  0
 18 19  1  0  0  0
 19 20  1  0  0  0
 20 21  1  0  0  0
 21 22  1  0  0  0
 21 23  1  0  0  0
 21 24  1  0  0  0
 24 25  1  0  0  0
 24 26  1  0  0  0
 14 16  1  0  0  0
 16  2  1  0  0  0
 16  6  1  0  0  0
 13  8  1  0  0  0
 24 18  1  0  0  0
M  CHG 1  24   1
M  END
> <minimizedAffinity>
26.08594

> <CNNscore>
0.5458441377

> <CNNaffinity>
6.1404080391

> <CNN_VS>
3.3517057896

> <CNNaffinity_variance>
0.4084615111

$$$$
[H]C1=C2C([H])([H])C([H])([H])C([H])([H])C([H])([H])[C@]2([H])/C(=C(\[H])C([H])([H])C2([H])C([H])([H])C([H])([H])C(C([H])([H])[H])(C([H])([H])[H])[N+]2(C([H])([H])[H])C([H])([H])[H])[C@]2([H])[C@@]1([H])C(=O)O[C@@]2([H])C([H])([H])[H]


 26 29  0  0  0  0  0  0  0  0999 V2000
   21.2309    4.9192   53.7574 C   0  0  0  0  0  0  0  0  0  0  0  0
   22.5777    5.6849   53.8903 C   0  0  0  0  0  0  0  0  0  0  0  0
   22.7804    5.7587   55.2789 O   0  0  0  0  0  0  0  0  0  0  0  0
   21.8795    6.7323   55.7054 C   0  0  0  0  0  0  0  0  0  0  0  0
   21.6640    7.0148   56.9053 O   0  0  0  0  0  0  0  0  0  0  0  0
   21.2475    7.3480   54.5144 C   0  0  0  0  0  0  0  0  0  0  0  0
   20.8526    8.7245   54.6337 C   0  0  0  0  0  0  0  0  0  0  0  0
   21.4563    9.7392   54.1156 C   0  0  0  0  0  0  0  0  0  0  0  0
   20.9791   11.1324   54.2863 C   0  0  0  0  0  0  0  0  0  0  0  0
   21.3370   11.8865   53.0126 C   0  0  0  0  0  0  0  0  0  0  0  0
   21.3470   10.9935   51.8136 C   0  0  0  0  0  0  0  0  0  0  0  0
   22.2777    9.8322   51.8742 C   0  0  0  0  0  0  0  0  0  0  0  0
   22.6586    9.5496   53.3255 C   0  0  0  0  0  0  0  0  0  0  0  0
   23.2445    8.1408   53.3953 C   0  0  0  0  0  0  0  0  0  0  0  0
   24.5396    8.1583   53.3228 C   0  0  0  0  0  0  0  0  0  0  0  0
   22.3557    7.0510   53.4677 C   0  0  0  0  0  0  0  0  0  0  0  0
   25.4144    7.0158   53.3616 C   0  0  0  0  0  0  0  0  0  0  0  0
   26.4066    7.2741   54.5442 C   0  0  0  0  0  0  0  0  0  0  0  0
   27.6509    6.4541   54.3447 C   0  0  0  0  0  0  0  0  0  0  0  0
   28.6302    7.5218   53.8553 C   0  0  0  0  0  0  0  0  0  0  0  0
   28.2220    8.6773   54.7563 C   0  0  0  0  0  0  0  0  0  0  0  0
   28.7105    8.3451   56.1483 C   0  0  0  0  0  0  0  0  0  0  0  0
   28.8172    9.9813   54.3344 C   0  0  0  0  0  0  0  0  0  0  0  0
   26.7791    8.6383   54.6490 N   0  0  0  0  0  0  0  0  0  0  0  0
   26.2729    9.1305   55.9422 C   0  0  0  0  0  0  0  0  0  0  0  0
   26.2665    9.5228   53.6497 C   0  0  0  0  0  0  0  0  0  0  0  0
  1  2  1  0  0  0
  2  3  1  0  0  0
  3  4  1  0  0  0
  4  5  2  0  0  0
  4  6  1  0  0  0
  6  7  1  0  0  0
  7  8  2  0  0  0
  8  9  1  0  0  0
  9 10  1  0  0  0
 10 11  1  0  0  0
 11 12  1  0  0  0
 12 13  1  0  0  0
 13 14  1  0  0  0
 14 15  2  0  0  0
 15 17  1  0  0  0
 17 18  1  0  0  0
 18 19  1  0  0  0
 19 20  1  0  0  0
 20 21  1  0  0  0
 21 22  1  0  0  0
 21 23  1  0  0  0
 21 24  1  0  0  0
 24 25  1  0  0  0
 24 26  1  0  0  0
 14 16  1  0  0  0
 16  2  1  0  0  0
 16  6  1  0  0  0
 13  8  1  0  0  0
 24 18  1  0  0  0
M  CHG 1  24   1
M  END
> <minimizedAffinity>
23.71332

> <CNNscore>
0.5376023650

> <CNNaffinity>
6.2030310631

> <CNN_VS>
3.3347642422

> <CNNaffinity_variance>
0.3978216052

$$$$
[H]C1=C2C([H])([H])C([H])([H])C([H])([H])C([H])([H])[C@]2([H])/C(=C(\[H])C([H])([H])C2([H])C([H])([H])C([H])([H])C(C([H])([H])[H])(C([H])([H])[H])[N+]2(C([H])([H])[H])C([H])([H])[H])[C@]2([H])[C@@]1([H])C(=O)O[C@@]2([H])C([H])([H])[H]


 26 29  0  0  0  0  0  0  0  0999 V2000
   23.3933    4.6942   55.6996 C   0  0  0  0  0  0  0  0  0  0  0  0
   22.9220    6.1332   55.3463 C   0  0  0  0  0  0  0  0  0  0  0  0
   22.6492    6.0632   53.9696 O   0  0  0  0  0  0  0  0  0  0  0  0
   23.9075    6.0429   53.3716 C   0  0  0  0  0  0  0  0  0  0  0  0
   24.1029    5.8661   52.1482 O   0  0  0  0  0  0  0  0  0  0  0  0
   24.9337    6.2621   54.4184 C   0  0  0  0  0  0  0  0  0  0  0  0
   26.1385    6.9303   54.0098 C   0  0  0  0  0  0  0  0  0  0  0  0
   26.4563    8.1538   54.2639 C   0  0  0  0  0  0  0  0  0  0  0  0
   27.7253    8.7672   53.8046 C   0  0  0  0  0  0  0  0  0  0  0  0
   28.1399    9.7812   54.8624 C   0  0  0  0  0  0  0  0  0  0  0  0
   27.6788    9.3891   56.2294 C   0  0  0  0  0  0  0  0  0  0  0  0
   26.2097    9.2070   56.3938 C   0  0  0  0  0  0  0  0  0  0  0  0
   25.5581    8.9987   55.0288 C   0  0  0  0  0  0  0  0  0  0  0  0
   24.1693    8.4040   55.2531 C   0  0  0  0  0  0  0  0  0  0  0  0
   23.2536    9.3227   55.2693 C   0  0  0  0  0  0  0  0  0  0  0  0
   24.0634    7.0153   55.4610 C   0  0  0  0  0  0  0  0  0  0  0  0
   21.8404    9.1193   55.4529 C   0  0  0  0  0  0  0  0  0  0  0  0
   21.1690    9.5177   54.0964 C   0  0  0  0  0  0  0  0  0  0  0  0
   22.1315   10.3347   53.2799 C   0  0  0  0  0  0  0  0  0  0  0  0
   22.5962    9.3009   52.2533 C   0  0  0  0  0  0  0  0  0  0  0  0
   21.2776    8.5896   51.9901 C   0  0  0  0  0  0  0  0  0  0  0  0
   20.4169    9.5391   51.1874 C   0  0  0  0  0  0  0  0  0  0  0  0
   21.4457    7.3211   51.2185 C   0  0  0  0  0  0  0  0  0  0  0  0
   20.7790    8.3876   53.3338 N   0  0  0  0  0  0  0  0  0  0  0  0
   19.3105    8.4237   53.2204 C   0  0  0  0  0  0  0  0  0  0  0  0
   21.1131    7.1049   53.8695 C   0  0  0  0  0  0  0  0  0  0  0  0
  1  2  1  0  0  0
  2  3  1  0  0  0
  3  4  1  0  0  0
  4  5  2  0  0  0
  4  6  1  0  0  0
  6  7  1  0  0  0
  7  8  2  0  0  0
  8  9  1  0  0  0
  9 10  1  0  0  0
 10 11  1  0  0  0
 11 12  1  0  0  0
 12 13  1  0  0  0
 13 14  1  0  0  0
 14 15  2  0  0  0
 15 17  1  0  0  0
 17 18  1  0  0  0
 18 19  1  0  0  0
 19 20  1  0  0  0
 20 21  1  0  0  0
 21 22  1  0  0  0
 21 23  1  0  0  0
 21 24  1  0  0  0
 24 25  1  0  0  0
 24 26  1  0  0  0
 14 16  1  0  0  0
 16  2  1  0  0  0
 16  6  1  0  0  0
 13  8  1  0  0  0
 24 18  1  0  0  0
M  CHG 1  24   1
M  END
> <minimizedAffinity>
21.59601

> <CNNscore>
0.5355818868

> <CNNaffinity>
6.3413810730

> <CNN_VS>
3.3963289261

> <CNNaffinity_variance>
0.6289377809

$$$$
[H]C1=C2C([H])([H])C([H])([H])C([H])([H])C([H])([H])[C@]2([H])/C(=C(\[H])C([H])([H])C2([H])C([H])([H])C([H])([H])C(C([H])([H])[H])(C([H])([H])[H])[N+]2(C([H])([H])[H])C([H])([H])[H])[C@]2([H])[C@@]1([H])C(=O)O[C@@]2([H])C([H])([H])[H]


 26 29  0  0  0  0  0  0  0  0999 V2000
   22.2477   11.0276   53.1528 C   0  0  0  0  0  0  0  0  0  0  0  0
   22.5428    9.5010   53.1563 C   0  0  0  0  0  0  0  0  0  0  0  0
   21.7811    9.0194   54.2345 O   0  0  0  0  0  0  0  0  0  0  0  0
   22.4885    9.4279   55.3632 C   0  0  0  0  0  0  0  0  0  0  0  0
   22.0778    9.2951   56.5379 O   0  0  0  0  0  0  0  0  0  0  0  0
   23.7720   10.0274   54.9272 C   0  0  0  0  0  0  0  0  0  0  0  0
   24.8848    9.8921   55.8264 C   0  0  0  0  0  0  0  0  0  0  0  0
   25.8836    9.0885   55.6889 C   0  0  0  0  0  0  0  0  0  0  0  0
   26.9957    9.0130   56.6663 C   0  0  0  0  0  0  0  0  0  0  0  0
   28.2564    8.6719   55.8831 C   0  0  0  0  0  0  0  0  0  0  0  0
   28.2129    9.2038   54.4866 C   0  0  0  0  0  0  0  0  0  0  0  0
   27.0739    8.7379   53.6475 C   0  0  0  0  0  0  0  0  0  0  0  0
   25.9574    8.2034   54.5413 C   0  0  0  0  0  0  0  0  0  0  0  0
   24.6770    8.1378   53.7111 C   0  0  0  0  0  0  0  0  0  0  0  0
   24.4954    6.9566   53.2066 C   0  0  0  0  0  0  0  0  0  0  0  0
   23.9215    9.3158   53.5551 C   0  0  0  0  0  0  0  0  0  0  0  0
   23.3940    6.5398   52.3787 C   0  0  0  0  0  0  0  0  0  0  0  0
   22.1028    7.0879   53.0730 C   0  0  0  0  0  0  0  0  0  0  0  0
   21.1724    7.6484   52.0335 C   0  0  0  0  0  0  0  0  0  0  0  0
   20.1307    6.5326   51.9403 C   0  0  0  0  0  0  0  0  0  0  0  0
   20.0208    6.1602   53.4110 C   0  0  0  0  0  0  0  0  0  0  0  0
   19.2855    7.2890   54.0980 C   0  0  0  0  0  0  0  0  0  0  0  0
   19.2688    4.8884   53.6337 C   0  0  0  0  0  0  0  0  0  0  0  0
   21.4129    6.0849   53.8001 N   0  0  0  0  0  0  0  0  0  0  0  0
   21.4481    6.4740   55.2207 C   0  0  0  0  0  0  0  0  0  0  0  0
   21.9446    4.7597   53.7293 C   0  0  0  0  0  0  0  0  0  0  0  0
  1  2  1  0  0  0
  2  3  1  0  0  0
  3  4  1  0  0  0
  4  5  2  0  0  0
  4  6  1  0  0  0
  6  7  1  0  0  0
  7  8  2  0  0  0
  8  9  1  0  0  0
  9 10  1  0  0  0
 10 11  1  0  0  0
 11 12  1  0  0  0
 12 13  1  0  0  0
 13 14  1  0  0  0
 14 15  2  0  0  0
 15 17  1  0  0  0
 17 18  1  0  0  0
 18 19  1  0  0  0
 19 20  1  0  0  0
 20 21  1  0  0  0
 21 22  1  0  0  0
 21 23  1  0  0  0
 21 24  1  0  0  0
 24 25  1  0  0  0
 24 26  1  0  0  0
 14 16  1  0  0  0
 16  2  1  0  0  0
 16  6  1  0  0  0
 13  8  1  0  0  0
 24 18  1  0  0  0
M  CHG 1  24   1
M  END
> <minimizedAffinity>
23.03483

> <CNNscore>
0.5153330564

> <CNNaffinity>
6.3724641800

> <CNN_VS>
3.2839415073

> <CNNaffinity_variance>
0.5337662697

$$$$
[H]C1=C2C([H])([H])C([H])([H])C([H])([H])C([H])([H])[C@]2([H])/C(=C(\[H])C([H])([H])C2([H])C([H])([H])C([H])([H])C(C([H])([H])[H])(C([H])([H])[H])[N+]2(C([H])([H])[H])C([H])([H])[H])[C@]2([H])[C@@]1([H])C(=O)O[C@@]2([H])C([H])([H])[H]


 26 29  0  0  0  0  0  0  0  0999 V2000
   23.3772    5.4315   53.4330 C   0  0  0  0  0  0  0  0  0  0  0  0
   23.9662    6.3783   54.5167 C   0  0  0  0  0  0  0  0  0  0  0  0
   23.4704    5.8511   55.7212 O   0  0  0  0  0  0  0  0  0  0  0  0
   22.1305    6.2331   55.7366 C   0  0  0  0  0  0  0  0  0  0  0  0
   21.3010    5.8571   56.5949 O   0  0  0  0  0  0  0  0  0  0  0  0
   21.8814    7.1353   54.5873 C   0  0  0  0  0  0  0  0  0  0  0  0
   20.8649    8.1359   54.7622 C   0  0  0  0  0  0  0  0  0  0  0  0
   21.0596    9.3950   54.9599 C   0  0  0  0  0  0  0  0  0  0  0  0
   19.9501   10.3636   55.1290 C   0  0  0  0  0  0  0  0  0  0  0  0
   20.4188   11.6872   54.5393 C   0  0  0  0  0  0  0  0  0  0  0  0
   21.3875   11.4920   53.4175 C   0  0  0  0  0  0  0  0  0  0  0  0
   22.6255   10.7338   53.7506 C   0  0  0  0  0  0  0  0  0  0  0  0
   22.4089    9.9245   55.0271 C   0  0  0  0  0  0  0  0  0  0  0  0
   23.5019    8.8604   55.1039 C   0  0  0  0  0  0  0  0  0  0  0  0
   24.5042    9.2569   55.8256 C   0  0  0  0  0  0  0  0  0  0  0  0
   23.3248    7.6679   54.3763 C   0  0  0  0  0  0  0  0  0  0  0  0
   25.7005    8.5096   56.1129 C   0  0  0  0  0  0  0  0  0  0  0  0
   26.8371    9.1764   55.2683 C   0  0  0  0  0  0  0  0  0  0  0  0
   27.9942    9.5195   56.1649 C   0  0  0  0  0  0  0  0  0  0  0  0
   28.9778    8.4022   55.8147 C   0  0  0  0  0  0  0  0  0  0  0  0
   28.7520    8.3226   54.3125 C   0  0  0  0  0  0  0  0  0  0  0  0
   29.3752    9.5601   53.7067 C   0  0  0  0  0  0  0  0  0  0  0  0
   29.3780    7.1150   53.6941 C   0  0  0  0  0  0  0  0  0  0  0  0
   27.3069    8.3309   54.2315 N   0  0  0  0  0  0  0  0  0  0  0  0
   26.9862    8.9891   52.9530 C   0  0  0  0  0  0  0  0  0  0  0  0
   26.7410    7.0197   54.1657 C   0  0  0  0  0  0  0  0  0  0  0  0
  1  2  1  0  0  0
  2  3  1  0  0  0
  3  4  1  0  0  0
  4  5  2  0  0  0
  4  6  1  0  0  0
  6  7  1  0  0  0
  7  8  2  0  0  0
  8  9  1  0  0  0
  9 10  1  0  0  0
 10 11  1  0  0  0
 11 12  1  0  0  0
 12 13  1  0  0  0
 13 14  1  0  0  0
 14 15  2  0  0  0
 15 17  1  0  0  0
 17 18  1  0  0  0
 18 19  1  0  0  0
 19 20  1  0  0  0
 20 21  1  0  0  0
 21 22  1  0  0  0
 21 23  1  0  0  0
 21 24  1  0  0  0
 24 25  1  0  0  0
 24 26  1  0  0  0
 14 16  1  0  0  0
 16  2  1  0  0  0
 16  6  1  0  0  0
 13  8  1  0  0  0
 24 18  1  0  0  0
M  CHG 1  24   1
M  END
> <minimizedAffinity>
30.80447

> <CNNscore>
0.5060263872

> <CNNaffinity>
6.2364878654

> <CNN_VS>
3.1558275223

> <CNNaffinity_variance>
0.3568143249

$$$$
[H]C1=C2C([H])([H])C([H])([H])C([H])([H])C([H])([H])[C@]2([H])/C(=C(\[H])C([H])([H])C2([H])C([H])([H])C([H])([H])C(C([H])([H])[H])(C([H])([H])[H])[N+]2(C([H])([H])[H])C([H])([H])[H])[C@]2([H])[C@@]1([H])C(=O)O[C@@]2([H])C([H])([H])[H]


 26 29  0  0  0  0  0  0  0  0999 V2000
   23.9509    4.1844   53.5582 C   0  0  0  0  0  0  0  0  0  0  0  0
   24.5534    5.5399   54.0244 C   0  0  0  0  0  0  0  0  0  0  0  0
   24.2876    5.5629   55.4040 O   0  0  0  0  0  0  0  0  0  0  0  0
   22.9241    5.8377   55.4857 C   0  0  0  0  0  0  0  0  0  0  0  0
   22.2663    5.8271   56.5503 O   0  0  0  0  0  0  0  0  0  0  0  0
   22.4176    6.1340   54.1246 C   0  0  0  0  0  0  0  0  0  0  0  0
   21.3160    7.0522   54.0327 C   0  0  0  0  0  0  0  0  0  0  0  0
   21.3767    8.2805   53.6455 C   0  0  0  0  0  0  0  0  0  0  0  0
   20.1869    9.1623   53.5778 C   0  0  0  0  0  0  0  0  0  0  0  0
   20.4069   10.1210   52.4152 C   0  0  0  0  0  0  0  0  0  0  0  0
   21.2385    9.5116   51.3326 C   0  0  0  0  0  0  0  0  0  0  0  0
   22.5938    9.0447   51.7372 C   0  0  0  0  0  0  0  0  0  0  0  0
   22.6470    8.8612   53.2520 C   0  0  0  0  0  0  0  0  0  0  0  0
   23.8644    7.9997   53.5818 C   0  0  0  0  0  0  0  0  0  0  0  0
   24.8949    8.7264   53.8866 C   0  0  0  0  0  0  0  0  0  0  0  0
   23.7440    6.6016   53.4659 C   0  0  0  0  0  0  0  0  0  0  0  0
   26.2019    8.2471   54.2529 C   0  0  0  0  0  0  0  0  0  0  0  0
   26.8449    9.3763   55.1252 C   0  0  0  0  0  0  0  0  0  0  0  0
   25.9278    9.7123   56.2683 C   0  0  0  0  0  0  0  0  0  0  0  0
   26.6335    9.0072   57.4273 C   0  0  0  0  0  0  0  0  0  0  0  0
   28.0806    9.3091   57.0690 C   0  0  0  0  0  0  0  0  0  0  0  0
   28.3058   10.7788   57.3449 C   0  0  0  0  0  0  0  0  0  0  0  0
   29.0565    8.5123   57.8723 C   0  0  0  0  0  0  0  0  0  0  0  0
   28.1046    8.9984   55.6556 N   0  0  0  0  0  0  0  0  0  0  0  0
   29.1124    9.8993   55.0696 C   0  0  0  0  0  0  0  0  0  0  0  0
   28.5434    7.6658   55.3812 C   0  0  0  0  0  0  0  0  0  0  0  0
  1  2  1  0  0  0
  2  3  1  0  0  0
  3  4  1  0  0  0
  4  5  2  0  0  0
  4  6  1  0  0  0
  6  7  1  0  0  0
  7  8  2  0  0  0
  8  9  1  0  0  0
  9 10  1  0  0  0
 10 11  1  0  0  0
 11 12  1  0  0  0
 12 13  1  0  0  0
 13 14  1  0  0  0
 14 15  2  0  0  0
 15 17  1  0  0  0
 17 18  1  0  0  0
 18 19  1  0  0  0
 19 20  1  0  0  0
 20 21  1  0  0  0
 21 22  1  0  0  0
 21 23  1  0  0  0
 21 24  1  0  0  0
 24 25  1  0  0  0
 24 26  1  0  0  0
 14 16  1  0  0  0
 16  2  1  0  0  0
 16  6  1  0  0  0
 13  8  1  0  0  0
 24 18  1  0  0  0
M  CHG 1  24   1
M  END
> <minimizedAffinity>
28.86359

> <CNNscore>
0.4335896671

> <CNNaffinity>
6.1871051788

> <CNN_VS>
2.6826648712

> <CNNaffinity_variance>
0.5630313158

$$$$
[H]c1c([H])c([H])c(C([H])([H])N2C([H])([H])C([H])([H])C([H])(C([H])([H])C([H])([H])N([H])C(=O)c3c([H])c([H])c([H])c([N+](=O)[O-])c3[H])C([H])([H])C2([H])[H])c([H])c1[H]


 28 30  0  0  0  0  0  0  0  0999 V2000
   20.1524    5.4860   52.8341 C   0  0  0  0  0  0  0  0  0  0  0  0
   20.5379    7.6827   51.1416 O   0  0  0  0  0  0  0  0  0  0  0  0
   20.6913    7.8670   52.3748 C   0  0  0  0  0  0  0  0  0  0  0  0
   20.5141    6.8013   53.2690 N   0  0  0  0  0  0  0  0  0  0  0  0
   20.6416    6.9360   54.2949 H   0  0  0  0  0  0  0  0  0  0  0  0
   21.0524    9.2199   52.7786 C   0  0  0  0  0  0  0  0  0  0  0  0
   21.2521    9.5275   54.1036 C   0  0  0  0  0  0  0  0  0  0  0  0
   21.5992   10.8287   54.4911 C   0  0  0  0  0  0  0  0  0  0  0  0
   21.7431   11.8127   53.5423 C   0  0  0  0  0  0  0  0  0  0  0  0
   21.5501   11.5407   52.1964 C   0  0  0  0  0  0  0  0  0  0  0  0
   21.2074   10.2351   51.8656 C   0  0  0  0  0  0  0  0  0  0  0  0
   21.6902   12.5312   51.1965 N   0  0  0  0  0  0  0  0  0  0  0  0
   21.2212   12.3231   50.0736 O   0  0  0  0  0  0  0  0  0  0  0  0
   22.3319   13.7004   51.4616 O   0  0  0  0  0  0  0  0  0  0  0  0
   20.8801    4.4571   53.6483 C   0  0  0  0  0  0  0  0  0  0  0  0
   22.1835    5.1006   54.0987 C   0  0  0  0  0  0  0  0  0  0  0  0
   21.9268    6.3524   54.8962 C   0  0  0  0  0  0  0  0  0  0  0  0
   23.2870    6.8012   55.4412 C   0  0  0  0  0  0  0  0  0  0  0  0
   24.1808    7.0817   54.3779 N   0  0  0  0  0  0  0  0  0  0  0  0
   23.7109    6.8004   53.0656 C   0  0  0  0  0  0  0  0  0  0  0  0
   23.0609    5.4491   52.9200 C   0  0  0  0  0  0  0  0  0  0  0  0
   24.6399    8.4426   54.4436 C   0  0  0  0  0  0  0  0  0  0  0  0
   26.0635    8.6024   54.7429 C   0  0  0  0  0  0  0  0  0  0  0  0
   26.3848    9.1079   55.9953 C   0  0  0  0  0  0  0  0  0  0  0  0
   27.6880    9.2969   56.4042 C   0  0  0  0  0  0  0  0  0  0  0  0
   28.6794    8.9628   55.5155 C   0  0  0  0  0  0  0  0  0  0  0  0
   28.3703    8.4627   54.2758 C   0  0  0  0  0  0  0  0  0  0  0  0
   27.0737    8.2789   53.8795 C   0  0  0  0  0  0  0  0  0  0  0  0
  2  3  2  0  0  0
  3  4  1  0  0  0
  4  1  1  0  0  0
  1 15  1  0  0  0
 15 16  1  0  0  0
 16 17  1  0  0  0
 17 18  1  0  0  0
 18 19  1  0  0  0
 19 22  1  0  0  0
 22 23  1  0  0  0
 23 24  2  0  0  0
 24 25  1  0  0  0
 25 26  2  0  0  0
 26 27  1  0  0  0
 27 28  2  0  0  0
 19 20  1  0  0  0
 20 21  1  0  0  0
  3  6  1  0  0  0
  6  7  2  0  0  0
  7  8  1  0  0  0
  8  9  2  0  0  0
  9 10  1  0  0  0
 10 12  1  0  0  0
 12 13  2  0  0  0
 12 14  1  0  0  0
 10 11  2  0  0  0
 21 16  1  0  0  0
 11  6  1  0  0  0
 28 23  1  0  0  0
  4  5  1  0  0  0
M  CHG 1  12   1
M  CHG 1  14  -1
M  END
> <minimizedAffinity>
7.70300

> <CNNscore>
0.6161886454

> <CNNaffinity>
6.2634191513

> <CNN_VS>
3.8594477177

> <CNNaffinity_variance>
0.3279505670

$$$$
[H]c1c([H])c([H])c(C([H])([H])N2C([H])([H])C([H])([H])C([H])(C([H])([H])C([H])([H])N([H])C(=O)c3c([H])c([H])c([H])c([N+](=O)[O-])c3[H])C([H])([H])C2([H])[H])c([H])c1[H]


 28 30  0  0  0  0  0  0  0  0999 V2000
   20.0992    5.8623   53.2572 C   0  0  0  0  0  0  0  0  0  0  0  0
   21.2032    7.7085   51.4650 O   0  0  0  0  0  0  0  0  0  0  0  0
   20.8720    8.1302   52.6011 C   0  0  0  0  0  0  0  0  0  0  0  0
   20.3170    7.2488   53.5403 N   0  0  0  0  0  0  0  0  0  0  0  0
   20.0407    7.5814   54.4889 H   0  0  0  0  0  0  0  0  0  0  0  0
   21.1029    9.5476   52.8488 C   0  0  0  0  0  0  0  0  0  0  0  0
   21.2144   10.0271   54.1325 C   0  0  0  0  0  0  0  0  0  0  0  0
   21.4363   11.3902   54.3698 C   0  0  0  0  0  0  0  0  0  0  0  0
   21.5447   12.2627   53.3134 C   0  0  0  0  0  0  0  0  0  0  0  0
   21.4380   11.8165   52.0049 C   0  0  0  0  0  0  0  0  0  0  0  0
   21.2181   10.4562   51.8244 C   0  0  0  0  0  0  0  0  0  0  0  0
   21.5445   12.6891   50.8968 N   0  0  0  0  0  0  0  0  0  0  0  0
   20.9042   12.4399   49.8710 O   0  0  0  0  0  0  0  0  0  0  0  0
   22.3399   13.7905   50.9534 O   0  0  0  0  0  0  0  0  0  0  0  0
   21.3573    5.0832   53.5049 C   0  0  0  0  0  0  0  0  0  0  0  0
   22.4202    6.0919   53.9154 C   0  0  0  0  0  0  0  0  0  0  0  0
   23.2376    6.5358   52.7307 C   0  0  0  0  0  0  0  0  0  0  0  0
   24.1385    7.6702   53.2309 C   0  0  0  0  0  0  0  0  0  0  0  0
   24.9945    7.2079   54.2613 N   0  0  0  0  0  0  0  0  0  0  0  0
   24.7922    5.8702   54.6992 C   0  0  0  0  0  0  0  0  0  0  0  0
   23.3505    5.5175   54.9572 C   0  0  0  0  0  0  0  0  0  0  0  0
   26.3736    7.3927   53.8993 C   0  0  0  0  0  0  0  0  0  0  0  0
   27.1184    8.3216   54.7505 C   0  0  0  0  0  0  0  0  0  0  0  0
   26.5072    8.7088   55.9353 C   0  0  0  0  0  0  0  0  0  0  0  0
   27.1068    9.5709   56.8291 C   0  0  0  0  0  0  0  0  0  0  0  0
   28.3533   10.0448   56.5040 C   0  0  0  0  0  0  0  0  0  0  0  0
   28.9642    9.6671   55.3349 C   0  0  0  0  0  0  0  0  0  0  0  0
   28.3608    8.8110   54.4546 C   0  0  0  0  0  0  0  0  0  0  0  0
  2  3  2  0  0  0
  3  4  1  0  0  0
  4  1  1  0  0  0
  1 15  1  0  0  0
 15 16  1  0  0  0
 16 17  1  0  0  0
 17 18  1  0  0  0
 18 19  1  0  0  0
 19 22  1  0  0  0
 22 23  1  0  0  0
 23 24  2  0  0  0
 24 25  1  0  0  0
 25 26  2  0  0  0
 26 27  1  0  0  0
 27 28  2  0  0  0
 19 20  1  0  0  0
 20 21  1  0  0  0
  3  6  1  0  0  0
  6  7  2  0  0  0
  7  8  1  0  0  0
  8  9  2  0  0  0
  9 10  1  0  0  0
 10 12  1  0  0  0
 12 13  2  0  0  0
 12 14  1  0  0  0
 10 11  2  0  0  0
 21 16  1  0  0  0
 11  6  1  0  0  0
 28 23  1  0  0  0
  4  5  1  0  0  0
M  CHG 1  12   1
M  CHG 1  14  -1
M  END
> <minimizedAffinity>
11.09464

> <CNNscore>
0.5734625459

> <CNNaffinity>
6.1098256111

> <CNN_VS>
3.5037560463

> <CNNaffinity_variance>
0.3481124938

$$$$
[H]c1c([H])c([H])c(C([H])([H])N2C([H])([H])C([H])([H])C([H])(C([H])([H])C([H])([H])N([H])C(=O)c3c([H])c([H])c([H])c([N+](=O)[O-])c3[H])C([H])([H])C2([H])[H])c([H])c1[H]


 28 30  0  0  0  0  0  0  0  0999 V2000
   20.0204    5.4757   52.4118 C   0  0  0  0  0  0  0  0  0  0  0  0
   20.5936    7.6059   50.6877 O   0  0  0  0  0  0  0  0  0  0  0  0
   20.6698    7.8229   51.9227 C   0  0  0  0  0  0  0  0  0  0  0  0
   20.3966    6.7914   52.8327 N   0  0  0  0  0  0  0  0  0  0  0  0
   20.4593    6.9534   53.8607 H   0  0  0  0  0  0  0  0  0  0  0  0
   21.0488    9.1753   52.3115 C   0  0  0  0  0  0  0  0  0  0  0  0
   21.1146   10.1821   51.3775 C   0  0  0  0  0  0  0  0  0  0  0  0
   21.4792   11.4822   51.7522 C   0  0  0  0  0  0  0  0  0  0  0  0
   21.7755   11.7613   53.0651 C   0  0  0  0  0  0  0  0  0  0  0  0
   21.7200   10.7723   54.0354 C   0  0  0  0  0  0  0  0  0  0  0  0
   21.3532    9.5007   53.6114 C   0  0  0  0  0  0  0  0  0  0  0  0
   22.0193   11.0276   55.3939 N   0  0  0  0  0  0  0  0  0  0  0  0
   21.0930   11.1764   56.1965 O   0  0  0  0  0  0  0  0  0  0  0  0
   23.3087   11.1091   55.8181 O   0  0  0  0  0  0  0  0  0  0  0  0
   20.6105    4.4518   53.3363 C   0  0  0  0  0  0  0  0  0  0  0  0
   21.8502    5.0843   53.9519 C   0  0  0  0  0  0  0  0  0  0  0  0
   21.5103    6.3642   54.6696 C   0  0  0  0  0  0  0  0  0  0  0  0
   22.7882    6.8040   55.3923 C   0  0  0  0  0  0  0  0  0  0  0  0
   23.8313    7.0354   54.4616 N   0  0  0  0  0  0  0  0  0  0  0  0
   23.5483    6.7232   53.1035 C   0  0  0  0  0  0  0  0  0  0  0  0
   22.8953    5.3805   52.9028 C   0  0  0  0  0  0  0  0  0  0  0  0
   24.3071    8.3889   54.5555 C   0  0  0  0  0  0  0  0  0  0  0  0
   25.7546    8.5266   54.7221 C   0  0  0  0  0  0  0  0  0  0  0  0
   26.1976    9.0309   55.9373 C   0  0  0  0  0  0  0  0  0  0  0  0
   27.5357    9.2001   56.2239 C   0  0  0  0  0  0  0  0  0  0  0  0
   28.4358    8.8470   55.2496 C   0  0  0  0  0  0  0  0  0  0  0  0
   28.0062    8.3480   54.0458 C   0  0  0  0  0  0  0  0  0  0  0  0
   26.6760    8.1839   53.7711 C   0  0  0  0  0  0  0  0  0  0  0  0
  2  3  2  0  0  0
  3  4  1  0  0  0
  4  1  1  0  0  0
  1 15  1  0  0  0
 15 16  1  0  0  0
 16 17  1  0  0  0
 17 18  1  0  0  0
 18 19  1  0  0  0
 19 22  1  0  0  0
 22 23  1  0  0  0
 23 24  2  0  0  0
 24 25  1  0  0  0
 25 26  2  0  0  0
 26 27  1  0  0  0
 27 28  2  0  0  0
 19 20  1  0  0  0
 20 21  1  0  0  0
  3  6  1  0  0  0
  6  7  2  0  0  0
  7  8  1  0  0  0
  8  9  2  0  0  0
  9 10  1  0  0  0
 10 12  1  0  0  0
 12 13  2  0  0  0
 12 14  1  0  0  0
 10 11  2  0  0  0
 21 16  1  0  0  0
 11  6  1  0  0  0
 28 23  1  0  0  0
  4  5  1  0  0  0
M  CHG 1  12   1
M  CHG 1  14  -1
M  END
> <minimizedAffinity>
10.64575

> <CNNscore>
0.5708995461

> <CNNaffinity>
6.1188826561

> <CNN_VS>
3.4932672977

> <CNNaffinity_variance>
0.4967135489

$$$$
[H]c1c([H])c([H])c(C([H])([H])N2C([H])([H])C([H])([H])C([H])(C([H])([H])C([H])([H])N([H])C(=O)c3c([H])c([H])c([H])c([N+](=O)[O-])c3[H])C([H])([H])C2([H])[H])c([H])c1[H]


 28 30  0  0  0  0  0  0  0  0999 V2000
   26.8705    7.0633   53.7870 C   0  0  0  0  0  0  0  0  0  0  0  0
   24.4533    5.6878   53.4644 O   0  0  0  0  0  0  0  0  0  0  0  0
   24.3956    6.9333   53.6179 C   0  0  0  0  0  0  0  0  0  0  0  0
   25.5755    7.6738   53.7807 N   0  0  0  0  0  0  0  0  0  0  0  0
   25.5457    8.7085   53.9050 H   0  0  0  0  0  0  0  0  0  0  0  0
   23.0601    7.5166   53.6126 C   0  0  0  0  0  0  0  0  0  0  0  0
   22.1125    7.0931   52.7109 C   0  0  0  0  0  0  0  0  0  0  0  0
   20.8286    7.6545   52.7064 C   0  0  0  0  0  0  0  0  0  0  0  0
   20.5060    8.6390   53.6097 C   0  0  0  0  0  0  0  0  0  0  0  0
   21.4348    9.0919   54.5343 C   0  0  0  0  0  0  0  0  0  0  0  0
   22.6928    8.5024   54.4965 C   0  0  0  0  0  0  0  0  0  0  0  0
   21.1339   10.1033   55.4760 N   0  0  0  0  0  0  0  0  0  0  0  0
   20.0193   10.6340   55.4535 O   0  0  0  0  0  0  0  0  0  0  0  0
   22.0553   10.4913   56.3976 O   0  0  0  0  0  0  0  0  0  0  0  0
   27.9349    8.1144   53.6705 C   0  0  0  0  0  0  0  0  0  0  0  0
   28.2130    8.6105   55.0820 C   0  0  0  0  0  0  0  0  0  0  0  0
   26.9433    9.0387   55.7698 C   0  0  0  0  0  0  0  0  0  0  0  0
   27.3227    9.3398   57.2238 C   0  0  0  0  0  0  0  0  0  0  0  0
   28.2786   10.3842   57.2822 N   0  0  0  0  0  0  0  0  0  0  0  0
   28.7713   10.8614   56.0365 C   0  0  0  0  0  0  0  0  0  0  0  0
   29.1763    9.7735   55.0764 C   0  0  0  0  0  0  0  0  0  0  0  0
   27.7809   11.4878   58.0578 C   0  0  0  0  0  0  0  0  0  0  0  0
   28.5705   11.8165   59.2454 C   0  0  0  0  0  0  0  0  0  0  0  0
   28.2510   12.9986   59.8994 C   0  0  0  0  0  0  0  0  0  0  0  0
   28.9120   13.4172   61.0349 C   0  0  0  0  0  0  0  0  0  0  0  0
   29.9176   12.6119   61.5086 C   0  0  0  0  0  0  0  0  0  0  0  0
   30.2397   11.4421   60.8680 C   0  0  0  0  0  0  0  0  0  0  0  0
   29.5776   11.0355   59.7418 C   0  0  0  0  0  0  0  0  0  0  0  0
  2  3  2  0  0  0
  3  4  1  0  0  0
  4  1  1  0  0  0
  1 15  1  0  0  0
 15 16  1  0  0  0
 16 17  1  0  0  0
 17 18  1  0  0  0
 18 19  1  0  0  0
 19 22  1  0  0  0
 22 23  1  0  0  0
 23 24  2  0  0  0
 24 25  1  0  0  0
 25 26  2  0  0  0
 26 27  1  0  0  0
 27 28  2  0  0  0
 19 20  1  0  0  0
 20 21  1  0  0  0
  3  6  1  0  0  0
  6  7  2  0  0  0
  7  8  1  0  0  0
  8  9  2  0  0  0
  9 10  1  0  0  0
 10 12  1  0  0  0
 12 13  2  0  0  0
 12 14  1  0  0  0
 10 11  2  0  0  0
 21 16  1  0  0  0
 11  6  1  0  0  0
 28 23  1  0  0  0
  4  5  1  0  0  0
M  CHG 1  12   1
M  CHG 1  14  -1
M  END
> <minimizedAffinity>
6.81935

> <CNNscore>
0.5672366023

> <CNNaffinity>
6.0083389282

> <CNN_VS>
3.4081497192

> <CNNaffinity_variance>
0.5123418570

$$$$
[H]c1c([H])c([H])c(C([H])([H])N2C([H])([H])C([H])([H])C([H])(C([H])([H])C([H])([H])N([H])C(=O)c3c([H])c([H])c([H])c([N+](=O)[O-])c3[H])C([H])([H])C2([H])[H])c([H])c1[H]


 28 30  0  0  0  0  0  0  0  0999 V2000
   21.1111    6.9787   55.7360 C   0  0  0  0  0  0  0  0  0  0  0  0
   21.3213    9.7388   55.3161 O   0  0  0  0  0  0  0  0  0  0  0  0
   21.1985    9.0060   54.3032 C   0  0  0  0  0  0  0  0  0  0  0  0
   21.0858    7.6163   54.4544 N   0  0  0  0  0  0  0  0  0  0  0  0
   20.9790    6.9941   53.6247 H   0  0  0  0  0  0  0  0  0  0  0  0
   21.1838    9.6910   53.0170 C   0  0  0  0  0  0  0  0  0  0  0  0
   20.9057    9.0042   51.8588 C   0  0  0  0  0  0  0  0  0  0  0  0
   20.8919    9.6637   50.6224 C   0  0  0  0  0  0  0  0  0  0  0  0
   21.1581   11.0106   50.5592 C   0  0  0  0  0  0  0  0  0  0  0  0
   21.4425   11.7369   51.7056 C   0  0  0  0  0  0  0  0  0  0  0  0
   21.4435   11.0357   52.9055 C   0  0  0  0  0  0  0  0  0  0  0  0
   21.7209   13.1232   51.6734 N   0  0  0  0  0  0  0  0  0  0  0  0
   22.8703   13.5006   51.4265 O   0  0  0  0  0  0  0  0  0  0  0  0
   20.7401   14.0347   51.9103 O   0  0  0  0  0  0  0  0  0  0  0  0
   22.2126    5.9610   55.7823 C   0  0  0  0  0  0  0  0  0  0  0  0
   23.1251    6.2532   54.6001 C   0  0  0  0  0  0  0  0  0  0  0  0
   24.5757    6.1668   54.9962 C   0  0  0  0  0  0  0  0  0  0  0  0
   25.3836    6.2970   53.7004 C   0  0  0  0  0  0  0  0  0  0  0  0
   25.1272    7.5439   53.0778 N   0  0  0  0  0  0  0  0  0  0  0  0
   24.1301    8.3590   53.6807 C   0  0  0  0  0  0  0  0  0  0  0  0
   22.8608    7.6253   54.0272 C   0  0  0  0  0  0  0  0  0  0  0  0
   26.3418    8.2989   52.9299 C   0  0  0  0  0  0  0  0  0  0  0  0
   27.0013    8.6633   54.1846 C   0  0  0  0  0  0  0  0  0  0  0  0
   28.3893    8.6901   54.1749 C   0  0  0  0  0  0  0  0  0  0  0  0
   29.1300    9.0271   55.2880 C   0  0  0  0  0  0  0  0  0  0  0  0
   28.4379    9.3418   56.4308 C   0  0  0  0  0  0  0  0  0  0  0  0
   27.0661    9.3176   56.4488 C   0  0  0  0  0  0  0  0  0  0  0  0
   26.3402    8.9819   55.3387 C   0  0  0  0  0  0  0  0  0  0  0  0
  2  3  2  0  0  0
  3  4  1  0  0  0
  4  1  1  0  0  0
  1 15  1  0  0  0
 15 16  1  0  0  0
 16 17  1  0  0  0
 17 18  1  0  0  0
 18 19  1  0  0  0
 19 22  1  0  0  0
 22 23  1  0  0  0
 23 24  2  0  0  0
 24 25  1  0  0  0
 25 26  2  0  0  0
 26 27  1  0  0  0
 27 28  2  0  0  0
 19 20  1  0  0  0
 20 21  1  0  0  0
  3  6  1  0  0  0
  6  7  2  0  0  0
  7  8  1  0  0  0
  8  9  2  0  0  0
  9 10  1  0  0  0
 10 12  1  0  0  0
 12 13  2  0  0  0
 12 14  1  0  0  0
 10 11  2  0  0  0
 21 16  1  0  0  0
 11  6  1  0  0  0
 28 23  1  0  0  0
  4  5  1  0  0  0
M  CHG 1  12   1
M  CHG 1  14  -1
M  END
> <minimizedAffinity>
14.84196

> <CNNscore>
0.5566897392

> <CNNaffinity>
6.0124526024

> <CNN_VS>
3.3470706940

> <CNNaffinity_variance>
0.4131143093

$$$$
[H]c1c([H])c([H])c(C([H])([H])N2C([H])([H])C([H])([H])C([H])(C([H])([H])C([H])([H])N([H])C(=O)c3c([H])c([H])c([H])c([N+](=O)[O-])c3[H])C([H])([H])C2([H])[H])c([H])c1[H]


 28 30  0  0  0  0  0  0  0  0999 V2000
   22.7623    6.5818   54.2834 C   0  0  0  0  0  0  0  0  0  0  0  0
   24.4784    8.3005   52.8905 O   0  0  0  0  0  0  0  0  0  0  0  0
   24.8798    7.8472   53.9913 C   0  0  0  0  0  0  0  0  0  0  0  0
   24.0630    6.9793   54.7304 N   0  0  0  0  0  0  0  0  0  0  0  0
   24.3825    6.5908   55.6436 H   0  0  0  0  0  0  0  0  0  0  0  0
   26.2053    8.2799   54.4153 C   0  0  0  0  0  0  0  0  0  0  0  0
   27.2701    8.2340   53.5468 C   0  0  0  0  0  0  0  0  0  0  0  0
   28.5443    8.6502   53.9554 C   0  0  0  0  0  0  0  0  0  0  0  0
   28.7391    9.1101   55.2359 C   0  0  0  0  0  0  0  0  0  0  0  0
   27.6896    9.1711   56.1401 C   0  0  0  0  0  0  0  0  0  0  0  0
   26.4470    8.7468   55.6848 C   0  0  0  0  0  0  0  0  0  0  0  0
   27.8579    9.6388   57.4642 N   0  0  0  0  0  0  0  0  0  0  0  0
   27.7454    8.8437   58.4020 O   0  0  0  0  0  0  0  0  0  0  0  0
   28.1406   10.9462   57.7089 O   0  0  0  0  0  0  0  0  0  0  0  0
   21.7075    7.2167   55.1411 C   0  0  0  0  0  0  0  0  0  0  0  0
   21.1769    8.4130   54.3645 C   0  0  0  0  0  0  0  0  0  0  0  0
   21.7707    8.4725   52.9815 C   0  0  0  0  0  0  0  0  0  0  0  0
   21.0325    9.5955   52.2449 C   0  0  0  0  0  0  0  0  0  0  0  0
   21.2247   10.8341   52.9059 N   0  0  0  0  0  0  0  0  0  0  0  0
   21.9389   10.7913   54.1348 C   0  0  0  0  0  0  0  0  0  0  0  0
   21.4795    9.7095   55.0773 C   0  0  0  0  0  0  0  0  0  0  0  0
   21.8377   11.7916   52.0258 C   0  0  0  0  0  0  0  0  0  0  0  0
   21.1763   13.0961   51.9724 C   0  0  0  0  0  0  0  0  0  0  0  0
   21.4327   13.8803   50.8559 C   0  0  0  0  0  0  0  0  0  0  0  0
   20.8645   15.1243   50.6799 C   0  0  0  0  0  0  0  0  0  0  0  0
   20.0195   15.5732   51.6640 C   0  0  0  0  0  0  0  0  0  0  0  0
   19.7609   14.8045   52.7706 C   0  0  0  0  0  0  0  0  0  0  0  0
   20.3298   13.5712   52.9359 C   0  0  0  0  0  0  0  0  0  0  0  0
  2  3  2  0  0  0
  3  4  1  0  0  0
  4  1  1  0  0  0
  1 15  1  0  0  0
 15 16  1  0  0  0
 16 17  1  0  0  0
 17 18  1  0  0  0
 18 19  1  0  0  0
 19 22  1  0  0  0
 22 23  1  0  0  0
 23 24  2  0  0  0
 24 25  1  0  0  0
 25 26  2  0  0  0
 26 27  1  0  0  0
 27 28  2  0  0  0
 19 20  1  0  0  0
 20 21  1  0  0  0
  3  6  1  0  0  0
  6  7  2  0  0  0
  7  8  1  0  0  0
  8  9  2  0  0  0
  9 10  1  0  0  0
 10 12  1  0  0  0
 12 13  2  0  0  0
 12 14  1  0  0  0
 10 11  2  0  0  0
 21 16  1  0  0  0
 11  6  1  0  0  0
 28 23  1  0  0  0
  4  5  1  0  0  0
M  CHG 1  12   1
M  CHG 1  14  -1
M  END
> <minimizedAffinity>
7.92853

> <CNNscore>
0.5416285396

> <CNNaffinity>
5.8366503716

> <CNN_VS>
3.1612963676

> <CNNaffinity_variance>
0.2163276672

$$$$
[H]c1c([H])c([H])c(C([H])([H])N2C([H])([H])C([H])([H])C([H])(C([H])([H])C([H])([H])N([H])C(=O)c3c([H])c([H])c([H])c([N+](=O)[O-])c3[H])C([H])([H])C2([H])[H])c([H])c1[H]


 28 30  0  0  0  0  0  0  0  0999 V2000
   27.5105    8.3114   55.0150 C   0  0  0  0  0  0  0  0  0  0  0  0
   25.2154    6.7258   54.7752 O   0  0  0  0  0  0  0  0  0  0  0  0
   25.0651    7.9726   54.7388 C   0  0  0  0  0  0  0  0  0  0  0  0
   26.1804    8.8154   54.8509 N   0  0  0  0  0  0  0  0  0  0  0  0
   26.0739    9.8520   54.8184 H   0  0  0  0  0  0  0  0  0  0  0  0
   23.6966    8.4467   54.5776 C   0  0  0  0  0  0  0  0  0  0  0  0
   23.1442    9.3192   55.4854 C   0  0  0  0  0  0  0  0  0  0  0  0
   21.8281    9.7746   55.3297 C   0  0  0  0  0  0  0  0  0  0  0  0
   21.0758    9.3490   54.2611 C   0  0  0  0  0  0  0  0  0  0  0  0
   21.5983    8.4696   53.3249 C   0  0  0  0  0  0  0  0  0  0  0  0
   22.9075    8.0487   53.5255 C   0  0  0  0  0  0  0  0  0  0  0  0
   20.8497    8.0130   52.2152 N   0  0  0  0  0  0  0  0  0  0  0  0
   19.9553    7.1809   52.3941 O   0  0  0  0  0  0  0  0  0  0  0  0
   21.1060    8.4803   50.9642 O   0  0  0  0  0  0  0  0  0  0  0  0
   28.4367    9.4238   55.4099 C   0  0  0  0  0  0  0  0  0  0  0  0
   28.0674    9.8128   56.8340 C   0  0  0  0  0  0  0  0  0  0  0  0
   28.9493   10.9229   57.3425 C   0  0  0  0  0  0  0  0  0  0  0  0
   28.3701   11.3458   58.6968 C   0  0  0  0  0  0  0  0  0  0  0  0
   28.3891   10.2598   59.6068 N   0  0  0  0  0  0  0  0  0  0  0  0
   28.8164    9.0067   59.0877 C   0  0  0  0  0  0  0  0  0  0  0  0
   28.1815    8.6354   57.7729 C   0  0  0  0  0  0  0  0  0  0  0  0
   29.1624   10.5863   60.7741 C   0  0  0  0  0  0  0  0  0  0  0  0
   29.4136   12.0146   60.9711 C   0  0  0  0  0  0  0  0  0  0  0  0
   28.2989   12.8341   61.0858 C   0  0  0  0  0  0  0  0  0  0  0  0
   28.3991   14.1950   61.2839 C   0  0  0  0  0  0  0  0  0  0  0  0
   29.6621   14.7261   61.3657 C   0  0  0  0  0  0  0  0  0  0  0  0
   30.7690   13.9231   61.2532 C   0  0  0  0  0  0  0  0  0  0  0  0
   30.6590   12.5736   61.0568 C   0  0  0  0  0  0  0  0  0  0  0  0
  2  3  2  0  0  0
  3  4  1  0  0  0
  4  1  1  0  0  0
  1 15  1  0  0  0
 15 16  1  0  0  0
 16 17  1  0  0  0
 17 18  1  0  0  0
 18 19  1  0  0  0
 19 22  1  0  0  0
 22 23  1  0  0  0
 23 24  2  0  0  0
 24 25  1  0  0  0
 25 26  2  0  0  0
 26 27  1  0  0  0
 27 28  2  0  0  0
 19 20  1  0  0  0
 20 21  1  0  0  0
  3  6  1  0  0  0
  6  7  2  0  0  0
  7  8  1  0  0  0
  8  9  2  0  0  0
  9 10  1  0  0  0
 10 12  1  0  0  0
 12 13  2  0  0  0
 12 14  1  0  0  0
 10 11  2  0  0  0
 21 16  1  0  0  0
 11  6  1  0  0  0
 28 23  1  0  0  0
  4  5  1  0  0  0
M  CHG 1  12   1
M  CHG 1  14  -1
M  END
> <minimizedAffinity>
-0.64151

> <CNNscore>
0.5391076803

> <CNNaffinity>
5.9120855331

> <CNN_VS>
3.1872506142

> <CNNaffinity_variance>
1.1349927187

$$$$
[H]c1c([H])c([H])c(C([H])([H])N2C([H])([H])C([H])([H])C([H])(C([H])([H])C([H])([H])N([H])C(=O)c3c([H])c([H])c([H])c([N+](=O)[O-])c3[H])C([H])([H])C2([H])[H])c([H])c1[H]


 28 30  0  0  0  0  0  0  0  0999 V2000
   26.7988   10.5441   57.0721 C   0  0  0  0  0  0  0  0  0  0  0  0
   24.7419   12.1238   56.0172 O   0  0  0  0  0  0  0  0  0  0  0  0
   24.5780   10.8783   56.0106 C   0  0  0  0  0  0  0  0  0  0  0  0
   25.5742   10.0385   56.5294 N   0  0  0  0  0  0  0  0  0  0  0  0
   25.4524    9.0031   56.5355 H   0  0  0  0  0  0  0  0  0  0  0  0
   23.3225   10.4021   55.4442 C   0  0  0  0  0  0  0  0  0  0  0  0
   22.4655    9.6268   56.1890 C   0  0  0  0  0  0  0  0  0  0  0  0
   21.2585    9.1692   55.6436 C   0  0  0  0  0  0  0  0  0  0  0  0
   20.9213    9.4948   54.3515 C   0  0  0  0  0  0  0  0  0  0  0  0
   21.7598   10.2747   53.5696 C   0  0  0  0  0  0  0  0  0  0  0  0
   22.9440   10.7025   54.1580 C   0  0  0  0  0  0  0  0  0  0  0  0
   21.4415   10.6264   52.2372 N   0  0  0  0  0  0  0  0  0  0  0  0
   21.6922   11.7682   51.8399 O   0  0  0  0  0  0  0  0  0  0  0  0
   20.8667    9.7235   51.3984 O   0  0  0  0  0  0  0  0  0  0  0  0
   27.8863    9.5204   56.9284 C   0  0  0  0  0  0  0  0  0  0  0  0
   27.4967    8.6334   55.7548 C   0  0  0  0  0  0  0  0  0  0  0  0
   27.1414    9.4557   54.5439 C   0  0  0  0  0  0  0  0  0  0  0  0
   26.9480    8.4633   53.3922 C   0  0  0  0  0  0  0  0  0  0  0  0
   25.8974    7.5590   53.6862 N   0  0  0  0  0  0  0  0  0  0  0  0
   25.3183    7.6613   54.9809 C   0  0  0  0  0  0  0  0  0  0  0  0
   26.3227    7.7485   56.1002 C   0  0  0  0  0  0  0  0  0  0  0  0
   24.8644    7.6366   52.6892 C   0  0  0  0  0  0  0  0  0  0  0  0
   23.5773    7.0631   53.0847 C   0  0  0  0  0  0  0  0  0  0  0  0
   23.5645    6.2992   54.2438 C   0  0  0  0  0  0  0  0  0  0  0  0
   22.4152    5.7124   54.7299 C   0  0  0  0  0  0  0  0  0  0  0  0
   21.2593    5.9107   54.0167 C   0  0  0  0  0  0  0  0  0  0  0  0
   21.2634    6.6642   52.8701 C   0  0  0  0  0  0  0  0  0  0  0  0
   22.4092    7.2425   52.3960 C   0  0  0  0  0  0  0  0  0  0  0  0
  2  3  2  0  0  0
  3  4  1  0  0  0
  4  1  1  0  0  0
  1 15  1  0  0  0
 15 16  1  0  0  0
 16 17  1  0  0  0
 17 18  1  0  0  0
 18 19  1  0  0  0
 19 22  1  0  0  0
 22 23  1  0  0  0
 23 24  2  0  0  0
 24 25  1  0  0  0
 25 26  2  0  0  0
 26 27  1  0  0  0
 27 28  2  0  0  0
 19 20  1  0  0  0
 20 21  1  0  0  0
  3  6  1  0  0  0
  6  7  2  0  0  0
  7  8  1  0  0  0
  8  9  2  0  0  0
  9 10  1  0  0  0
 10 12  1  0  0  0
 12 13  2  0  0  0
 12 14  1  0  0  0
 10 11  2  0  0  0
 21 16  1  0  0  0
 11  6  1  0  0  0
 28 23  1  0  0  0
  4  5  1  0  0  0
M  CHG 1  12   1
M  CHG 1  14  -1
M  END
> <minimizedAffinity>
20.50989

> <CNNscore>
0.5388070941

> <CNNaffinity>
5.9325494766

> <CNN_VS>
3.1964998245

> <CNNaffinity_variance>
0.5757382512

$$$$
[H]c1c([H])c([H])c(C([H])([H])N2C([H])([H])C([H])([H])C([H])(C([H])([H])C([H])([H])N([H])C(=O)c3c([H])c([H])c([H])c([N+](=O)[O-])c3[H])C([H])([H])C2([H])[H])c([H])c1[H]


 28 30  0  0  0  0  0  0  0  0999 V2000
   25.4475    9.2727   56.8023 C   0  0  0  0  0  0  0  0  0  0  0  0
   22.6539    9.4447   56.7286 O   0  0  0  0  0  0  0  0  0  0  0  0
   23.2695    9.5374   55.6374 C   0  0  0  0  0  0  0  0  0  0  0  0
   24.6693    9.4550   55.6144 N   0  0  0  0  0  0  0  0  0  0  0  0
   25.1954    9.5257   54.7171 H   0  0  0  0  0  0  0  0  0  0  0  0
   22.4436    9.7289   54.4521 C   0  0  0  0  0  0  0  0  0  0  0  0
   22.1940   10.9908   53.9666 C   0  0  0  0  0  0  0  0  0  0  0  0
   21.3996   11.1742   52.8269 C   0  0  0  0  0  0  0  0  0  0  0  0
   20.8610   10.0861   52.1826 C   0  0  0  0  0  0  0  0  0  0  0  0
   21.0905    8.7982   52.6423 C   0  0  0  0  0  0  0  0  0  0  0  0
   21.8847    8.6715   53.7757 C   0  0  0  0  0  0  0  0  0  0  0  0
   20.5503    7.6587   52.0019 N   0  0  0  0  0  0  0  0  0  0  0  0
   20.3077    6.6504   52.6719 O   0  0  0  0  0  0  0  0  0  0  0  0
   20.2984    7.6663   50.6657 O   0  0  0  0  0  0  0  0  0  0  0  0
   26.8229    8.7900   56.4469 C   0  0  0  0  0  0  0  0  0  0  0  0
   27.0828    9.2325   55.0143 C   0  0  0  0  0  0  0  0  0  0  0  0
   26.3639    8.3468   54.0308 C   0  0  0  0  0  0  0  0  0  0  0  0
   26.5505    8.9932   52.6539 C   0  0  0  0  0  0  0  0  0  0  0  0
   27.9260    9.0662   52.3211 N   0  0  0  0  0  0  0  0  0  0  0  0
   28.8428    8.6499   53.3253 C   0  0  0  0  0  0  0  0  0  0  0  0
   28.5582    9.2152   54.6924 C   0  0  0  0  0  0  0  0  0  0  0  0
   28.1934    8.3551   51.1004 C   0  0  0  0  0  0  0  0  0  0  0  0
   28.3230    9.1958   49.9095 C   0  0  0  0  0  0  0  0  0  0  0  0
   28.5419    8.5416   48.7048 C   0  0  0  0  0  0  0  0  0  0  0  0
   28.6716    9.2169   47.5096 C   0  0  0  0  0  0  0  0  0  0  0  0
   28.5759   10.5856   47.5486 C   0  0  0  0  0  0  0  0  0  0  0  0
   28.3599   11.2400   48.7351 C   0  0  0  0  0  0  0  0  0  0  0  0
   28.2325   10.5606   49.9158 C   0  0  0  0  0  0  0  0  0  0  0  0
  2  3  2  0  0  0
  3  4  1  0  0  0
  4  1  1  0  0  0
  1 15  1  0  0  0
 15 16  1  0  0  0
 16 17  1  0  0  0
 17 18  1  0  0  0
 18 19  1  0  0  0
 19 22  1  0  0  0
 22 23  1  0  0  0
 23 24  2  0  0  0
 24 25  1  0  0  0
 25 26  2  0  0  0
 26 27  1  0  0  0
 27 28  2  0  0  0
 19 20  1  0  0  0
 20 21  1  0  0  0
  3  6  1  0  0  0
  6  7  2  0  0  0
  7  8  1  0  0  0
  8  9  2  0  0  0
  9 10  1  0  0  0
 10 12  1  0  0  0
 12 13  2  0  0  0
 12 14  1  0  0  0
 10 11  2  0  0  0
 21 16  1  0  0  0
 11  6  1  0  0  0
 28 23  1  0  0  0
  4  5  1  0  0  0
M  CHG 1  12   1
M  CHG 1  14  -1
M  END
> <minimizedAffinity>
24.30766

> <CNNscore>
0.5373442769

> <CNNaffinity>
5.9290747643

> <CNN_VS>
3.1859543324

> <CNNaffinity_variance>
0.2351156026

$$$$
[H]OC(=O)c1c([H])c([H])c(OC2([H])C([H])([H])SC2([H])[H])c([H])c1[H]


 15 16  0  0  0  0  0  0  0  0999 V2000
   21.4350   11.0801   51.9085 C   0  0  0  0  0  0  0  0  0  0  0  0
   21.2499    9.8895   51.2203 C   0  0  0  0  0  0  0  0  0  0  0  0
   21.1973    8.6933   51.9271 C   0  0  0  0  0  0  0  0  0  0  0  0
   21.3224    8.6384   53.2958 C   0  0  0  0  0  0  0  0  0  0  0  0
   21.5070    9.8363   53.9731 C   0  0  0  0  0  0  0  0  0  0  0  0
   21.5629   11.0477   53.2843 C   0  0  0  0  0  0  0  0  0  0  0  0
   22.1728   13.2986   51.6029 O   0  0  0  0  0  0  0  0  0  0  0  0
   21.4902   12.3398   51.1624 C   0  0  0  0  0  0  0  0  0  0  0  0
   20.7914   12.4720   49.9750 O   0  0  0  0  0  0  0  0  0  0  0  0
   19.8869   12.9445   50.0007 H   0  0  0  0  0  0  0  0  0  0  0  0
   21.2738    7.5056   53.9782 O   0  0  0  0  0  0  0  0  0  0  0  0
   22.0384    6.5093   54.4070 C   0  0  0  0  0  0  0  0  0  0  0  0
   23.4352    6.3302   53.7947 C   0  0  0  0  0  0  0  0  0  0  0  0
   23.6849    5.0895   55.1047 S   0  0  0  0  0  0  0  0  0  0  0  0
   22.7078    6.5051   55.7385 C   0  0  0  0  0  0  0  0  0  0  0  0
  7  8  2  0  0  0
  8  9  1  0  0  0
  8  1  1  0  0  0
  1  2  2  0  0  0
  2  3  1  0  0  0
  3  4  2  0  0  0
  4 11  1  0  0  0
 11 12  1  0  0  0
 12 13  1  0  0  0
 13 14  1  0  0  0
 14 15  1  0  0  0
  4  5  1  0  0  0
  5  6  2  0  0  0
  6  1  1  0  0  0
 15 12  1  0  0  0
  9 10  1  0  0  0
M  END
> <minimizedAffinity>
3.13976

> <CNNscore>
0.6421040893

> <CNNaffinity>
4.2947778702

> <CNN_VS>
2.7576944828

> <CNNaffinity_variance>
0.1278793812

$$$$
[H]OC(=O)c1c([H])c([H])c(OC2([H])C([H])([H])SC2([H])[H])c([H])c1[H]


 15 16  0  0  0  0  0  0  0  0999 V2000
   26.5361    8.8453   55.1780 C   0  0  0  0  0  0  0  0  0  0  0  0
   26.4339    8.0759   54.0278 C   0  0  0  0  0  0  0  0  0  0  0  0
   25.1768    7.7035   53.5649 C   0  0  0  0  0  0  0  0  0  0  0  0
   24.0159    8.0692   54.2057 C   0  0  0  0  0  0  0  0  0  0  0  0
   24.1312    8.8390   55.3554 C   0  0  0  0  0  0  0  0  0  0  0  0
   25.3820    9.2239   55.8376 C   0  0  0  0  0  0  0  0  0  0  0  0
   28.0174    9.5506   56.8716 O   0  0  0  0  0  0  0  0  0  0  0  0
   27.8614    9.2370   55.6647 C   0  0  0  0  0  0  0  0  0  0  0  0
   28.9383    9.2612   54.7956 O   0  0  0  0  0  0  0  0  0  0  0  0
   29.2151   10.1603   54.3994 H   0  0  0  0  0  0  0  0  0  0  0  0
   22.8147    7.7202   53.7737 O   0  0  0  0  0  0  0  0  0  0  0  0
   21.9969    7.8526   52.7370 C   0  0  0  0  0  0  0  0  0  0  0  0
   20.5240    7.4497   52.8983 C   0  0  0  0  0  0  0  0  0  0  0  0
   20.2935    8.2090   51.2587 S   0  0  0  0  0  0  0  0  0  0  0  0
   21.5011    9.1702   52.2479 C   0  0  0  0  0  0  0  0  0  0  0  0
  7  8  2  0  0  0
  8  9  1  0  0  0
  8  1  1  0  0  0
  1  2  2  0  0  0
  2  3  1  0  0  0
  3  4  2  0  0  0
  4 11  1  0  0  0
 11 12  1  0  0  0
 12 13  1  0  0  0
 13 14  1  0  0  0
 14 15  1  0  0  0
  4  5  1  0  0  0
  5  6  2  0  0  0
  6  1  1  0  0  0
 15 12  1  0  0  0
  9 10  1  0  0  0
M  END
> <minimizedAffinity>
-0.73840

> <CNNscore>
0.6046156287

> <CNNaffinity>
4.0855455399

> <CNN_VS>
2.4701848030

> <CNNaffinity_variance>
0.5385544896

$$$$
[H]OC(=O)c1c([H])c([H])c(OC2([H])C([H])([H])SC2([H])[H])c([H])c1[H]


 15 16  0  0  0  0  0  0  0  0999 V2000
   26.3063    8.3123   54.6795 C   0  0  0  0  0  0  0  0  0  0  0  0
   25.6935    7.3879   53.8456 C   0  0  0  0  0  0  0  0  0  0  0  0
   24.3053    7.3400   53.7826 C   0  0  0  0  0  0  0  0  0  0  0  0
   23.5034    8.1795   54.5203 C   0  0  0  0  0  0  0  0  0  0  0  0
   24.1283    9.1001   55.3508 C   0  0  0  0  0  0  0  0  0  0  0  0
   25.5192    9.1656   55.4296 C   0  0  0  0  0  0  0  0  0  0  0  0
   28.3356    9.2591   55.4180 O   0  0  0  0  0  0  0  0  0  0  0  0
   27.7691    8.3617   54.7449 C   0  0  0  0  0  0  0  0  0  0  0  0
   28.5242    7.4210   54.0660 O   0  0  0  0  0  0  0  0  0  0  0  0
   28.9156    7.6829   53.1603 H   0  0  0  0  0  0  0  0  0  0  0  0
   22.1816    8.1424   54.4678 O   0  0  0  0  0  0  0  0  0  0  0  0
   21.1694    8.1135   53.6101 C   0  0  0  0  0  0  0  0  0  0  0  0
   21.3123    8.8486   52.2696 C   0  0  0  0  0  0  0  0  0  0  0  0
   19.7465    8.0303   51.8262 S   0  0  0  0  0  0  0  0  0  0  0  0
   20.8006    6.9058   52.8186 C   0  0  0  0  0  0  0  0  0  0  0  0
  7  8  2  0  0  0
  8  9  1  0  0  0
  8  1  1  0  0  0
  1  2  2  0  0  0
  2  3  1  0  0  0
  3  4  2  0  0  0
  4 11  1  0  0  0
 11 12  1  0  0  0
 12 13  1  0  0  0
 13 14  1  0  0  0
 14 15  1  0  0  0
  4  5  1  0  0  0
  5  6  2  0  0  0
  6  1  1  0  0  0
 15 12  1  0  0  0
  9 10  1  0  0  0
M  END
> <minimizedAffinity>
0.21215

> <CNNscore>
0.5475158691

> <CNNaffinity>
4.0964484215

> <CNN_VS>
2.2428705692

> <CNNaffinity_variance>
0.4187921882

$$$$
[H]OC(=O)c1c([H])c([H])c(OC2([H])C([H])([H])SC2([H])[H])c([H])c1[H]


 15 16  0  0  0  0  0  0  0  0999 V2000
   22.9758    7.0138   54.4350 C   0  0  0  0  0  0  0  0  0  0  0  0
   21.9146    7.4985   55.1862 C   0  0  0  0  0  0  0  0  0  0  0  0
   21.3847    8.7497   54.8916 C   0  0  0  0  0  0  0  0  0  0  0  0
   21.8730    9.5376   53.8753 C   0  0  0  0  0  0  0  0  0  0  0  0
   22.9348    9.0417   53.1309 C   0  0  0  0  0  0  0  0  0  0  0  0
   23.4818    7.7893   53.4089 C   0  0  0  0  0  0  0  0  0  0  0  0
   24.0459    5.0007   53.8332 O   0  0  0  0  0  0  0  0  0  0  0  0
   23.5332    5.6951   54.7466 C   0  0  0  0  0  0  0  0  0  0  0  0
   23.4943    5.2166   56.0447 O   0  0  0  0  0  0  0  0  0  0  0  0
   22.7512    4.5621   56.2927 H   0  0  0  0  0  0  0  0  0  0  0  0
   21.3761   10.7297   53.5865 O   0  0  0  0  0  0  0  0  0  0  0  0
   21.1603   11.5543   52.5694 C   0  0  0  0  0  0  0  0  0  0  0  0
   22.1674   12.6825   52.3030 C   0  0  0  0  0  0  0  0  0  0  0  0
   21.2297   12.9515   50.7648 S   0  0  0  0  0  0  0  0  0  0  0  0
   21.3428   11.1615   51.1435 C   0  0  0  0  0  0  0  0  0  0  0  0
  7  8  2  0  0  0
  8  9  1  0  0  0
  8  1  1  0  0  0
  1  2  2  0  0  0
  2  3  1  0  0  0
  3  4  2  0  0  0
  4 11  1  0  0  0
 11 12  1  0  0  0
 12 13  1  0  0  0
 13 14  1  0  0  0
 14 15  1  0  0  0
  4  5  1  0  0  0
  5  6  2  0  0  0
  6  1  1  0  0  0
 15 12  1  0  0  0
  9 10  1  0  0  0
M  END
> <minimizedAffinity>
4.54109

> <CNNscore>
0.4778442383

> <CNNaffinity>
4.4024677277

> <CNN_VS>
2.1036937237

> <CNNaffinity_variance>
0.0310496781

$$$$
[H]OC(=O)c1c([H])c([H])c(OC2([H])C([H])([H])SC2([H])[H])c([H])c1[H]


 15 16  0  0  0  0  0  0  0  0999 V2000
   21.9658    7.6963   52.7729 C   0  0  0  0  0  0  0  0  0  0  0  0
   22.6789    8.8492   53.0688 C   0  0  0  0  0  0  0  0  0  0  0  0
   23.8423    8.7575   53.8248 C   0  0  0  0  0  0  0  0  0  0  0  0
   24.3226    7.5586   54.2980 C   0  0  0  0  0  0  0  0  0  0  0  0
   23.6003    6.4121   53.9954 C   0  0  0  0  0  0  0  0  0  0  0  0
   22.4309    6.4809   53.2386 C   0  0  0  0  0  0  0  0  0  0  0  0
   20.7059    8.5477   50.9709 O   0  0  0  0  0  0  0  0  0  0  0  0
   20.7402    7.7944   51.9762 C   0  0  0  0  0  0  0  0  0  0  0  0
   19.6232    7.0582   52.3313 O   0  0  0  0  0  0  0  0  0  0  0  0
   18.8875    7.5279   52.8606 H   0  0  0  0  0  0  0  0  0  0  0  0
   25.4284    7.4601   55.0183 O   0  0  0  0  0  0  0  0  0  0  0  0
   26.6865    7.8797   55.0656 C   0  0  0  0  0  0  0  0  0  0  0  0
   27.3099    8.4977   53.8058 C   0  0  0  0  0  0  0  0  0  0  0  0
   28.7037    8.9358   54.8937 S   0  0  0  0  0  0  0  0  0  0  0  0
   27.1120    9.1132   55.7857 C   0  0  0  0  0  0  0  0  0  0  0  0
  7  8  2  0  0  0
  8  9  1  0  0  0
  8  1  1  0  0  0
  1  2  2  0  0  0
  2  3  1  0  0  0
  3  4  2  0  0  0
  4 11  1  0  0  0
 11 12  1  0  0  0
 12 13  1  0  0  0
 13 14  1  0  0  0
 14 15  1  0  0  0
  4  5  1  0  0  0
  5  6  2  0  0  0
  6  1  1  0  0  0
 15 12  1  0  0  0
  9 10  1  0  0  0
M  END
> <minimizedAffinity>
-2.10523

> <CNNscore>
0.4647776783

> <CNNaffinity>
4.3560929298

> <CNN_VS>
2.0246148109

> <CNNaffinity_variance>
0.6459552050

$$$$
[H]OC(=O)c1c([H])c([H])c(OC2([H])C([H])([H])SC2([H])[H])c([H])c1[H]


 15 16  0  0  0  0  0  0  0  0999 V2000
   25.1443    7.9454   54.2154 C   0  0  0  0  0  0  0  0  0  0  0  0
   24.0957    8.8094   54.4973 C   0  0  0  0  0  0  0  0  0  0  0  0
   22.8162    8.4990   54.0505 C   0  0  0  0  0  0  0  0  0  0  0  0
   22.5414    7.3586   53.3321 C   0  0  0  0  0  0  0  0  0  0  0  0
   23.5988    6.5021   53.0564 C   0  0  0  0  0  0  0  0  0  0  0  0
   24.8902    6.7936   53.4948 C   0  0  0  0  0  0  0  0  0  0  0  0
   27.4948    7.8734   54.0438 O   0  0  0  0  0  0  0  0  0  0  0  0
   26.4921    8.2737   54.6868 C   0  0  0  0  0  0  0  0  0  0  0  0
   26.6588    9.0233   55.8384 O   0  0  0  0  0  0  0  0  0  0  0  0
   26.8658    8.5287   56.7071 H   0  0  0  0  0  0  0  0  0  0  0  0
   21.3276    7.0537   52.9022 O   0  0  0  0  0  0  0  0  0  0  0  0
   20.4259    6.0801   52.9192 C   0  0  0  0  0  0  0  0  0  0  0  0
   20.7022    4.8283   53.7644 C   0  0  0  0  0  0  0  0  0  0  0  0
   18.9813    4.3726   53.3789 S   0  0  0  0  0  0  0  0  0  0  0  0
   19.1242    6.1817   53.6379 C   0  0  0  0  0  0  0  0  0  0  0  0
  7  8  2  0  0  0
  8  9  1  0  0  0
  8  1  1  0  0  0
  1  2  2  0  0  0
  2  3  1  0  0  0
  3  4  2  0  0  0
  4 11  1  0  0  0
 11 12  1  0  0  0
 12 13  1  0  0  0
 13 14  1  0  0  0
 14 15  1  0  0  0
  4  5  1  0  0  0
  5  6  2  0  0  0
  6  1  1  0  0  0
 15 12  1  0  0  0
  9 10  1  0  0  0
M  END
> <minimizedAffinity>
5.92121

> <CNNscore>
0.4535953403

> <CNNaffinity>
4.2450747490

> <CNN_VS>
1.9255461693

> <CNNaffinity_variance>
0.3392036855

$$$$
[H]OC(=O)c1c([H])c([H])c(OC2([H])C([H])([H])SC2([H])[H])c([H])c1[H]


 15 16  0  0  0  0  0  0  0  0999 V2000
   27.2575    9.2417   56.2324 C   0  0  0  0  0  0  0  0  0  0  0  0
   25.8769    9.3160   56.3512 C   0  0  0  0  0  0  0  0  0  0  0  0
   25.0760    8.8219   55.3277 C   0  0  0  0  0  0  0  0  0  0  0  0
   25.5993    8.2558   54.1885 C   0  0  0  0  0  0  0  0  0  0  0  0
   26.9818    8.1872   54.0814 C   0  0  0  0  0  0  0  0  0  0  0  0
   27.8043    8.6765   55.0958 C   0  0  0  0  0  0  0  0  0  0  0  0
   28.3127   10.9983   57.3990 O   0  0  0  0  0  0  0  0  0  0  0  0
   28.1002    9.7627   57.3117 C   0  0  0  0  0  0  0  0  0  0  0  0
   28.6606    8.8945   58.2325 O   0  0  0  0  0  0  0  0  0  0  0  0
   29.6325    8.6131   58.0969 H   0  0  0  0  0  0  0  0  0  0  0  0
   24.8462    7.7826   53.2086 O   0  0  0  0  0  0  0  0  0  0  0  0
   23.5802    7.5731   52.8703 C   0  0  0  0  0  0  0  0  0  0  0  0
   22.7413    6.5959   53.7065 C   0  0  0  0  0  0  0  0  0  0  0  0
   21.3313    7.2047   52.7273 S   0  0  0  0  0  0  0  0  0  0  0  0
   22.4965    8.5715   53.0941 C   0  0  0  0  0  0  0  0  0  0  0  0
  7  8  2  0  0  0
  8  9  1  0  0  0
  8  1  1  0  0  0
  1  2  2  0  0  0
  2  3  1  0  0  0
  3  4  2  0  0  0
  4 11  1  0  0  0
 11 12  1  0  0  0
 12 13  1  0  0  0
 13 14  1  0  0  0
 14 15  1  0  0  0
  4  5  1  0  0  0
  5  6  2  0  0  0
  6  1  1  0  0  0
 15 12  1  0  0  0
  9 10  1  0  0  0
M  END
> <minimizedAffinity>
-1.80722

> <CNNscore>
0.4408476651

> <CNNaffinity>
3.8901488781

> <CNN_VS>
1.7149630785

> <CNNaffinity_variance>
0.8890365362

$$$$
[H]OC(=O)c1c([H])c([H])c(OC2([H])C([H])([H])SC2([H])[H])c([H])c1[H]


 15 16  0  0  0  0  0  0  0  0999 V2000
   23.3616    8.2910   53.8304 C   0  0  0  0  0  0  0  0  0  0  0  0
   24.5645    7.7743   53.3706 C   0  0  0  0  0  0  0  0  0  0  0  0
   25.7329    8.0294   54.0798 C   0  0  0  0  0  0  0  0  0  0  0  0
   25.7481    8.7813   55.2315 C   0  0  0  0  0  0  0  0  0  0  0  0
   24.5384    9.2928   55.6815 C   0  0  0  0  0  0  0  0  0  0  0  0
   23.3543    9.0493   54.9860 C   0  0  0  0  0  0  0  0  0  0  0  0
   21.1015    8.7072   53.3027 O   0  0  0  0  0  0  0  0  0  0  0  0
   22.1312    8.0213   53.0821 C   0  0  0  0  0  0  0  0  0  0  0  0
   22.1046    7.0127   52.1346 O   0  0  0  0  0  0  0  0  0  0  0  0
   21.7103    6.1107   52.4050 H   0  0  0  0  0  0  0  0  0  0  0  0
   26.8543    9.0302   55.9141 O   0  0  0  0  0  0  0  0  0  0  0  0
   27.2914    9.6270   57.0158 C   0  0  0  0  0  0  0  0  0  0  0  0
   28.1525    8.8246   58.0020 C   0  0  0  0  0  0  0  0  0  0  0  0
   28.4153   10.4215   58.8377 S   0  0  0  0  0  0  0  0  0  0  0  0
   28.3781   10.6468   57.0188 C   0  0  0  0  0  0  0  0  0  0  0  0
  7  8  2  0  0  0
  8  9  1  0  0  0
  8  1  1  0  0  0
  1  2  2  0  0  0
  2  3  1  0  0  0
  3  4  2  0  0  0
  4 11  1  0  0  0
 11 12  1  0  0  0
 12 13  1  0  0  0
 13 14  1  0  0  0
 14 15  1  0  0  0
  4  5  1  0  0  0
  5  6  2  0  0  0
  6  1  1  0  0  0
 15 12  1  0  0  0
  9 10  1  0  0  0
M  END
> <minimizedAffinity>
1.36927

> <CNNscore>
0.4083687961

> <CNNaffinity>
3.9769897461

> <CNN_VS>
1.6240785122

> <CNNaffinity_variance>
0.3604789674

$$$$
[H]OC(=O)c1c([H])c([H])c(OC2([H])C([H])([H])SC2([H])[H])c([H])c1[H]


 15 16  0  0  0  0  0  0  0  0999 V2000
   24.3350    7.5391   54.2547 C   0  0  0  0  0  0  0  0  0  0  0  0
   25.5802    7.7640   54.8242 C   0  0  0  0  0  0  0  0  0  0  0  0
   26.6070    8.2780   54.0401 C   0  0  0  0  0  0  0  0  0  0  0  0
   26.4398    8.5766   52.7079 C   0  0  0  0  0  0  0  0  0  0  0  0
   25.1894    8.3472   52.1496 C   0  0  0  0  0  0  0  0  0  0  0  0
   24.1453    7.8324   52.9175 C   0  0  0  0  0  0  0  0  0  0  0  0
   23.3077    5.8071   55.4813 O   0  0  0  0  0  0  0  0  0  0  0  0
   23.2540    6.9975   55.0822 C   0  0  0  0  0  0  0  0  0  0  0  0
   22.1766    7.7968   55.4229 O   0  0  0  0  0  0  0  0  0  0  0  0
   21.3188    7.7038   54.8773 H   0  0  0  0  0  0  0  0  0  0  0  0
   27.4100    9.0660   51.9526 O   0  0  0  0  0  0  0  0  0  0  0  0
   27.6224    9.7335   50.8255 C   0  0  0  0  0  0  0  0  0  0  0  0
   28.7582   10.7658   50.7778 C   0  0  0  0  0  0  0  0  0  0  0  0
   28.4175   10.8342   48.9897 S   0  0  0  0  0  0  0  0  0  0  0  0
   28.2352    9.1201   49.6133 C   0  0  0  0  0  0  0  0  0  0  0  0
  7  8  2  0  0  0
  8  9  1  0  0  0
  8  1  1  0  0  0
  1  2  2  0  0  0
  2  3  1  0  0  0
  3  4  2  0  0  0
  4 11  1  0  0  0
 11 12  1  0  0  0
 12 13  1  0  0  0
 13 14  1  0  0  0
 14 15  1  0  0  0
  4  5  1  0  0  0
  5  6  2  0  0  0
  6  1  1  0  0  0
 15 12  1  0  0  0
  9 10  1  0  0  0
M  END
> <minimizedAffinity>
13.40757

> <CNNscore>
0.3968222439

> <CNNaffinity>
3.8273930550

> <CNN_VS>
1.5187946558

> <CNNaffinity_variance>
0.1570890844

$$$$
[H]C([H])=C([H])C(=O)N([H])C([H])([H])C([H])([H])C([H])([H])C([H])([H])[C@@]([H])(C(=O)N1C([H])([H])C([H])([H])N(c2c([H])c([H])c([H])c(C([H])([H])[H])c2[H])C([H])([H])C1([H])[H])N([H])C(=O)C([H])([H])c1c([H])c([H])c([H])c([H])c1[H]


 37 39  0  0  0  0  0  0  0  0999 V2000
   28.2525    8.8183   53.4217 C   0  0  0  0  0  0  0  0  0  0  0  0
   27.4603    7.7222   54.0013 C   0  0  0  0  0  0  0  0  0  0  0  0
   28.0611    6.9007   54.7805 O   0  0  0  0  0  0  0  0  0  0  0  0
   26.0873    7.5297   53.7510 N   0  0  0  0  0  0  0  0  0  0  0  0
   25.3282    8.4123   52.9142 C   0  0  0  0  0  0  0  0  0  0  0  0
   23.9146    8.5168   53.4769 C   0  0  0  0  0  0  0  0  0  0  0  0
   23.3373    7.1872   53.4213 N   0  0  0  0  0  0  0  0  0  0  0  0
   24.2084    6.0508   53.4269 C   0  0  0  0  0  0  0  0  0  0  0  0
   25.3732    6.4067   54.3506 C   0  0  0  0  0  0  0  0  0  0  0  0
   21.9299    7.0154   53.3714 C   0  0  0  0  0  0  0  0  0  0  0  0
   21.1393    8.1485   53.2015 C   0  0  0  0  0  0  0  0  0  0  0  0
   19.7760    8.0091   53.1445 C   0  0  0  0  0  0  0  0  0  0  0  0
   19.1685    6.7870   53.2499 C   0  0  0  0  0  0  0  0  0  0  0  0
   19.9258    5.6525   53.4181 C   0  0  0  0  0  0  0  0  0  0  0  0
   19.3089    4.3215   53.5373 C   0  0  0  0  0  0  0  0  0  0  0  0
   21.3015    5.7978   53.4748 C   0  0  0  0  0  0  0  0  0  0  0  0
   27.7118    9.1716   52.0861 N   0  0  0  0  0  0  0  0  0  0  0  0
   28.3940   10.0769   51.2535 C   0  0  0  0  0  0  0  0  0  0  0  0
   29.4699   10.5850   51.6550 O   0  0  0  0  0  0  0  0  0  0  0  0
   26.8366    8.7340   51.8049 H   0  0  0  0  0  0  0  0  0  0  0  0
   27.8408   10.4104   49.9368 C   0  0  0  0  0  0  0  0  0  0  0  0
   28.3122    9.5391   48.8591 C   0  0  0  0  0  0  0  0  0  0  0  0
   28.1296    9.9747   47.5556 C   0  0  0  0  0  0  0  0  0  0  0  0
   28.5408    9.2176   46.4752 C   0  0  0  0  0  0  0  0  0  0  0  0
   29.1477    8.0019   46.6559 C   0  0  0  0  0  0  0  0  0  0  0  0
   29.3371    7.5544   47.9416 C   0  0  0  0  0  0  0  0  0  0  0  0
   28.9218    8.3191   49.0277 C   0  0  0  0  0  0  0  0  0  0  0  0
   28.1128   10.1175   54.2050 C   0  0  0  0  0  0  0  0  0  0  0  0
   28.7807   10.0974   55.5395 C   0  0  0  0  0  0  0  0  0  0  0  0
   27.8128   10.1830   56.7099 C   0  0  0  0  0  0  0  0  0  0  0  0
   28.5051    9.9859   58.0137 C   0  0  0  0  0  0  0  0  0  0  0  0
   29.2584   11.2889   59.9916 C   0  0  0  0  0  0  0  0  0  0  0  0
   29.9069   10.2739   60.4382 O   0  0  0  0  0  0  0  0  0  0  0  0
   28.5412   11.2104   58.7817 N   0  0  0  0  0  0  0  0  0  0  0  0
   28.0107   12.0479   58.4061 H   0  0  0  0  0  0  0  0  0  0  0  0
   28.8652   13.6534   60.3144 C   0  0  0  0  0  0  0  0  0  0  0  0
   29.2930   12.4969   60.7681 C   0  0  0  0  0  0  0  0  0  0  0  0
 36 37  2  0  0  0
 37 32  1  0  0  0
 32 33  2  0  0  0
 32 34  1  0  0  0
 34 31  1  0  0  0
 31 30  1  0  0  0
 30 29  1  0  0  0
 29 28  1  0  0  0
 28  1  1  0  0  0
  1 17  1  0  0  0
 17 18  1  0  0  0
 18 19  2  0  0  0
 18 21  1  0  0  0
 21 22  1  0  0  0
 22 23  2  0  0  0
 23 24  1  0  0  0
 24 25  2  0  0  0
 25 26  1  0  0  0
 26 27  2  0  0  0
  1  2  1  0  0  0
  2  3  2  0  0  0
  2  4  1  0  0  0
  4  5  1  0  0  0
  5  6  1  0  0  0
  6  7  1  0  0  0
  7 10  1  0  0  0
 10 11  2  0  0  0
 11 12  1  0  0  0
 12 13  2  0  0  0
 13 14  1  0  0  0
 14 15  1  0  0  0
 14 16  2  0  0  0
  7  8  1  0  0  0
  8  9  1  0  0  0
 27 22  1  0  0  0
  9  4  1  0  0  0
 16 10  1  0  0  0
 34 35  1  0  0  0
 17 20  1  0  0  0
M  END
> <minimizedAffinity>
25.38859

> <CNNscore>
0.5513138771

> <CNNaffinity>
6.1671838760

> <CNN_VS>
3.4000539780

> <CNNaffinity_variance>
0.6439197659

$$$$
[H]C([H])=C([H])C(=O)N([H])C([H])([H])C([H])([H])C([H])([H])C([H])([H])[C@@]([H])(C(=O)N1C([H])([H])C([H])([H])N(c2c([H])c([H])c([H])c(C([H])([H])[H])c2[H])C([H])([H])C1([H])[H])N([H])C(=O)C([H])([H])c1c([H])c([H])c([H])c([H])c1[H]


 37 39  0  0  0  0  0  0  0  0999 V2000
   19.9550    7.5158   53.6144 C   0  0  0  0  0  0  0  0  0  0  0  0
   20.6476    8.0055   54.8167 C   0  0  0  0  0  0  0  0  0  0  0  0
   19.9430    8.2112   55.8675 O   0  0  0  0  0  0  0  0  0  0  0  0
   22.0327    8.2559   54.8764 N   0  0  0  0  0  0  0  0  0  0  0  0
   22.9027    8.0303   53.7593 C   0  0  0  0  0  0  0  0  0  0  0  0
   24.2517    7.5509   54.2850 C   0  0  0  0  0  0  0  0  0  0  0  0
   24.7903    8.6192   55.1054 N   0  0  0  0  0  0  0  0  0  0  0  0
   23.8888    9.5539   55.7085 C   0  0  0  0  0  0  0  0  0  0  0  0
   22.6447    8.7580   56.1027 C   0  0  0  0  0  0  0  0  0  0  0  0
   26.1891    8.7305   55.3142 C   0  0  0  0  0  0  0  0  0  0  0  0
   26.6283    9.4050   56.4499 C   0  0  0  0  0  0  0  0  0  0  0  0
   27.9757    9.5220   56.6779 C   0  0  0  0  0  0  0  0  0  0  0  0
   28.9032    8.9943   55.8206 C   0  0  0  0  0  0  0  0  0  0  0  0
   28.4964    8.3236   54.6920 C   0  0  0  0  0  0  0  0  0  0  0  0
   29.4636    7.7444   53.7458 C   0  0  0  0  0  0  0  0  0  0  0  0
   27.1353    8.2077   54.4660 C   0  0  0  0  0  0  0  0  0  0  0  0
   20.0163    8.5470   52.5495 N   0  0  0  0  0  0  0  0  0  0  0  0
   20.9901    8.4745   51.5372 C   0  0  0  0  0  0  0  0  0  0  0  0
   21.8103    7.5238   51.5451 O   0  0  0  0  0  0  0  0  0  0  0  0
   19.3301    9.2982   52.5855 H   0  0  0  0  0  0  0  0  0  0  0  0
   21.0308    9.5048   50.4943 C   0  0  0  0  0  0  0  0  0  0  0  0
   21.2318   10.8603   51.0092 C   0  0  0  0  0  0  0  0  0  0  0  0
   21.6127   10.9927   52.3358 C   0  0  0  0  0  0  0  0  0  0  0  0
   21.8229   12.2329   52.9080 C   0  0  0  0  0  0  0  0  0  0  0  0
   21.6613   13.3825   52.1792 C   0  0  0  0  0  0  0  0  0  0  0  0
   21.2841   13.2699   50.8623 C   0  0  0  0  0  0  0  0  0  0  0  0
   21.0731   12.0196   50.2888 C   0  0  0  0  0  0  0  0  0  0  0  0
   20.6589    6.3228   52.9801 C   0  0  0  0  0  0  0  0  0  0  0  0
   20.5553    5.0634   53.7743 C   0  0  0  0  0  0  0  0  0  0  0  0
   20.2220    3.8376   52.9375 C   0  0  0  0  0  0  0  0  0  0  0  0
   19.1332    3.0290   53.5529 C   0  0  0  0  0  0  0  0  0  0  0  0
   16.6823    3.4048   53.7253 C   0  0  0  0  0  0  0  0  0  0  0  0
   16.4493    2.2417   53.2323 O   0  0  0  0  0  0  0  0  0  0  0  0
   18.0034    3.8554   53.9154 N   0  0  0  0  0  0  0  0  0  0  0  0
   18.2000    4.8117   54.3286 H   0  0  0  0  0  0  0  0  0  0  0  0
   14.5703    4.4779   53.2376 C   0  0  0  0  0  0  0  0  0  0  0  0
   15.5523    4.2210   54.0720 C   0  0  0  0  0  0  0  0  0  0  0  0
 36 37  2  0  0  0
 37 32  1  0  0  0
 32 33  2  0  0  0
 32 34  1  0  0  0
 34 31  1  0  0  0
 31 30  1  0  0  0
 30 29  1  0  0  0
 29 28  1  0  0  0
 28  1  1  0  0  0
  1 17  1  0  0  0
 17 18  1  0  0  0
 18 19  2  0  0  0
 18 21  1  0  0  0
 21 22  1  0  0  0
 22 23  2  0  0  0
 23 24  1  0  0  0
 24 25  2  0  0  0
 25 26  1  0  0  0
 26 27  2  0  0  0
  1  2  1  0  0  0
  2  3  2  0  0  0
  2  4  1  0  0  0
  4  5  1  0  0  0
  5  6  1  0  0  0
  6  7  1  0  0  0
  7 10  1  0  0  0
 10 11  2  0  0  0
 11 12  1  0  0  0
 12 13  2  0  0  0
 13 14  1  0  0  0
 14 15  1  0  0  0
 14 16  2  0  0  0
  7  8  1  0  0  0
  8  9  1  0  0  0
 27 22  1  0  0  0
  9  4  1  0  0  0
 16 10  1  0  0  0
 34 35  1  0  0  0
 17 20  1  0  0  0
M  END
> <minimizedAffinity>
27.01269

> <CNNscore>
0.5473695993

> <CNNaffinity>
6.5321440697

> <CNN_VS>
3.5754971504

> <CNNaffinity_variance>
0.4210507274

$$$$
[H]C([H])=C([H])C(=O)N([H])C([H])([H])C([H])([H])C([H])([H])C([H])([H])[C@@]([H])(C(=O)N1C([H])([H])C([H])([H])N(c2c([H])c([H])c([H])c(C([H])([H])[H])c2[H])C([H])([H])C1([H])[H])N([H])C(=O)C([H])([H])c1c([H])c([H])c([H])c([H])c1[H]


 37 39  0  0  0  0  0  0  0  0999 V2000
   20.0895    7.3837   53.1368 C   0  0  0  0  0  0  0  0  0  0  0  0
   21.3764    7.4387   52.4256 C   0  0  0  0  0  0  0  0  0  0  0  0
   21.3550    7.3417   51.1476 O   0  0  0  0  0  0  0  0  0  0  0  0
   22.6209    7.5939   53.0672 N   0  0  0  0  0  0  0  0  0  0  0  0
   22.7394    7.7358   54.4890 C   0  0  0  0  0  0  0  0  0  0  0  0
   23.8982    8.6817   54.7865 C   0  0  0  0  0  0  0  0  0  0  0  0
   25.0990    8.0575   54.2642 N   0  0  0  0  0  0  0  0  0  0  0  0
   24.9821    7.1131   53.1944 C   0  0  0  0  0  0  0  0  0  0  0  0
   23.8577    7.6223   52.2926 C   0  0  0  0  0  0  0  0  0  0  0  0
   26.3713    8.3852   54.7997 C   0  0  0  0  0  0  0  0  0  0  0  0
   27.4887    8.1939   53.9919 C   0  0  0  0  0  0  0  0  0  0  0  0
   28.7300    8.5079   54.4839 C   0  0  0  0  0  0  0  0  0  0  0  0
   28.9031    9.0047   55.7477 C   0  0  0  0  0  0  0  0  0  0  0  0
   27.8165    9.2030   56.5656 C   0  0  0  0  0  0  0  0  0  0  0  0
   27.9629    9.7332   57.9308 C   0  0  0  0  0  0  0  0  0  0  0  0
   26.5655    8.8849   56.0648 C   0  0  0  0  0  0  0  0  0  0  0  0
   19.5338    6.0105   53.0558 N   0  0  0  0  0  0  0  0  0  0  0  0
   20.3072    4.9007   53.4412 C   0  0  0  0  0  0  0  0  0  0  0  0
   21.4778    5.0860   53.8561 O   0  0  0  0  0  0  0  0  0  0  0  0
   18.5802    5.9110   52.7132 H   0  0  0  0  0  0  0  0  0  0  0  0
   19.7364    3.5527   53.3534 C   0  0  0  0  0  0  0  0  0  0  0  0
   18.2832    3.5131   53.5253 C   0  0  0  0  0  0  0  0  0  0  0  0
   17.5666    2.6337   52.7281 C   0  0  0  0  0  0  0  0  0  0  0  0
   16.1916    2.5302   52.8197 C   0  0  0  0  0  0  0  0  0  0  0  0
   15.4839    3.2981   53.7076 C   0  0  0  0  0  0  0  0  0  0  0  0
   16.1783    4.1753   54.5060 C   0  0  0  0  0  0  0  0  0  0  0  0
   17.5630    4.2774   54.4115 C   0  0  0  0  0  0  0  0  0  0  0  0
   20.2410    7.6065   54.6363 C   0  0  0  0  0  0  0  0  0  0  0  0
   20.4256    9.0362   55.0227 C   0  0  0  0  0  0  0  0  0  0  0  0
   21.1046    9.8769   53.9522 C   0  0  0  0  0  0  0  0  0  0  0  0
   21.5178   11.2084   54.4761 C   0  0  0  0  0  0  0  0  0  0  0  0
   21.6099   11.7864   52.0606 C   0  0  0  0  0  0  0  0  0  0  0  0
   21.4805   10.5494   51.7393 O   0  0  0  0  0  0  0  0  0  0  0  0
   21.6307   12.1814   53.4126 N   0  0  0  0  0  0  0  0  0  0  0  0
   21.7301   13.2020   53.6818 H   0  0  0  0  0  0  0  0  0  0  0  0
   21.1167   13.9042   51.0015 C   0  0  0  0  0  0  0  0  0  0  0  0
   21.7316   12.7429   50.9959 C   0  0  0  0  0  0  0  0  0  0  0  0
 36 37  2  0  0  0
 37 32  1  0  0  0
 32 33  2  0  0  0
 32 34  1  0  0  0
 34 31  1  0  0  0
 31 30  1  0  0  0
 30 29  1  0  0  0
 29 28  1  0  0  0
 28  1  1  0  0  0
  1 17  1  0  0  0
 17 18  1  0  0  0
 18 19  2  0  0  0
 18 21  1  0  0  0
 21 22  1  0  0  0
 22 23  2  0  0  0
 23 24  1  0  0  0
 24 25  2  0  0  0
 25 26  1  0  0  0
 26 27  2  0  0  0
  1  2  1  0  0  0
  2  3  2  0  0  0
  2  4  1  0  0  0
  4  5  1  0  0  0
  5  6  1  0  0  0
  6  7  1  0  0  0
  7 10  1  0  0  0
 10 11  2  0  0  0
 11 12  1  0  0  0
 12 13  2  0  0  0
 13 14  1  0  0  0
 14 15  1  0  0  0
 14 16  2  0  0  0
  7  8  1  0  0  0
  8  9  1  0  0  0
 27 22  1  0  0  0
  9  4  1  0  0  0
 16 10  1  0  0  0
 34 35  1  0  0  0
 17 20  1  0  0  0
M  END
> <minimizedAffinity>
17.33966

> <CNNscore>
0.5275193453

> <CNNaffinity>
6.7746977806

> <CNN_VS>
3.5737841129

> <CNNaffinity_variance>
0.6982637644

$$$$
[H]C([H])=C([H])C(=O)N([H])C([H])([H])C([H])([H])C([H])([H])C([H])([H])[C@@]([H])(C(=O)N1C([H])([H])C([H])([H])N(c2c([H])c([H])c([H])c(C([H])([H])[H])c2[H])C([H])([H])C1([H])[H])N([H])C(=O)C([H])([H])c1c([H])c([H])c([H])c([H])c1[H]


 37 39  0  0  0  0  0  0  0  0999 V2000
   20.1371    6.1928   53.8300 C   0  0  0  0  0  0  0  0  0  0  0  0
   21.4848    5.6099   53.7362 C   0  0  0  0  0  0  0  0  0  0  0  0
   21.5879    4.4202   53.2705 O   0  0  0  0  0  0  0  0  0  0  0  0
   22.6594    6.2840   54.1245 N   0  0  0  0  0  0  0  0  0  0  0  0
   22.6431    7.6249   54.6317 C   0  0  0  0  0  0  0  0  0  0  0  0
   23.9062    8.3370   54.1588 C   0  0  0  0  0  0  0  0  0  0  0  0
   25.0333    7.6220   54.7270 N   0  0  0  0  0  0  0  0  0  0  0  0
   24.8757    6.2428   55.0778 C   0  0  0  0  0  0  0  0  0  0  0  0
   23.9605    5.6313   54.0169 C   0  0  0  0  0  0  0  0  0  0  0  0
   26.2760    8.2775   54.9235 C   0  0  0  0  0  0  0  0  0  0  0  0
   27.1540    8.3497   53.8456 C   0  0  0  0  0  0  0  0  0  0  0  0
   28.3598    8.9828   54.0078 C   0  0  0  0  0  0  0  0  0  0  0  0
   28.7264    9.5470   55.1999 C   0  0  0  0  0  0  0  0  0  0  0  0
   27.8782    9.4898   56.2798 C   0  0  0  0  0  0  0  0  0  0  0  0
   28.2380   10.0828   57.5779 C   0  0  0  0  0  0  0  0  0  0  0  0
   26.6619    8.8500   56.1115 C   0  0  0  0  0  0  0  0  0  0  0  0
   20.0853    7.4556   53.0529 N   0  0  0  0  0  0  0  0  0  0  0  0
   20.8618    7.6141   51.8909 C   0  0  0  0  0  0  0  0  0  0  0  0
   21.6022    6.6713   51.5173 O   0  0  0  0  0  0  0  0  0  0  0  0
   19.4702    8.1909   53.3955 H   0  0  0  0  0  0  0  0  0  0  0  0
   20.7936    8.8710   51.1384 C   0  0  0  0  0  0  0  0  0  0  0  0
   21.1547   10.0518   51.9248 C   0  0  0  0  0  0  0  0  0  0  0  0
   21.3582   11.2405   51.2407 C   0  0  0  0  0  0  0  0  0  0  0  0
   21.7039   12.4048   51.9000 C   0  0  0  0  0  0  0  0  0  0  0  0
   21.8585   12.4250   53.2618 C   0  0  0  0  0  0  0  0  0  0  0  0
   21.6604   11.2554   53.9561 C   0  0  0  0  0  0  0  0  0  0  0  0
   21.3123   10.0845   53.2894 C   0  0  0  0  0  0  0  0  0  0  0  0
   19.0790    5.3291   53.1552 C   0  0  0  0  0  0  0  0  0  0  0  0
   18.8637    4.0068   53.8131 C   0  0  0  0  0  0  0  0  0  0  0  0
   19.1145    2.8189   52.8968 C   0  0  0  0  0  0  0  0  0  0  0  0
   17.9921    1.8410   52.9415 C   0  0  0  0  0  0  0  0  0  0  0  0
   15.9916    3.1735   53.5742 C   0  0  0  0  0  0  0  0  0  0  0  0
   16.4222    3.2845   54.7794 O   0  0  0  0  0  0  0  0  0  0  0  0
   16.7331    2.4680   52.6062 N   0  0  0  0  0  0  0  0  0  0  0  0
   16.3848    2.3801   51.6088 H   0  0  0  0  0  0  0  0  0  0  0  0
   14.5715    5.0939   53.1932 C   0  0  0  0  0  0  0  0  0  0  0  0
   14.7348    3.7915   53.2552 C   0  0  0  0  0  0  0  0  0  0  0  0
 36 37  2  0  0  0
 37 32  1  0  0  0
 32 33  2  0  0  0
 32 34  1  0  0  0
 34 31  1  0  0  0
 31 30  1  0  0  0
 30 29  1  0  0  0
 29 28  1  0  0  0
 28  1  1  0  0  0
  1 17  1  0  0  0
 17 18  1  0  0  0
 18 19  2  0  0  0
 18 21  1  0  0  0
 21 22  1  0  0  0
 22 23  2  0  0  0
 23 24  1  0  0  0
 24 25  2  0  0  0
 25 26  1  0  0  0
 26 27  2  0  0  0
  1  2  1  0  0  0
  2  3  2  0  0  0
  2  4  1  0  0  0
  4  5  1  0  0  0
  5  6  1  0  0  0
  6  7  1  0  0  0
  7 10  1  0  0  0
 10 11  2  0  0  0
 11 12  1  0  0  0
 12 13  2  0  0  0
 13 14  1  0  0  0
 14 15  1  0  0  0
 14 16  2  0  0  0
  7  8  1  0  0  0
  8  9  1  0  0  0
 27 22  1  0  0  0
  9  4  1  0  0  0
 16 10  1  0  0  0
 34 35  1  0  0  0
 17 20  1  0  0  0
M  END
> <minimizedAffinity>
24.07948

> <CNNscore>
0.5269681215

> <CNNaffinity>
6.5488243103

> <CNN_VS>
3.4510216713

> <CNNaffinity_variance>
0.3233180940

$$$$
[H]C([H])=C([H])C(=O)N([H])C([H])([H])C([H])([H])C([H])([H])C([H])([H])[C@@]([H])(C(=O)N1C([H])([H])C([H])([H])N(c2c([H])c([H])c([H])c(C([H])([H])[H])c2[H])C([H])([H])C1([H])[H])N([H])C(=O)C([H])([H])c1c([H])c([H])c([H])c([H])c1[H]


 37 39  0  0  0  0  0  0  0  0999 V2000
   24.3458    7.7024   53.9800 C   0  0  0  0  0  0  0  0  0  0  0  0
   25.7091    8.2558   53.9863 C   0  0  0  0  0  0  0  0  0  0  0  0
   26.3099    8.3719   52.8600 O   0  0  0  0  0  0  0  0  0  0  0  0
   26.3838    8.6649   55.1534 N   0  0  0  0  0  0  0  0  0  0  0  0
   25.7815    8.5960   56.4527 C   0  0  0  0  0  0  0  0  0  0  0  0
   26.2736    9.7802   57.2782 C   0  0  0  0  0  0  0  0  0  0  0  0
   27.7115    9.6383   57.4069 N   0  0  0  0  0  0  0  0  0  0  0  0
   28.4278    8.8945   56.4151 C   0  0  0  0  0  0  0  0  0  0  0  0
   27.7441    9.1891   55.0800 C   0  0  0  0  0  0  0  0  0  0  0  0
   28.3988   10.2354   58.4950 C   0  0  0  0  0  0  0  0  0  0  0  0
   29.2025    9.4197   59.2865 C   0  0  0  0  0  0  0  0  0  0  0  0
   29.8820    9.9733   60.3415 C   0  0  0  0  0  0  0  0  0  0  0  0
   29.7934   11.3063   60.6399 C   0  0  0  0  0  0  0  0  0  0  0  0
   29.0069   12.1336   59.8745 C   0  0  0  0  0  0  0  0  0  0  0  0
   28.8848   13.5713   60.1653 C   0  0  0  0  0  0  0  0  0  0  0  0
   28.3231   11.5706   58.8104 C   0  0  0  0  0  0  0  0  0  0  0  0
   23.5707    8.3001   52.8650 N   0  0  0  0  0  0  0  0  0  0  0  0
   22.2299    8.6832   53.0491 C   0  0  0  0  0  0  0  0  0  0  0  0
   21.6942    8.5128   54.1720 O   0  0  0  0  0  0  0  0  0  0  0  0
   24.0482    8.4182   51.9737 H   0  0  0  0  0  0  0  0  0  0  0  0
   21.4838    9.2729   51.9327 C   0  0  0  0  0  0  0  0  0  0  0  0
   21.4662   10.7367   51.9406 C   0  0  0  0  0  0  0  0  0  0  0  0
   21.2717   11.3824   50.7291 C   0  0  0  0  0  0  0  0  0  0  0  0
   21.2427   12.7612   50.6404 C   0  0  0  0  0  0  0  0  0  0  0  0
   21.4060   13.5433   51.7542 C   0  0  0  0  0  0  0  0  0  0  0  0
   21.5998   12.9198   52.9638 C   0  0  0  0  0  0  0  0  0  0  0  0
   21.6286   11.5311   53.0499 C   0  0  0  0  0  0  0  0  0  0  0  0
   24.3214    6.2136   53.6576 C   0  0  0  0  0  0  0  0  0  0  0  0
   23.3396    5.4327   54.4663 C   0  0  0  0  0  0  0  0  0  0  0  0
   21.9199    5.9742   54.3955 C   0  0  0  0  0  0  0  0  0  0  0  0
   21.1785    5.4268   53.2255 C   0  0  0  0  0  0  0  0  0  0  0  0
   19.2861    3.8242   53.3928 C   0  0  0  0  0  0  0  0  0  0  0  0
   20.0222    2.8765   52.9343 O   0  0  0  0  0  0  0  0  0  0  0  0
   19.8070    5.1215   53.5665 N   0  0  0  0  0  0  0  0  0  0  0  0
   19.2049    5.9047   53.9513 H   0  0  0  0  0  0  0  0  0  0  0  0
   17.1746    4.2755   54.4827 C   0  0  0  0  0  0  0  0  0  0  0  0
   17.9224    3.5118   53.7184 C   0  0  0  0  0  0  0  0  0  0  0  0
 36 37  2  0  0  0
 37 32  1  0  0  0
 32 33  2  0  0  0
 32 34  1  0  0  0
 34 31  1  0  0  0
 31 30  1  0  0  0
 30 29  1  0  0  0
 29 28  1  0  0  0
 28  1  1  0  0  0
  1 17  1  0  0  0
 17 18  1  0  0  0
 18 19  2  0  0  0
 18 21  1  0  0  0
 21 22  1  0  0  0
 22 23  2  0  0  0
 23 24  1  0  0  0
 24 25  2  0  0  0
 25 26  1  0  0  0
 26 27  2  0  0  0
  1  2  1  0  0  0
  2  3  2  0  0  0
  2  4  1  0  0  0
  4  5  1  0  0  0
  5  6  1  0  0  0
  6  7  1  0  0  0
  7 10  1  0  0  0
 10 11  2  0  0  0
 11 12  1  0  0  0
 12 13  2  0  0  0
 13 14  1  0  0  0
 14 15  1  0  0  0
 14 16  2  0  0  0
  7  8  1  0  0  0
  8  9  1  0  0  0
 27 22  1  0  0  0
  9  4  1  0  0  0
 16 10  1  0  0  0
 34 35  1  0  0  0
 17 20  1  0  0  0
M  END
> <minimizedAffinity>
15.81934

> <CNNscore>
0.5263192654

> <CNNaffinity>
6.1804246902

> <CNN_VS>
3.2528765202

> <CNNaffinity_variance>
0.5999774933

$$$$
[H]C([H])=C([H])C(=O)N([H])C([H])([H])C([H])([H])C([H])([H])C([H])([H])[C@@]([H])(C(=O)N1C([H])([H])C([H])([H])N(c2c([H])c([H])c([H])c(C([H])([H])[H])c2[H])C([H])([H])C1([H])[H])N([H])C(=O)C([H])([H])c1c([H])c([H])c([H])c([H])c1[H]


 37 39  0  0  0  0  0  0  0  0999 V2000
   24.5538    7.9283   53.5592 C   0  0  0  0  0  0  0  0  0  0  0  0
   24.1034    6.7103   54.2510 C   0  0  0  0  0  0  0  0  0  0  0  0
   24.8513    6.2426   55.1810 O   0  0  0  0  0  0  0  0  0  0  0  0
   22.9028    6.0368   53.9514 N   0  0  0  0  0  0  0  0  0  0  0  0
   21.9924    6.5009   52.9457 C   0  0  0  0  0  0  0  0  0  0  0  0
   20.5698    6.1918   53.4003 C   0  0  0  0  0  0  0  0  0  0  0  0
   20.4656    4.7495   53.5141 N   0  0  0  0  0  0  0  0  0  0  0  0
   21.6528    3.9832   53.7452 C   0  0  0  0  0  0  0  0  0  0  0  0
   22.5325    4.8225   54.6717 C   0  0  0  0  0  0  0  0  0  0  0  0
   19.2044    4.1086   53.4069 C   0  0  0  0  0  0  0  0  0  0  0  0
   19.0968    3.0181   52.5484 C   0  0  0  0  0  0  0  0  0  0  0  0
   17.8898    2.3775   52.4306 C   0  0  0  0  0  0  0  0  0  0  0  0
   16.7857    2.7790   53.1333 C   0  0  0  0  0  0  0  0  0  0  0  0
   16.8648    3.8528   53.9875 C   0  0  0  0  0  0  0  0  0  0  0  0
   15.6993    4.3152   54.7582 C   0  0  0  0  0  0  0  0  0  0  0  0
   18.0853    4.4962   54.1035 C   0  0  0  0  0  0  0  0  0  0  0  0
   23.4463    8.9146   53.5154 N   0  0  0  0  0  0  0  0  0  0  0  0
   22.7746    9.2904   54.6926 C   0  0  0  0  0  0  0  0  0  0  0  0
   23.1239    8.7796   55.7852 O   0  0  0  0  0  0  0  0  0  0  0  0
   23.1994    9.3009   52.6064 H   0  0  0  0  0  0  0  0  0  0  0  0
   21.6835   10.2680   54.6250 C   0  0  0  0  0  0  0  0  0  0  0  0
   21.5373   10.9017   53.3136 C   0  0  0  0  0  0  0  0  0  0  0  0
   21.2011   10.0885   52.2420 C   0  0  0  0  0  0  0  0  0  0  0  0
   21.0442   10.5989   50.9675 C   0  0  0  0  0  0  0  0  0  0  0  0
   21.2163   11.9355   50.7167 C   0  0  0  0  0  0  0  0  0  0  0  0
   21.5496   12.7565   51.7675 C   0  0  0  0  0  0  0  0  0  0  0  0
   21.7070   12.2395   53.0499 C   0  0  0  0  0  0  0  0  0  0  0  0
   25.6431    8.6668   54.3265 C   0  0  0  0  0  0  0  0  0  0  0  0
   27.0296    8.2412   53.9744 C   0  0  0  0  0  0  0  0  0  0  0  0
   27.7421    9.1971   53.0297 C   0  0  0  0  0  0  0  0  0  0  0  0
   27.5912    8.7818   51.6074 C   0  0  0  0  0  0  0  0  0  0  0  0
   28.3366    9.7218   49.4307 C   0  0  0  0  0  0  0  0  0  0  0  0
   28.6942    8.5559   49.0270 O   0  0  0  0  0  0  0  0  0  0  0  0
   27.7735    9.9003   50.7096 N   0  0  0  0  0  0  0  0  0  0  0  0
   27.4705   10.8597   51.0437 H   0  0  0  0  0  0  0  0  0  0  0  0
   28.2307   12.0669   48.8483 C   0  0  0  0  0  0  0  0  0  0  0  0
   28.5319   10.8271   48.5342 C   0  0  0  0  0  0  0  0  0  0  0  0
 36 37  2  0  0  0
 37 32  1  0  0  0
 32 33  2  0  0  0
 32 34  1  0  0  0
 34 31  1  0  0  0
 31 30  1  0  0  0
 30 29  1  0  0  0
 29 28  1  0  0  0
 28  1  1  0  0  0
  1 17  1  0  0  0
 17 18  1  0  0  0
 18 19  2  0  0  0
 18 21  1  0  0  0
 21 22  1  0  0  0
 22 23  2  0  0  0
 23 24  1  0  0  0
 24 25  2  0  0  0
 25 26  1  0  0  0
 26 27  2  0  0  0
  1  2  1  0  0  0
  2  3  2  0  0  0
  2  4  1  0  0  0
  4  5  1  0  0  0
  5  6  1  0  0  0
  6  7  1  0  0  0
  7 10  1  0  0  0
 10 11  2  0  0  0
 11 12  1  0  0  0
 12 13  2  0  0  0
 13 14  1  0  0  0
 14 15  1  0  0  0
 14 16  2  0  0  0
  7  8  1  0  0  0
  8  9  1  0  0  0
 27 22  1  0  0  0
  9  4  1  0  0  0
 16 10  1  0  0  0
 34 35  1  0  0  0
 17 20  1  0  0  0
M  END
> <minimizedAffinity>
27.84987

> <CNNscore>
0.5255436301

> <CNNaffinity>
6.7868270874

> <CNN_VS>
3.5667736530

> <CNNaffinity_variance>
0.6417238116

$$$$
[H]C([H])=C([H])C(=O)N([H])C([H])([H])C([H])([H])C([H])([H])C([H])([H])[C@@]([H])(C(=O)N1C([H])([H])C([H])([H])N(c2c([H])c([H])c([H])c(C([H])([H])[H])c2[H])C([H])([H])C1([H])[H])N([H])C(=O)C([H])([H])c1c([H])c([H])c([H])c([H])c1[H]


 37 39  0  0  0  0  0  0  0  0999 V2000
   20.4447    7.2333   53.9294 C   0  0  0  0  0  0  0  0  0  0  0  0
   21.7298    6.6056   53.5840 C   0  0  0  0  0  0  0  0  0  0  0  0
   21.7046    5.5841   52.8101 O   0  0  0  0  0  0  0  0  0  0  0  0
   22.9772    7.0642   54.0514 N   0  0  0  0  0  0  0  0  0  0  0  0
   23.1042    8.2134   54.8994 C   0  0  0  0  0  0  0  0  0  0  0  0
   24.3983    8.9375   54.5433 C   0  0  0  0  0  0  0  0  0  0  0  0
   25.4867    8.0176   54.8145 N   0  0  0  0  0  0  0  0  0  0  0  0
   25.2278    6.6095   54.7933 C   0  0  0  0  0  0  0  0  0  0  0  0
   24.2092    6.3766   53.6775 C   0  0  0  0  0  0  0  0  0  0  0  0
   26.7903    8.5061   55.0878 C   0  0  0  0  0  0  0  0  0  0  0  0
   27.7839    8.2820   54.1388 C   0  0  0  0  0  0  0  0  0  0  0  0
   29.0515    8.7488   54.3763 C   0  0  0  0  0  0  0  0  0  0  0  0
   29.3695    9.4295   55.5206 C   0  0  0  0  0  0  0  0  0  0  0  0
   28.4073    9.6641   56.4735 C   0  0  0  0  0  0  0  0  0  0  0  0
   28.7114   10.3904   57.7170 C   0  0  0  0  0  0  0  0  0  0  0  0
   27.1290    9.1915   56.2294 C   0  0  0  0  0  0  0  0  0  0  0  0
   20.5595    8.7069   53.8006 N   0  0  0  0  0  0  0  0  0  0  0  0
   20.9655    9.4922   54.8946 C   0  0  0  0  0  0  0  0  0  0  0  0
   21.2304    8.9300   55.9857 O   0  0  0  0  0  0  0  0  0  0  0  0
   20.3341    9.1166   52.8963 H   0  0  0  0  0  0  0  0  0  0  0  0
   21.0728   10.9470   54.7435 C   0  0  0  0  0  0  0  0  0  0  0  0
   21.2633   11.3857   53.3599 C   0  0  0  0  0  0  0  0  0  0  0  0
   21.3075   12.7506   53.1200 C   0  0  0  0  0  0  0  0  0  0  0  0
   21.4816   13.2560   51.8456 C   0  0  0  0  0  0  0  0  0  0  0  0
   21.6177   12.4202   50.7678 C   0  0  0  0  0  0  0  0  0  0  0  0
   21.5765   11.0640   50.9873 C   0  0  0  0  0  0  0  0  0  0  0  0
   21.4010   10.5580   52.2718 C   0  0  0  0  0  0  0  0  0  0  0  0
   19.3401    6.8857   52.9394 C   0  0  0  0  0  0  0  0  0  0  0  0
   18.9173    5.4549   52.9784 C   0  0  0  0  0  0  0  0  0  0  0  0
   17.8196    5.1683   53.9917 C   0  0  0  0  0  0  0  0  0  0  0  0
   17.8012    3.7346   54.3944 C   0  0  0  0  0  0  0  0  0  0  0  0
   19.3688    2.5135   52.9014 C   0  0  0  0  0  0  0  0  0  0  0  0
   18.5080    2.5339   51.9481 O   0  0  0  0  0  0  0  0  0  0  0  0
   19.0775    3.1015   54.1479 N   0  0  0  0  0  0  0  0  0  0  0  0
   19.7878    3.0931   54.9349 H   0  0  0  0  0  0  0  0  0  0  0  0
   21.0088    0.7717   53.2569 C   0  0  0  0  0  0  0  0  0  0  0  0
   20.6293    1.8728   52.6485 C   0  0  0  0  0  0  0  0  0  0  0  0
 36 37  2  0  0  0
 37 32  1  0  0  0
 32 33  2  0  0  0
 32 34  1  0  0  0
 34 31  1  0  0  0
 31 30  1  0  0  0
 30 29  1  0  0  0
 29 28  1  0  0  0
 28  1  1  0  0  0
  1 17  1  0  0  0
 17 18  1  0  0  0
 18 19  2  0  0  0
 18 21  1  0  0  0
 21 22  1  0  0  0
 22 23  2  0  0  0
 23 24  1  0  0  0
 24 25  2  0  0  0
 25 26  1  0  0  0
 26 27  2  0  0  0
  1  2  1  0  0  0
  2  3  2  0  0  0
  2  4  1  0  0  0
  4  5  1  0  0  0
  5  6  1  0  0  0
  6  7  1  0  0  0
  7 10  1  0  0  0
 10 11  2  0  0  0
 11 12  1  0  0  0
 12 13  2  0  0  0
 13 14  1  0  0  0
 14 15  1  0  0  0
 14 16  2  0  0  0
  7  8  1  0  0  0
  8  9  1  0  0  0
 27 22  1  0  0  0
  9  4  1  0  0  0
 16 10  1  0  0  0
 34 35  1  0  0  0
 17 20  1  0  0  0
M  END
> <minimizedAffinity>
29.46363

> <CNNscore>
0.5224410892

> <CNNaffinity>
6.4875030518

> <CNN_VS>
3.3893382549

> <CNNaffinity_variance>
0.5114569664

$$$$
[H]C([H])=C([H])C(=O)N([H])C([H])([H])C([H])([H])C([H])([H])C([H])([H])[C@@]([H])(C(=O)N1C([H])([H])C([H])([H])N(c2c([H])c([H])c([H])c(C([H])([H])[H])c2[H])C([H])([H])C1([H])[H])N([H])C(=O)C([H])([H])c1c([H])c([H])c([H])c([H])c1[H]


 37 39  0  0  0  0  0  0  0  0999 V2000
   28.1037    8.7131   55.0685 C   0  0  0  0  0  0  0  0  0  0  0  0
   26.7692    8.8121   55.6804 C   0  0  0  0  0  0  0  0  0  0  0  0
   26.6952    9.2638   56.8776 O   0  0  0  0  0  0  0  0  0  0  0  0
   25.5773    8.4433   55.0261 N   0  0  0  0  0  0  0  0  0  0  0  0
   25.5610    7.9528   53.6789 C   0  0  0  0  0  0  0  0  0  0  0  0
   24.2881    8.4464   52.9991 C   0  0  0  0  0  0  0  0  0  0  0  0
   23.1707    7.8799   53.7303 N   0  0  0  0  0  0  0  0  0  0  0  0
   23.3533    7.5103   55.1015 C   0  0  0  0  0  0  0  0  0  0  0  0
   24.2910    8.5548   55.7069 C   0  0  0  0  0  0  0  0  0  0  0  0
   21.9128    7.7032   53.0983 C   0  0  0  0  0  0  0  0  0  0  0  0
   21.6264    8.4860   51.9835 C   0  0  0  0  0  0  0  0  0  0  0  0
   20.4194    8.3310   51.3508 C   0  0  0  0  0  0  0  0  0  0  0  0
   19.4863    7.4277   51.7836 C   0  0  0  0  0  0  0  0  0  0  0  0
   19.7439    6.6425   52.8818 C   0  0  0  0  0  0  0  0  0  0  0  0
   18.7650    5.6618   53.3780 C   0  0  0  0  0  0  0  0  0  0  0  0
   20.9637    6.8022   53.5171 C   0  0  0  0  0  0  0  0  0  0  0  0
   27.9769    8.2258   53.6729 N   0  0  0  0  0  0  0  0  0  0  0  0
   28.1127    9.1123   52.5894 C   0  0  0  0  0  0  0  0  0  0  0  0
   28.3431   10.3254   52.8174 O   0  0  0  0  0  0  0  0  0  0  0  0
   27.7899    7.2341   53.5388 H   0  0  0  0  0  0  0  0  0  0  0  0
   27.9844    8.6076   51.2184 C   0  0  0  0  0  0  0  0  0  0  0  0
   28.2652    9.6109   50.1900 C   0  0  0  0  0  0  0  0  0  0  0  0
   28.3448    9.1771   48.8755 C   0  0  0  0  0  0  0  0  0  0  0  0
   28.6080   10.0528   47.8393 C   0  0  0  0  0  0  0  0  0  0  0  0
   28.8006   11.3890   48.0765 C   0  0  0  0  0  0  0  0  0  0  0  0
   28.7250   11.8365   49.3739 C   0  0  0  0  0  0  0  0  0  0  0  0
   28.4598   10.9523   50.4154 C   0  0  0  0  0  0  0  0  0  0  0  0
   28.7712   10.0722   54.8999 C   0  0  0  0  0  0  0  0  0  0  0  0
   29.1886   10.7077   56.1842 C   0  0  0  0  0  0  0  0  0  0  0  0
   28.0876   11.5164   56.8533 C   0  0  0  0  0  0  0  0  0  0  0  0
   28.3796   11.7600   58.2933 C   0  0  0  0  0  0  0  0  0  0  0  0
   29.6697   10.7186   60.1450 C   0  0  0  0  0  0  0  0  0  0  0  0
   29.7194   11.8409   60.7680 O   0  0  0  0  0  0  0  0  0  0  0  0
   29.0098   10.6114   58.9050 N   0  0  0  0  0  0  0  0  0  0  0  0
   28.9604    9.6855   58.3910 H   0  0  0  0  0  0  0  0  0  0  0  0
   30.0470    8.3450   60.4163 C   0  0  0  0  0  0  0  0  0  0  0  0
   30.3081    9.5869   60.7572 C   0  0  0  0  0  0  0  0  0  0  0  0
 36 37  2  0  0  0
 37 32  1  0  0  0
 32 33  2  0  0  0
 32 34  1  0  0  0
 34 31  1  0  0  0
 31 30  1  0  0  0
 30 29  1  0  0  0
 29 28  1  0  0  0
 28  1  1  0  0  0
  1 17  1  0  0  0
 17 18  1  0  0  0
 18 19  2  0  0  0
 18 21  1  0  0  0
 21 22  1  0  0  0
 22 23  2  0  0  0
 23 24  1  0  0  0
 24 25  2  0  0  0
 25 26  1  0  0  0
 26 27  2  0  0  0
  1  2  1  0  0  0
  2  3  2  0  0  0
  2  4  1  0  0  0
  4  5  1  0  0  0
  5  6  1  0  0  0
  6  7  1  0  0  0
  7 10  1  0  0  0
 10 11  2  0  0  0
 11 12  1  0  0  0
 12 13  2  0  0  0
 13 14  1  0  0  0
 14 15  1  0  0  0
 14 16  2  0  0  0
  7  8  1  0  0  0
  8  9  1  0  0  0
 27 22  1  0  0  0
  9  4  1  0  0  0
 16 10  1  0  0  0
 34 35  1  0  0  0
 17 20  1  0  0  0
M  END
> <minimizedAffinity>
26.49136

> <CNNscore>
0.5204672217

> <CNNaffinity>
6.0519700050

> <CNN_VS>
3.1498520374

> <CNNaffinity_variance>
0.4405460358

$$$$
[H]C([H])=C([H])C(=O)N([H])C([H])([H])C([H])([H])C([H])([H])C([H])([H])[C@@]([H])(C(=O)N1C([H])([H])C([H])([H])N(c2c([H])c([H])c([H])c(C([H])([H])[H])c2[H])C([H])([H])C1([H])[H])N([H])C(=O)C([H])([H])c1c([H])c([H])c([H])c([H])c1[H]


 37 39  0  0  0  0  0  0  0  0999 V2000
   21.0442    7.5770   52.4175 C   0  0  0  0  0  0  0  0  0  0  0  0
   21.4262    8.0590   53.7542 C   0  0  0  0  0  0  0  0  0  0  0  0
   20.4906    8.2427   54.6108 O   0  0  0  0  0  0  0  0  0  0  0  0
   22.7543    8.3248   54.1419 N   0  0  0  0  0  0  0  0  0  0  0  0
   23.8665    8.1241   53.2597 C   0  0  0  0  0  0  0  0  0  0  0  0
   25.0601    7.6538   54.0844 C   0  0  0  0  0  0  0  0  0  0  0  0
   25.3743    8.7175   55.0193 N   0  0  0  0  0  0  0  0  0  0  0  0
   24.3425    9.6336   55.4018 C   0  0  0  0  0  0  0  0  0  0  0  0
   23.0521    8.8180   55.4830 C   0  0  0  0  0  0  0  0  0  0  0  0
   26.6826    8.8425   55.5538 C   0  0  0  0  0  0  0  0  0  0  0  0
   27.7592    8.5613   54.7174 C   0  0  0  0  0  0  0  0  0  0  0  0
   29.0346    8.6797   55.2080 C   0  0  0  0  0  0  0  0  0  0  0  0
   29.2808    9.0668   56.4978 C   0  0  0  0  0  0  0  0  0  0  0  0
   28.2358    9.3502   57.3442 C   0  0  0  0  0  0  0  0  0  0  0  0
   28.4606    9.7673   58.7377 C   0  0  0  0  0  0  0  0  0  0  0  0
   26.9501    9.2297   56.8447 C   0  0  0  0  0  0  0  0  0  0  0  0
   20.0167    6.5144   52.5461 N   0  0  0  0  0  0  0  0  0  0  0  0
   20.2715    5.3599   53.3080 C   0  0  0  0  0  0  0  0  0  0  0  0
   21.3825    5.2381   53.8803 O   0  0  0  0  0  0  0  0  0  0  0  0
   19.1318    6.6584   52.0639 H   0  0  0  0  0  0  0  0  0  0  0  0
   19.2404    4.3232   53.4216 C   0  0  0  0  0  0  0  0  0  0  0  0
   19.7748    2.9620   53.4883 C   0  0  0  0  0  0  0  0  0  0  0  0
   20.3631    2.4471   52.3432 C   0  0  0  0  0  0  0  0  0  0  0  0
   20.8923    1.1708   52.3128 C   0  0  0  0  0  0  0  0  0  0  0  0
   20.8539    0.3647   53.4208 C   0  0  0  0  0  0  0  0  0  0  0  0
   20.2744    0.8592   54.5649 C   0  0  0  0  0  0  0  0  0  0  0  0
   19.7423    2.1448   54.5924 C   0  0  0  0  0  0  0  0  0  0  0  0
   20.3356    8.6437   51.5924 C   0  0  0  0  0  0  0  0  0  0  0  0
   20.2969    9.9875   52.2408 C   0  0  0  0  0  0  0  0  0  0  0  0
   21.5321   10.8333   51.9709 C   0  0  0  0  0  0  0  0  0  0  0  0
   21.6225   11.2367   50.5401 C   0  0  0  0  0  0  0  0  0  0  0  0
   21.1272   13.5130   51.4064 C   0  0  0  0  0  0  0  0  0  0  0  0
   21.5332   13.1771   52.5779 O   0  0  0  0  0  0  0  0  0  0  0  0
   21.1512   12.5893   50.3430 N   0  0  0  0  0  0  0  0  0  0  0  0
   20.8238   12.8647   49.3731 H   0  0  0  0  0  0  0  0  0  0  0  0
   19.7458   15.4072   52.0010 C   0  0  0  0  0  0  0  0  0  0  0  0
   20.6516   14.8562   51.2248 C   0  0  0  0  0  0  0  0  0  0  0  0
 36 37  2  0  0  0
 37 32  1  0  0  0
 32 33  2  0  0  0
 32 34  1  0  0  0
 34 31  1  0  0  0
 31 30  1  0  0  0
 30 29  1  0  0  0
 29 28  1  0  0  0
 28  1  1  0  0  0
  1 17  1  0  0  0
 17 18  1  0  0  0
 18 19  2  0  0  0
 18 21  1  0  0  0
 21 22  1  0  0  0
 22 23  2  0  0  0
 23 24  1  0  0  0
 24 25  2  0  0  0
 25 26  1  0  0  0
 26 27  2  0  0  0
  1  2  1  0  0  0
  2  3  2  0  0  0
  2  4  1  0  0  0
  4  5  1  0  0  0
  5  6  1  0  0  0
  6  7  1  0  0  0
  7 10  1  0  0  0
 10 11  2  0  0  0
 11 12  1  0  0  0
 12 13  2  0  0  0
 13 14  1  0  0  0
 14 15  1  0  0  0
 14 16  2  0  0  0
  7  8  1  0  0  0
  8  9  1  0  0  0
 27 22  1  0  0  0
  9  4  1  0  0  0
 16 10  1  0  0  0
 34 35  1  0  0  0
 17 20  1  0  0  0
M  END
> <minimizedAffinity>
33.55686

> <CNNscore>
0.5184124708

> <CNNaffinity>
6.5613641739

> <CNN_VS>
3.4014930725

> <CNNaffinity_variance>
0.3788224757

$$$$
[H]c1nc([H])c(N([H])c2c([H])c(-c3c([H])c([H])c4c([H])c(C#N)c([H])nn34)nc([H])c2C(=O)N([H])[C@]2([H])C([H])([H])C([H])([H])[C@@]([H])(N([H])C(=O)C3([H])C([H])([H])C3([H])[H])C([H])([H])C2([H])[H])c([H])c1[H]


 42 47  0  0  0  0  0  0  0  0999 V2000
   28.0020    9.3090   56.6798 C   0  0  0  0  0  0  0  0  0  0  0  0
   26.9203    8.6110   56.2324 C   0  0  0  0  0  0  0  0  0  0  0  0
   26.5351    8.4402   54.9056 C   0  0  0  0  0  0  0  0  0  0  0  0
   27.3506    9.0515   53.9477 C   0  0  0  0  0  0  0  0  0  0  0  0
   28.4660    9.7751   54.3943 C   0  0  0  0  0  0  0  0  0  0  0  0
   28.7577    9.8848   55.6929 N   0  0  0  0  0  0  0  0  0  0  0  0
   28.8219   12.6034   60.6259 C   0  0  0  0  0  0  0  0  0  0  0  0
   28.3892   12.8552   59.3499 C   0  0  0  0  0  0  0  0  0  0  0  0
   28.2510   11.8309   58.5059 N   0  0  0  0  0  0  0  0  0  0  0  0
   28.5068   10.5719   58.8231 N   0  0  0  0  0  0  0  0  0  0  0  0
   28.4070    9.4843   58.0682 C   0  0  0  0  0  0  0  0  0  0  0  0
   28.7983    8.4176   58.8881 C   0  0  0  0  0  0  0  0  0  0  0  0
   29.1234    8.9148   60.1254 C   0  0  0  0  0  0  0  0  0  0  0  0
   28.9312   10.2945   60.0661 C   0  0  0  0  0  0  0  0  0  0  0  0
   29.0959   11.3022   60.9869 C   0  0  0  0  0  0  0  0  0  0  0  0
   29.1136   14.5774   62.2761 N   0  0  0  0  0  0  0  0  0  0  0  0
   28.9799   13.6926   61.5396 C   0  0  0  0  0  0  0  0  0  0  0  0
   27.1295    8.8805   52.5357 C   0  0  0  0  0  0  0  0  0  0  0  0
   26.0707    8.2860   52.1312 O   0  0  0  0  0  0  0  0  0  0  0  0
   28.0180    9.3352   51.5432 N   0  0  0  0  0  0  0  0  0  0  0  0
   28.8850    9.8310   51.8185 H   0  0  0  0  0  0  0  0  0  0  0  0
   27.6801    9.0943   50.1486 C   0  0  0  0  0  0  0  0  0  0  0  0
   28.2415   10.2829   49.3621 C   0  0  0  0  0  0  0  0  0  0  0  0
   28.1052    9.9913   47.8721 C   0  0  0  0  0  0  0  0  0  0  0  0
   29.1761    8.9326   47.5697 C   0  0  0  0  0  0  0  0  0  0  0  0
   29.4579    8.0898   48.7647 C   0  0  0  0  0  0  0  0  0  0  0  0
   28.1820    7.8216   49.5804 C   0  0  0  0  0  0  0  0  0  0  0  0
   28.6574    8.1128   46.4845 N   0  0  0  0  0  0  0  0  0  0  0  0
   28.7708    8.5667   45.1541 C   0  0  0  0  0  0  0  0  0  0  0  0
   29.3187    9.6912   44.9093 O   0  0  0  0  0  0  0  0  0  0  0  0
   28.2105    7.2009   46.6789 H   0  0  0  0  0  0  0  0  0  0  0  0
   28.2612    7.7549   44.0343 C   0  0  0  0  0  0  0  0  0  0  0  0
   27.6273    8.3964   42.8811 C   0  0  0  0  0  0  0  0  0  0  0  0
   26.7248    7.8272   43.9259 C   0  0  0  0  0  0  0  0  0  0  0  0
   25.3303    7.8034   54.6050 N   0  0  0  0  0  0  0  0  0  0  0  0
   25.3091    6.7938   54.3445 H   0  0  0  0  0  0  0  0  0  0  0  0
   24.0805    8.4549   54.5709 C   0  0  0  0  0  0  0  0  0  0  0  0
   23.1040    8.2420   53.5890 C   0  0  0  0  0  0  0  0  0  0  0  0
   21.9055    8.9075   53.6067 C   0  0  0  0  0  0  0  0  0  0  0  0
   21.6543    9.8083   54.6143 C   0  0  0  0  0  0  0  0  0  0  0  0
   22.5691   10.0376   55.5717 N   0  0  0  0  0  0  0  0  0  0  0  0
   23.7330    9.3875   55.5508 C   0  0  0  0  0  0  0  0  0  0  0  0
 16 17  3  0  0  0
 17  7  1  0  0  0
  7  8  1  0  0  0
  8  9  2  0  0  0
  9 10  1  0  0  0
 10 11  1  0  0  0
 11  1  1  0  0  0
  1  2  2  0  0  0
  2  3  1  0  0  0
  3 35  1  0  0  0
 35 37  1  0  0  0
 37 38  2  0  0  0
 38 39  1  0  0  0
 39 40  2  0  0  0
 40 41  1  0  0  0
 41 42  2  0  0  0
  3  4  2  0  0  0
  4 18  1  0  0  0
 18 19  2  0  0  0
 18 20  1  0  0  0
 20 22  1  0  0  0
 22 23  1  0  0  0
 23 24  1  0  0  0
 24 25  1  0  0  0
 25 28  1  0  0  0
 28 29  1  0  0  0
 29 30  2  0  0  0
 29 32  1  0  0  0
 32 33  1  0  0  0
 33 34  1  0  0  0
 25 26  1  0  0  0
 26 27  1  0  0  0
  4  5  1  0  0  0
  5  6  2  0  0  0
 11 12  2  0  0  0
 12 13  1  0  0  0
 13 14  2  0  0  0
 14 15  1  0  0  0
 15  7  2  0  0  0
 14 10  1  0  0  0
  6  1  1  0  0  0
 42 37  1  0  0  0
 27 22  1  0  0  0
 34 32  1  0  0  0
 35 36  1  0  0  0
 20 21  1  0  0  0
 28 31  1  0  0  0
M  END
> <minimizedAffinity>
26.46400

> <CNNscore>
0.6196892858

> <CNNaffinity>
7.0322599411

> <CNN_VS>
4.3578162193

> <CNNaffinity_variance>
0.2632725835

$$$$
[H]c1nc([H])c(N([H])c2c([H])c(-c3c([H])c([H])c4c([H])c(C#N)c([H])nn34)nc([H])c2C(=O)N([H])[C@]2([H])C([H])([H])C([H])([H])[C@@]([H])(N([H])C(=O)C3([H])C([H])([H])C3([H])[H])C([H])([H])C2([H])[H])c([H])c1[H]


 42 47  0  0  0  0  0  0  0  0999 V2000
   24.0504    8.5287   54.0424 C   0  0  0  0  0  0  0  0  0  0  0  0
   25.3163    8.3857   53.5581 C   0  0  0  0  0  0  0  0  0  0  0  0
   26.4997    8.6621   54.2371 C   0  0  0  0  0  0  0  0  0  0  0  0
   26.3587    9.1321   55.5469 C   0  0  0  0  0  0  0  0  0  0  0  0
   25.0614    9.2863   56.0575 C   0  0  0  0  0  0  0  0  0  0  0  0
   23.9809    8.9945   55.3289 N   0  0  0  0  0  0  0  0  0  0  0  0
   20.0398    5.2769   53.3813 C   0  0  0  0  0  0  0  0  0  0  0  0
   21.1021    5.1939   54.2435 C   0  0  0  0  0  0  0  0  0  0  0  0
   22.0159    6.1662   54.2306 N   0  0  0  0  0  0  0  0  0  0  0  0
   21.9639    7.2190   53.4307 N   0  0  0  0  0  0  0  0  0  0  0  0
   22.8123    8.2356   53.3329 C   0  0  0  0  0  0  0  0  0  0  0  0
   22.2904    9.0692   52.3349 C   0  0  0  0  0  0  0  0  0  0  0  0
   21.1283    8.5110   51.8640 C   0  0  0  0  0  0  0  0  0  0  0  0
   20.9345    7.3281   52.5759 C   0  0  0  0  0  0  0  0  0  0  0  0
   19.9571    6.3619   52.5360 C   0  0  0  0  0  0  0  0  0  0  0  0
   18.2590    3.3970   53.3869 N   0  0  0  0  0  0  0  0  0  0  0  0
   19.0556    4.2388   53.3805 C   0  0  0  0  0  0  0  0  0  0  0  0
   27.4939    9.3678   56.3998 C   0  0  0  0  0  0  0  0  0  0  0  0
   28.6522    9.5237   55.8781 O   0  0  0  0  0  0  0  0  0  0  0  0
   27.4170    9.4431   57.8031 N   0  0  0  0  0  0  0  0  0  0  0  0
   26.5005    9.3330   58.2736 H   0  0  0  0  0  0  0  0  0  0  0  0
   28.6416    9.6812   58.5519 C   0  0  0  0  0  0  0  0  0  0  0  0
   28.7020   11.1913   58.8022 C   0  0  0  0  0  0  0  0  0  0  0  0
   29.8513   11.4824   59.7603 C   0  0  0  0  0  0  0  0  0  0  0  0
   29.3634   10.9967   61.1333 C   0  0  0  0  0  0  0  0  0  0  0  0
   28.3910    9.8769   60.9981 C   0  0  0  0  0  0  0  0  0  0  0  0
   28.7610    8.9451   59.8318 C   0  0  0  0  0  0  0  0  0  0  0  0
   30.5432   10.5557   61.8630 N   0  0  0  0  0  0  0  0  0  0  0  0
   31.7293   10.2651   61.1577 C   0  0  0  0  0  0  0  0  0  0  0  0
   31.7610   10.3830   59.8890 O   0  0  0  0  0  0  0  0  0  0  0  0
   30.5210   10.4569   62.8921 H   0  0  0  0  0  0  0  0  0  0  0  0
   32.9415    9.8234   61.8706 C   0  0  0  0  0  0  0  0  0  0  0  0
   32.8936    8.6707   62.7719 C   0  0  0  0  0  0  0  0  0  0  0  0
   32.8172   10.0263   63.3940 C   0  0  0  0  0  0  0  0  0  0  0  0
   27.7221    8.5867   53.5683 N   0  0  0  0  0  0  0  0  0  0  0  0
   28.5214    8.0529   53.9729 H   0  0  0  0  0  0  0  0  0  0  0  0
   27.9996    9.2481   52.3546 C   0  0  0  0  0  0  0  0  0  0  0  0
   28.7782   10.4078   52.2457 C   0  0  0  0  0  0  0  0  0  0  0  0
   29.0126   11.0089   51.0361 C   0  0  0  0  0  0  0  0  0  0  0  0
   28.4693   10.4600   49.8987 C   0  0  0  0  0  0  0  0  0  0  0  0
   27.7167    9.3488   49.9669 N   0  0  0  0  0  0  0  0  0  0  0  0
   27.4920    8.7672   51.1455 C   0  0  0  0  0  0  0  0  0  0  0  0
 16 17  3  0  0  0
 17  7  1  0  0  0
  7  8  1  0  0  0
  8  9  2  0  0  0
  9 10  1  0  0  0
 10 11  1  0  0  0
 11  1  1  0  0  0
  1  2  2  0  0  0
  2  3  1  0  0  0
  3 35  1  0  0  0
 35 37  1  0  0  0
 37 38  2  0  0  0
 38 39  1  0  0  0
 39 40  2  0  0  0
 40 41  1  0  0  0
 41 42  2  0  0  0
  3  4  2  0  0  0
  4 18  1  0  0  0
 18 19  2  0  0  0
 18 20  1  0  0  0
 20 22  1  0  0  0
 22 23  1  0  0  0
 23 24  1  0  0  0
 24 25  1  0  0  0
 25 28  1  0  0  0
 28 29  1  0  0  0
 29 30  2  0  0  0
 29 32  1  0  0  0
 32 33  1  0  0  0
 33 34  1  0  0  0
 25 26  1  0  0  0
 26 27  1  0  0  0
  4  5  1  0  0  0
  5  6  2  0  0  0
 11 12  2  0  0  0
 12 13  1  0  0  0
 13 14  2  0  0  0
 14 15  1  0  0  0
 15  7  2  0  0  0
 14 10  1  0  0  0
  6  1  1  0  0  0
 42 37  1  0  0  0
 27 22  1  0  0  0
 34 32  1  0  0  0
 35 36  1  0  0  0
 20 21  1  0  0  0
 28 31  1  0  0  0
M  END
> <minimizedAffinity>
23.01299

> <CNNscore>
0.5776075721

> <CNNaffinity>
6.8088364601

> <CNN_VS>
3.9328355789

> <CNNaffinity_variance>
1.0311139822

$$$$
[H]c1nc([H])c(N([H])c2c([H])c(-c3c([H])c([H])c4c([H])c(C#N)c([H])nn34)nc([H])c2C(=O)N([H])[C@]2([H])C([H])([H])C([H])([H])[C@@]([H])(N([H])C(=O)C3([H])C([H])([H])C3([H])[H])C([H])([H])C2([H])[H])c([H])c1[H]


 42 47  0  0  0  0  0  0  0  0999 V2000
   27.9913    8.9503   51.8734 C   0  0  0  0  0  0  0  0  0  0  0  0
   26.9141    8.4175   52.5163 C   0  0  0  0  0  0  0  0  0  0  0  0
   26.6814    8.4241   53.8888 C   0  0  0  0  0  0  0  0  0  0  0  0
   27.6595    9.0443   54.6728 C   0  0  0  0  0  0  0  0  0  0  0  0
   28.7747    9.5950   54.0244 C   0  0  0  0  0  0  0  0  0  0  0  0
   28.9130    9.5406   52.6972 N   0  0  0  0  0  0  0  0  0  0  0  0
   28.8094   11.7432   47.5574 C   0  0  0  0  0  0  0  0  0  0  0  0
   28.6173   12.1616   48.8485 C   0  0  0  0  0  0  0  0  0  0  0  0
   28.4278   11.2439   49.7985 N   0  0  0  0  0  0  0  0  0  0  0  0
   28.4134    9.9399   49.5743 N   0  0  0  0  0  0  0  0  0  0  0  0
   28.2327    8.9467   50.4368 C   0  0  0  0  0  0  0  0  0  0  0  0
   28.3080    7.7700   49.6798 C   0  0  0  0  0  0  0  0  0  0  0  0
   28.5351    8.1082   48.3692 C   0  0  0  0  0  0  0  0  0  0  0  0
   28.5998    9.5001   48.3197 C   0  0  0  0  0  0  0  0  0  0  0  0
   28.8005   10.3911   47.2920 C   0  0  0  0  0  0  0  0  0  0  0  0
   29.1664   13.5001   45.6891 N   0  0  0  0  0  0  0  0  0  0  0  0
   29.0081   12.7163   46.5280 C   0  0  0  0  0  0  0  0  0  0  0  0
   27.5065    9.2104   56.0943 C   0  0  0  0  0  0  0  0  0  0  0  0
   26.3794    9.5912   56.5663 O   0  0  0  0  0  0  0  0  0  0  0  0
   28.5352    8.9751   57.0256 N   0  0  0  0  0  0  0  0  0  0  0  0
   29.4639    8.6562   56.6950 H   0  0  0  0  0  0  0  0  0  0  0  0
   28.2526    9.1856   58.4373 C   0  0  0  0  0  0  0  0  0  0  0  0
   29.2190    8.2787   59.2058 C   0  0  0  0  0  0  0  0  0  0  0  0
   29.1189    8.6054   60.6914 C   0  0  0  0  0  0  0  0  0  0  0  0
   29.8260    9.9591   60.8542 C   0  0  0  0  0  0  0  0  0  0  0  0
   29.7329   10.7724   59.6101 C   0  0  0  0  0  0  0  0  0  0  0  0
   28.3757   10.5834   58.9119 C   0  0  0  0  0  0  0  0  0  0  0  0
   29.1663   10.6444   61.9560 N   0  0  0  0  0  0  0  0  0  0  0  0
   29.0303   12.0476   61.9210 C   0  0  0  0  0  0  0  0  0  0  0  0
   29.4895   12.7076   60.9321 O   0  0  0  0  0  0  0  0  0  0  0  0
   28.7941   10.1128   62.7611 H   0  0  0  0  0  0  0  0  0  0  0  0
   28.3606   12.7678   63.0190 C   0  0  0  0  0  0  0  0  0  0  0  0
   26.9847   12.4360   63.3935 C   0  0  0  0  0  0  0  0  0  0  0  0
   27.1832   13.6234   62.5099 C   0  0  0  0  0  0  0  0  0  0  0  0
   25.5930    7.7273   54.4155 N   0  0  0  0  0  0  0  0  0  0  0  0
   25.7338    6.9514   55.0979 H   0  0  0  0  0  0  0  0  0  0  0  0
   24.2528    7.9601   54.0448 C   0  0  0  0  0  0  0  0  0  0  0  0
   23.4453    8.9676   54.5886 C   0  0  0  0  0  0  0  0  0  0  0  0
   22.1459    9.1453   54.1894 C   0  0  0  0  0  0  0  0  0  0  0  0
   21.6200    8.3130   53.2299 C   0  0  0  0  0  0  0  0  0  0  0  0
   22.3662    7.3356   52.6878 N   0  0  0  0  0  0  0  0  0  0  0  0
   23.6297    7.1669   53.0787 C   0  0  0  0  0  0  0  0  0  0  0  0
 16 17  3  0  0  0
 17  7  1  0  0  0
  7  8  1  0  0  0
  8  9  2  0  0  0
  9 10  1  0  0  0
 10 11  1  0  0  0
 11  1  1  0  0  0
  1  2  2  0  0  0
  2  3  1  0  0  0
  3 35  1  0  0  0
 35 37  1  0  0  0
 37 38  2  0  0  0
 38 39  1  0  0  0
 39 40  2  0  0  0
 40 41  1  0  0  0
 41 42  2  0  0  0
  3  4  2  0  0  0
  4 18  1  0  0  0
 18 19  2  0  0  0
 18 20  1  0  0  0
 20 22  1  0  0  0
 22 23  1  0  0  0
 23 24  1  0  0  0
 24 25  1  0  0  0
 25 28  1  0  0  0
 28 29  1  0  0  0
 29 30  2  0  0  0
 29 32  1  0  0  0
 32 33  1  0  0  0
 33 34  1  0  0  0
 25 26  1  0  0  0
 26 27  1  0  0  0
  4  5  1  0  0  0
  5  6  2  0  0  0
 11 12  2  0  0  0
 12 13  1  0  0  0
 13 14  2  0  0  0
 14 15  1  0  0  0
 15  7  2  0  0  0
 14 10  1  0  0  0
  6  1  1  0  0  0
 42 37  1  0  0  0
 27 22  1  0  0  0
 34 32  1  0  0  0
 35 36  1  0  0  0
 20 21  1  0  0  0
 28 31  1  0  0  0
M  END
> <minimizedAffinity>
31.80173

> <CNNscore>
0.5736539960

> <CNNaffinity>
6.8254685402

> <CNN_VS>
3.9154572487

> <CNNaffinity_variance>
0.4811834395

$$$$
[H]c1nc([H])c(N([H])c2c([H])c(-c3c([H])c([H])c4c([H])c(C#N)c([H])nn34)nc([H])c2C(=O)N([H])[C@]2([H])C([H])([H])C([H])([H])[C@@]([H])(N([H])C(=O)C3([H])C([H])([H])C3([H])[H])C([H])([H])C2([H])[H])c([H])c1[H]


 42 47  0  0  0  0  0  0  0  0999 V2000
   28.0940    9.8974   51.6367 C   0  0  0  0  0  0  0  0  0  0  0  0
   27.2168    8.9922   52.1551 C   0  0  0  0  0  0  0  0  0  0  0  0
   27.0277    8.6994   53.5028 C   0  0  0  0  0  0  0  0  0  0  0  0
   27.8245    9.4147   54.4026 C   0  0  0  0  0  0  0  0  0  0  0  0
   28.7334   10.3479   53.8827 C   0  0  0  0  0  0  0  0  0  0  0  0
   28.8455   10.5623   52.5693 N   0  0  0  0  0  0  0  0  0  0  0  0
   28.8384    8.0873   46.8132 C   0  0  0  0  0  0  0  0  0  0  0  0
   28.6763    7.4038   47.9902 C   0  0  0  0  0  0  0  0  0  0  0  0
   28.4946    8.0981   49.1151 N   0  0  0  0  0  0  0  0  0  0  0  0
   28.4597    9.4197   49.1707 N   0  0  0  0  0  0  0  0  0  0  0  0
   28.2889   10.2064   50.2265 C   0  0  0  0  0  0  0  0  0  0  0  0
   28.3374   11.5171   49.7334 C   0  0  0  0  0  0  0  0  0  0  0  0
   28.5387   11.4656   48.3767 C   0  0  0  0  0  0  0  0  0  0  0  0
   28.6146   10.1164   48.0337 C   0  0  0  0  0  0  0  0  0  0  0  0
   28.8062    9.4647   46.8382 C   0  0  0  0  0  0  0  0  0  0  0  0
   29.1999    6.7575   44.6210 N   0  0  0  0  0  0  0  0  0  0  0  0
   29.0396    7.3559   45.6004 C   0  0  0  0  0  0  0  0  0  0  0  0
   27.6707    9.2859   55.8279 C   0  0  0  0  0  0  0  0  0  0  0  0
   26.5032    9.3695   56.3456 O   0  0  0  0  0  0  0  0  0  0  0  0
   28.7416    9.0667   56.7145 N   0  0  0  0  0  0  0  0  0  0  0  0
   29.7055    8.9821   56.3442 H   0  0  0  0  0  0  0  0  0  0  0  0
   28.4524    8.9599   58.1365 C   0  0  0  0  0  0  0  0  0  0  0  0
   29.5366    8.0520   58.7255 C   0  0  0  0  0  0  0  0  0  0  0  0
   29.4145    8.0673   60.2449 C   0  0  0  0  0  0  0  0  0  0  0  0
   29.9444    9.4425   60.6774 C   0  0  0  0  0  0  0  0  0  0  0  0
   29.7321   10.4639   59.6147 C   0  0  0  0  0  0  0  0  0  0  0  0
   28.4015   10.2425   58.8760 C   0  0  0  0  0  0  0  0  0  0  0  0
   29.2165    9.8095   61.8833 N   0  0  0  0  0  0  0  0  0  0  0  0
   28.6779   11.1073   62.0030 C   0  0  0  0  0  0  0  0  0  0  0  0
   28.8359   11.9519   61.0616 O   0  0  0  0  0  0  0  0  0  0  0  0
   29.0877    9.1280   62.6502 H   0  0  0  0  0  0  0  0  0  0  0  0
   27.9300   11.5051   63.2093 C   0  0  0  0  0  0  0  0  0  0  0  0
   26.6750   12.2499   63.0922 C   0  0  0  0  0  0  0  0  0  0  0  0
   27.9088   13.0359   63.3926 C   0  0  0  0  0  0  0  0  0  0  0  0
   26.1805    7.6559   53.8781 N   0  0  0  0  0  0  0  0  0  0  0  0
   26.5651    6.7242   54.1458 H   0  0  0  0  0  0  0  0  0  0  0  0
   24.7733    7.7423   53.8758 C   0  0  0  0  0  0  0  0  0  0  0  0
   23.9346    6.9689   53.0627 C   0  0  0  0  0  0  0  0  0  0  0  0
   22.5703    7.0985   53.1029 C   0  0  0  0  0  0  0  0  0  0  0  0
   22.0092    8.0118   53.9637 C   0  0  0  0  0  0  0  0  0  0  0  0
   22.7841    8.7708   54.7571 N   0  0  0  0  0  0  0  0  0  0  0  0
   24.1105    8.6408   54.7151 C   0  0  0  0  0  0  0  0  0  0  0  0
 16 17  3  0  0  0
 17  7  1  0  0  0
  7  8  1  0  0  0
  8  9  2  0  0  0
  9 10  1  0  0  0
 10 11  1  0  0  0
 11  1  1  0  0  0
  1  2  2  0  0  0
  2  3  1  0  0  0
  3 35  1  0  0  0
 35 37  1  0  0  0
 37 38  2  0  0  0
 38 39  1  0  0  0
 39 40  2  0  0  0
 40 41  1  0  0  0
 41 42  2  0  0  0
  3  4  2  0  0  0
  4 18  1  0  0  0
 18 19  2  0  0  0
 18 20  1  0  0  0
 20 22  1  0  0  0
 22 23  1  0  0  0
 23 24  1  0  0  0
 24 25  1  0  0  0
 25 28  1  0  0  0
 28 29  1  0  0  0
 29 30  2  0  0  0
 29 32  1  0  0  0
 32 33  1  0  0  0
 33 34  1  0  0  0
 25 26  1  0  0  0
 26 27  1  0  0  0
  4  5  1  0  0  0
  5  6  2  0  0  0
 11 12  2  0  0  0
 12 13  1  0  0  0
 13 14  2  0  0  0
 14 15  1  0  0  0
 15  7  2  0  0  0
 14 10  1  0  0  0
  6  1  1  0  0  0
 42 37  1  0  0  0
 27 22  1  0  0  0
 34 32  1  0  0  0
 35 36  1  0  0  0
 20 21  1  0  0  0
 28 31  1  0  0  0
M  END
> <minimizedAffinity>
30.75211

> <CNNscore>
0.5730848908

> <CNNaffinity>
6.8202238083

> <CNN_VS>
3.9085671902

> <CNNaffinity_variance>
0.3799644113

$$$$
[H]c1nc([H])c(N([H])c2c([H])c(-c3c([H])c([H])c4c([H])c(C#N)c([H])nn34)nc([H])c2C(=O)N([H])[C@]2([H])C([H])([H])C([H])([H])[C@@]([H])(N([H])C(=O)C3([H])C([H])([H])C3([H])[H])C([H])([H])C2([H])[H])c([H])c1[H]


 42 47  0  0  0  0  0  0  0  0999 V2000
   30.4913   10.4369   60.5531 C   0  0  0  0  0  0  0  0  0  0  0  0
   29.3851   10.1253   59.8205 C   0  0  0  0  0  0  0  0  0  0  0  0
   28.7413    8.8919   59.7754 C   0  0  0  0  0  0  0  0  0  0  0  0
   29.2968    7.8819   60.5676 C   0  0  0  0  0  0  0  0  0  0  0  0
   30.4369    8.1880   61.3251 C   0  0  0  0  0  0  0  0  0  0  0  0
   30.9873    9.4047   61.3049 N   0  0  0  0  0  0  0  0  0  0  0  0
   30.0266   15.6083   60.9237 C   0  0  0  0  0  0  0  0  0  0  0  0
   29.0570   14.6394   60.9225 C   0  0  0  0  0  0  0  0  0  0  0  0
   29.4275   13.3617   60.8177 N   0  0  0  0  0  0  0  0  0  0  0  0
   30.6849   12.9628   60.7141 N   0  0  0  0  0  0  0  0  0  0  0  0
   31.1625   11.7289   60.6031 C   0  0  0  0  0  0  0  0  0  0  0  0
   32.5546   11.8678   60.5241 C   0  0  0  0  0  0  0  0  0  0  0  0
   32.8643   13.2032   60.5922 C   0  0  0  0  0  0  0  0  0  0  0  0
   31.6565   13.8891   60.7136 C   0  0  0  0  0  0  0  0  0  0  0  0
   31.3457   15.2244   60.8180 C   0  0  0  0  0  0  0  0  0  0  0  0
   29.3261   18.0939   61.1149 N   0  0  0  0  0  0  0  0  0  0  0  0
   29.6434   16.9825   61.0298 C   0  0  0  0  0  0  0  0  0  0  0  0
   28.6828    6.5862   60.6941 C   0  0  0  0  0  0  0  0  0  0  0  0
   28.7239    5.7706   59.7085 O   0  0  0  0  0  0  0  0  0  0  0  0
   28.0256    6.1410   61.8564 N   0  0  0  0  0  0  0  0  0  0  0  0
   27.9731    6.7602   62.6854 H   0  0  0  0  0  0  0  0  0  0  0  0
   27.4408    4.8087   61.8539 C   0  0  0  0  0  0  0  0  0  0  0  0
   28.3255    3.9561   60.9390 C   0  0  0  0  0  0  0  0  0  0  0  0
   27.8904    2.4999   61.0570 C   0  0  0  0  0  0  0  0  0  0  0  0
   28.3953    2.0394   62.4326 C   0  0  0  0  0  0  0  0  0  0  0  0
   28.4670    3.1760   63.3921 C   0  0  0  0  0  0  0  0  0  0  0  0
   27.3092    4.1664   63.1822 C   0  0  0  0  0  0  0  0  0  0  0  0
   27.4539    1.0360   62.9078 N   0  0  0  0  0  0  0  0  0  0  0  0
   26.0708    1.3097   62.8768 C   0  0  0  0  0  0  0  0  0  0  0  0
   25.6532    2.4322   62.4410 O   0  0  0  0  0  0  0  0  0  0  0  0
   27.7886    0.1248   63.2640 H   0  0  0  0  0  0  0  0  0  0  0  0
   25.0937    0.3101   63.3448 C   0  0  0  0  0  0  0  0  0  0  0  0
   25.3369   -1.1187   63.1377 C   0  0  0  0  0  0  0  0  0  0  0  0
   24.4276   -0.4347   62.1705 C   0  0  0  0  0  0  0  0  0  0  0  0
   27.6908    8.6852   58.8804 N   0  0  0  0  0  0  0  0  0  0  0  0
   26.7468    8.4003   59.2197 H   0  0  0  0  0  0  0  0  0  0  0  0
   27.8169    8.7829   57.4796 C   0  0  0  0  0  0  0  0  0  0  0  0
   26.7410    8.7376   56.5834 C   0  0  0  0  0  0  0  0  0  0  0  0
   26.9255    8.8360   55.2284 C   0  0  0  0  0  0  0  0  0  0  0  0
   28.2002    8.9828   54.7348 C   0  0  0  0  0  0  0  0  0  0  0  0
   29.2552    9.0290   55.5659 N   0  0  0  0  0  0  0  0  0  0  0  0
   29.0708    8.9336   56.8831 C   0  0  0  0  0  0  0  0  0  0  0  0
 16 17  3  0  0  0
 17  7  1  0  0  0
  7  8  1  0  0  0
  8  9  2  0  0  0
  9 10  1  0  0  0
 10 11  1  0  0  0
 11  1  1  0  0  0
  1  2  2  0  0  0
  2  3  1  0  0  0
  3 35  1  0  0  0
 35 37  1  0  0  0
 37 38  2  0  0  0
 38 39  1  0  0  0
 39 40  2  0  0  0
 40 41  1  0  0  0
 41 42  2  0  0  0
  3  4  2  0  0  0
  4 18  1  0  0  0
 18 19  2  0  0  0
 18 20  1  0  0  0
 20 22  1  0  0  0
 22 23  1  0  0  0
 23 24  1  0  0  0
 24 25  1  0  0  0
 25 28  1  0  0  0
 28 29  1  0  0  0
 29 30  2  0  0  0
 29 32  1  0  0  0
 32 33  1  0  0  0
 33 34  1  0  0  0
 25 26  1  0  0  0
 26 27  1  0  0  0
  4  5  1  0  0  0
  5  6  2  0  0  0
 11 12  2  0  0  0
 12 13  1  0  0  0
 13 14  2  0  0  0
 14 15  1  0  0  0
 15  7  2  0  0  0
 14 10  1  0  0  0
  6  1  1  0  0  0
 42 37  1  0  0  0
 27 22  1  0  0  0
 34 32  1  0  0  0
 35 36  1  0  0  0
 20 21  1  0  0  0
 28 31  1  0  0  0
M  END
> <minimizedAffinity>
14.52010

> <CNNscore>
0.4622529447

> <CNNaffinity>
6.4322409630

> <CNN_VS>
2.9733223915

> <CNNaffinity_variance>
0.0907960981

$$$$
[H]c1nc([H])c(N([H])c2c([H])c(-c3c([H])c([H])c4c([H])c(C#N)c([H])nn34)nc([H])c2C(=O)N([H])[C@]2([H])C([H])([H])C([H])([H])[C@@]([H])(N([H])C(=O)C3([H])C([H])([H])C3([H])[H])C([H])([H])C2([H])[H])c([H])c1[H]


 42 47  0  0  0  0  0  0  0  0999 V2000
   21.8998    6.5835   54.0525 C   0  0  0  0  0  0  0  0  0  0  0  0
   22.0797    7.9259   53.9012 C   0  0  0  0  0  0  0  0  0  0  0  0
   23.2108    8.6558   54.2561 C   0  0  0  0  0  0  0  0  0  0  0  0
   24.2592    7.9235   54.8226 C   0  0  0  0  0  0  0  0  0  0  0  0
   24.0867    6.5412   54.9863 C   0  0  0  0  0  0  0  0  0  0  0  0
   22.9616    5.9252   54.6146 N   0  0  0  0  0  0  0  0  0  0  0  0
   19.8547    1.9220   52.9640 C   0  0  0  0  0  0  0  0  0  0  0  0
   21.1365    2.2556   53.3169 C   0  0  0  0  0  0  0  0  0  0  0  0
   21.4237    3.5371   53.5530 N   0  0  0  0  0  0  0  0  0  0  0  0
   20.5417    4.5200   53.4684 N   0  0  0  0  0  0  0  0  0  0  0  0
   20.7176    5.8194   53.6774 C   0  0  0  0  0  0  0  0  0  0  0  0
   19.4677    6.4113   53.4518 C   0  0  0  0  0  0  0  0  0  0  0  0
   18.5742    5.4271   53.1103 C   0  0  0  0  0  0  0  0  0  0  0  0
   19.2780    4.2237   53.1258 C   0  0  0  0  0  0  0  0  0  0  0  0
   18.9130    2.9233   52.8682 C   0  0  0  0  0  0  0  0  0  0  0  0
   19.2773   -0.5563   52.4844 N   0  0  0  0  0  0  0  0  0  0  0  0
   19.5341    0.5526   52.7027 C   0  0  0  0  0  0  0  0  0  0  0  0
   25.5237    8.5285   55.1493 C   0  0  0  0  0  0  0  0  0  0  0  0
   26.4062    8.6769   54.2341 O   0  0  0  0  0  0  0  0  0  0  0  0
   25.8656    8.9820   56.4371 N   0  0  0  0  0  0  0  0  0  0  0  0
   25.1822    8.8932   57.2107 H   0  0  0  0  0  0  0  0  0  0  0  0
   27.1807    9.5714   56.6371 C   0  0  0  0  0  0  0  0  0  0  0  0
   26.9371   11.0093   57.1058 C   0  0  0  0  0  0  0  0  0  0  0  0
   28.2686   11.6162   57.5333 C   0  0  0  0  0  0  0  0  0  0  0  0
   28.6050   10.9449   58.8732 C   0  0  0  0  0  0  0  0  0  0  0  0
   28.0196    9.5781   58.9568 C   0  0  0  0  0  0  0  0  0  0  0  0
   28.0593    8.8623   57.5962 C   0  0  0  0  0  0  0  0  0  0  0  0
   30.0569   10.8782   58.9532 N   0  0  0  0  0  0  0  0  0  0  0  0
   30.6863   10.9091   60.2148 C   0  0  0  0  0  0  0  0  0  0  0  0
   29.9845   11.0018   61.2747 O   0  0  0  0  0  0  0  0  0  0  0  0
   30.6301   10.8049   58.0956 H   0  0  0  0  0  0  0  0  0  0  0  0
   32.1543   10.8360   60.3270 C   0  0  0  0  0  0  0  0  0  0  0  0
   32.7836   10.4584   61.5939 C   0  0  0  0  0  0  0  0  0  0  0  0
   32.7117   11.9159   61.2761 C   0  0  0  0  0  0  0  0  0  0  0  0
   23.2027   10.0477   54.1570 N   0  0  0  0  0  0  0  0  0  0  0  0
   23.7053   10.6369   54.8555 H   0  0  0  0  0  0  0  0  0  0  0  0
   22.4929   10.7645   53.1722 C   0  0  0  0  0  0  0  0  0  0  0  0
   22.3912   12.1613   53.1296 C   0  0  0  0  0  0  0  0  0  0  0  0
   21.6841   12.8039   52.1465 C   0  0  0  0  0  0  0  0  0  0  0  0
   21.0574   12.0587   51.1760 C   0  0  0  0  0  0  0  0  0  0  0  0
   21.1334   10.7171   51.1871 N   0  0  0  0  0  0  0  0  0  0  0  0
   21.8228   10.0964   52.1448 C   0  0  0  0  0  0  0  0  0  0  0  0
 16 17  3  0  0  0
 17  7  1  0  0  0
  7  8  1  0  0  0
  8  9  2  0  0  0
  9 10  1  0  0  0
 10 11  1  0  0  0
 11  1  1  0  0  0
  1  2  2  0  0  0
  2  3  1  0  0  0
  3 35  1  0  0  0
 35 37  1  0  0  0
 37 38  2  0  0  0
 38 39  1  0  0  0
 39 40  2  0  0  0
 40 41  1  0  0  0
 41 42  2  0  0  0
  3  4  2  0  0  0
  4 18  1  0  0  0
 18 19  2  0  0  0
 18 20  1  0  0  0
 20 22  1  0  0  0
 22 23  1  0  0  0
 23 24  1  0  0  0
 24 25  1  0  0  0
 25 28  1  0  0  0
 28 29  1  0  0  0
 29 30  2  0  0  0
 29 32  1  0  0  0
 32 33  1  0  0  0
 33 34  1  0  0  0
 25 26  1  0  0  0
 26 27  1  0  0  0
  4  5  1  0  0  0
  5  6  2  0  0  0
 11 12  2  0  0  0
 12 13  1  0  0  0
 13 14  2  0  0  0
 14 15  1  0  0  0
 15  7  2  0  0  0
 14 10  1  0  0  0
  6  1  1  0  0  0
 42 37  1  0  0  0
 27 22  1  0  0  0
 34 32  1  0  0  0
 35 36  1  0  0  0
 20 21  1  0  0  0
 28 31  1  0  0  0
M  END
> <minimizedAffinity>
47.51568

> <CNNscore>
0.4134465754

> <CNNaffinity>
6.6669473648

> <CNN_VS>
2.7564265728

> <CNNaffinity_variance>
0.5199810266

$$$$
[H]c1nc([H])c(N([H])c2c([H])c(-c3c([H])c([H])c4c([H])c(C#N)c([H])nn34)nc([H])c2C(=O)N([H])[C@]2([H])C([H])([H])C([H])([H])[C@@]([H])(N([H])C(=O)C3([H])C([H])([H])C3([H])[H])C([H])([H])C2([H])[H])c([H])c1[H]


 42 47  0  0  0  0  0  0  0  0999 V2000
   24.0391    8.6985   54.4804 C   0  0  0  0  0  0  0  0  0  0  0  0
   25.2981    8.2907   54.1545 C   0  0  0  0  0  0  0  0  0  0  0  0
   26.4645    8.5513   54.8683 C   0  0  0  0  0  0  0  0  0  0  0  0
   26.3124    9.3077   56.0349 C   0  0  0  0  0  0  0  0  0  0  0  0
   25.0224    9.7360   56.3812 C   0  0  0  0  0  0  0  0  0  0  0  0
   23.9584    9.4364   55.6317 N   0  0  0  0  0  0  0  0  0  0  0  0
   20.1764    5.3568   53.4756 C   0  0  0  0  0  0  0  0  0  0  0  0
   21.2374    5.2368   54.3351 C   0  0  0  0  0  0  0  0  0  0  0  0
   22.1082    6.2440   54.4235 N   0  0  0  0  0  0  0  0  0  0  0  0
   22.0142    7.3656   53.7277 N   0  0  0  0  0  0  0  0  0  0  0  0
   22.8182    8.4223   53.7353 C   0  0  0  0  0  0  0  0  0  0  0  0
   22.2652    9.3249   52.8172 C   0  0  0  0  0  0  0  0  0  0  0  0
   21.1306    8.7655   52.2849 C   0  0  0  0  0  0  0  0  0  0  0  0
   20.9850    7.5123   52.8784 C   0  0  0  0  0  0  0  0  0  0  0  0
   20.0506    6.5136   52.7375 C   0  0  0  0  0  0  0  0  0  0  0  0
   18.4781    3.4114   53.2856 N   0  0  0  0  0  0  0  0  0  0  0  0
   19.2382    4.2825   53.3666 C   0  0  0  0  0  0  0  0  0  0  0  0
   27.4144    9.5728   56.9220 C   0  0  0  0  0  0  0  0  0  0  0  0
   28.3410    8.6997   57.0539 O   0  0  0  0  0  0  0  0  0  0  0  0
   27.5490   10.7562   57.6720 N   0  0  0  0  0  0  0  0  0  0  0  0
   26.8303   11.4983   57.5933 H   0  0  0  0  0  0  0  0  0  0  0  0
   28.7098   10.8991   58.5376 C   0  0  0  0  0  0  0  0  0  0  0  0
   28.5045   12.2031   59.3148 C   0  0  0  0  0  0  0  0  0  0  0  0
   29.5810   12.3062   60.3893 C   0  0  0  0  0  0  0  0  0  0  0  0
   29.1789   11.2824   61.4613 C   0  0  0  0  0  0  0  0  0  0  0  0
   28.4174   10.1479   60.8689 C   0  0  0  0  0  0  0  0  0  0  0  0
   28.9498    9.7771   59.4745 C   0  0  0  0  0  0  0  0  0  0  0  0
   30.4140   10.8019   62.0633 N   0  0  0  0  0  0  0  0  0  0  0  0
   31.5715   10.6735   61.2680 C   0  0  0  0  0  0  0  0  0  0  0  0
   31.5296   10.9711   60.0294 O   0  0  0  0  0  0  0  0  0  0  0  0
   30.4518   10.5576   63.0673 H   0  0  0  0  0  0  0  0  0  0  0  0
   32.8383   10.1964   61.8517 C   0  0  0  0  0  0  0  0  0  0  0  0
   32.8695    8.9762   62.6601 C   0  0  0  0  0  0  0  0  0  0  0  0
   32.8271   10.2777   63.3914 C   0  0  0  0  0  0  0  0  0  0  0  0
   27.7020    8.1748   54.3447 N   0  0  0  0  0  0  0  0  0  0  0  0
   27.8478    7.2211   53.9489 H   0  0  0  0  0  0  0  0  0  0  0  0
   28.8460    8.9988   54.3531 C   0  0  0  0  0  0  0  0  0  0  0  0
   30.1497    8.5398   54.5826 C   0  0  0  0  0  0  0  0  0  0  0  0
   31.2251    9.3902   54.5805 C   0  0  0  0  0  0  0  0  0  0  0  0
   31.0198   10.7294   54.3473 C   0  0  0  0  0  0  0  0  0  0  0  0
   29.7824   11.2037   54.1244 N   0  0  0  0  0  0  0  0  0  0  0  0
   28.7395   10.3729   54.1267 C   0  0  0  0  0  0  0  0  0  0  0  0
 16 17  3  0  0  0
 17  7  1  0  0  0
  7  8  1  0  0  0
  8  9  2  0  0  0
  9 10  1  0  0  0
 10 11  1  0  0  0
 11  1  1  0  0  0
  1  2  2  0  0  0
  2  3  1  0  0  0
  3 35  1  0  0  0
 35 37  1  0  0  0
 37 38  2  0  0  0
 38 39  1  0  0  0
 39 40  2  0  0  0
 40 41  1  0  0  0
 41 42  2  0  0  0
  3  4  2  0  0  0
  4 18  1  0  0  0
 18 19  2  0  0  0
 18 20  1  0  0  0
 20 22  1  0  0  0
 22 23  1  0  0  0
 23 24  1  0  0  0
 24 25  1  0  0  0
 25 28  1  0  0  0
 28 29  1  0  0  0
 29 30  2  0  0  0
 29 32  1  0  0  0
 32 33  1  0  0  0
 33 34  1  0  0  0
 25 26  1  0  0  0
 26 27  1  0  0  0
  4  5  1  0  0  0
  5  6  2  0  0  0
 11 12  2  0  0  0
 12 13  1  0  0  0
 13 14  2  0  0  0
 14 15  1  0  0  0
 15  7  2  0  0  0
 14 10  1  0  0  0
  6  1  1  0  0  0
 42 37  1  0  0  0
 27 22  1  0  0  0
 34 32  1  0  0  0
 35 36  1  0  0  0
 20 21  1  0  0  0
 28 31  1  0  0  0
M  END
> <minimizedAffinity>
23.24659

> <CNNscore>
0.4016463161

> <CNNaffinity>
6.7379827499

> <CNN_VS>
2.7062859535

> <CNNaffinity_variance>
0.6995411515

$$$$
[H]c1nc([H])c(N([H])c2c([H])c(-c3c([H])c([H])c4c([H])c(C#N)c([H])nn34)nc([H])c2C(=O)N([H])[C@]2([H])C([H])([H])C([H])([H])[C@@]([H])(N([H])C(=O)C3([H])C([H])([H])C3([H])[H])C([H])([H])C2([H])[H])c([H])c1[H]


 42 47  0  0  0  0  0  0  0  0999 V2000
   28.7266    5.2731   61.7990 C   0  0  0  0  0  0  0  0  0  0  0  0
   28.0351    6.0463   60.9150 C   0  0  0  0  0  0  0  0  0  0  0  0
   28.3491    7.3462   60.5286 C   0  0  0  0  0  0  0  0  0  0  0  0
   29.4921    7.9000   61.1143 C   0  0  0  0  0  0  0  0  0  0  0  0
   30.2121    7.1162   62.0279 C   0  0  0  0  0  0  0  0  0  0  0  0
   29.8333    5.8738   62.3385 N   0  0  0  0  0  0  0  0  0  0  0  0
   25.0096    1.7789   62.8341 C   0  0  0  0  0  0  0  0  0  0  0  0
   24.8972    3.0864   62.4383 C   0  0  0  0  0  0  0  0  0  0  0  0
   26.0110    3.7908   62.2283 N   0  0  0  0  0  0  0  0  0  0  0  0
   27.2325    3.3045   62.3782 N   0  0  0  0  0  0  0  0  0  0  0  0
   28.4000    3.9113   62.2003 C   0  0  0  0  0  0  0  0  0  0  0  0
   29.3751    2.9492   62.4948 C   0  0  0  0  0  0  0  0  0  0  0  0
   28.7442    1.7814   62.8440 C   0  0  0  0  0  0  0  0  0  0  0  0
   27.3740    2.0265   62.7640 C   0  0  0  0  0  0  0  0  0  0  0  0
   26.2685    1.2433   62.9982 C   0  0  0  0  0  0  0  0  0  0  0  0
   22.8665    0.3878   63.2550 N   0  0  0  0  0  0  0  0  0  0  0  0
   23.8240    1.0136   63.0683 C   0  0  0  0  0  0  0  0  0  0  0  0
   29.9907    9.1968   60.7383 C   0  0  0  0  0  0  0  0  0  0  0  0
   30.8155    9.2966   59.7647 O   0  0  0  0  0  0  0  0  0  0  0  0
   29.6235   10.3938   61.3814 N   0  0  0  0  0  0  0  0  0  0  0  0
   28.9512   10.3678   62.1694 H   0  0  0  0  0  0  0  0  0  0  0  0
   30.2041   11.6408   60.9073 C   0  0  0  0  0  0  0  0  0  0  0  0
   29.0852   12.6850   60.9736 C   0  0  0  0  0  0  0  0  0  0  0  0
   29.6813   14.0589   60.6892 C   0  0  0  0  0  0  0  0  0  0  0  0
   30.4719   14.4242   61.9543 C   0  0  0  0  0  0  0  0  0  0  0  0
   30.9713   13.2069   62.6518 C   0  0  0  0  0  0  0  0  0  0  0  0
   31.3926   12.1161   61.6529 C   0  0  0  0  0  0  0  0  0  0  0  0
   31.5882   15.2531   61.5235 N   0  0  0  0  0  0  0  0  0  0  0  0
   31.4988   15.9642   60.3090 C   0  0  0  0  0  0  0  0  0  0  0  0
   30.4480   15.8730   59.5934 O   0  0  0  0  0  0  0  0  0  0  0  0
   32.4433   15.3283   62.1001 H   0  0  0  0  0  0  0  0  0  0  0  0
   32.6104   16.8170   59.8508 C   0  0  0  0  0  0  0  0  0  0  0  0
   32.9381   18.0541   60.5619 C   0  0  0  0  0  0  0  0  0  0  0  0
   32.1106   18.1775   59.3248 C   0  0  0  0  0  0  0  0  0  0  0  0
   27.4757    8.0605   59.7073 N   0  0  0  0  0  0  0  0  0  0  0  0
   26.4438    8.0055   59.8475 H   0  0  0  0  0  0  0  0  0  0  0  0
   27.8882    8.8499   58.6144 C   0  0  0  0  0  0  0  0  0  0  0  0
   28.0583    8.3678   57.3099 C   0  0  0  0  0  0  0  0  0  0  0  0
   28.4641    9.1841   56.2860 C   0  0  0  0  0  0  0  0  0  0  0  0
   28.7113   10.5114   56.5451 C   0  0  0  0  0  0  0  0  0  0  0  0
   28.5592   11.0069   57.7849 N   0  0  0  0  0  0  0  0  0  0  0  0
   28.1636   10.2094   58.7776 C   0  0  0  0  0  0  0  0  0  0  0  0
 16 17  3  0  0  0
 17  7  1  0  0  0
  7  8  1  0  0  0
  8  9  2  0  0  0
  9 10  1  0  0  0
 10 11  1  0  0  0
 11  1  1  0  0  0
  1  2  2  0  0  0
  2  3  1  0  0  0
  3 35  1  0  0  0
 35 37  1  0  0  0
 37 38  2  0  0  0
 38 39  1  0  0  0
 39 40  2  0  0  0
 40 41  1  0  0  0
 41 42  2  0  0  0
  3  4  2  0  0  0
  4 18  1  0  0  0
 18 19  2  0  0  0
 18 20  1  0  0  0
 20 22  1  0  0  0
 22 23  1  0  0  0
 23 24  1  0  0  0
 24 25  1  0  0  0
 25 28  1  0  0  0
 28 29  1  0  0  0
 29 30  2  0  0  0
 29 32  1  0  0  0
 32 33  1  0  0  0
 33 34  1  0  0  0
 25 26  1  0  0  0
 26 27  1  0  0  0
  4  5  1  0  0  0
  5  6  2  0  0  0
 11 12  2  0  0  0
 12 13  1  0  0  0
 13 14  2  0  0  0
 14 15  1  0  0  0
 15  7  2  0  0  0
 14 10  1  0  0  0
  6  1  1  0  0  0
 42 37  1  0  0  0
 27 22  1  0  0  0
 34 32  1  0  0  0
 35 36  1  0  0  0
 20 21  1  0  0  0
 28 31  1  0  0  0
M  END
> <minimizedAffinity>
15.75256

> <CNNscore>
0.3952337205

> <CNNaffinity>
6.2267770767

> <CNN_VS>
2.4610321522

> <CNNaffinity_variance>
0.1046544909

$$$$
[H]c1nc([H])c(N([H])c2c([H])c(-c3c([H])c([H])c4c([H])c(C#N)c([H])nn34)nc([H])c2C(=O)N([H])[C@]2([H])C([H])([H])C([H])([H])[C@@]([H])(N([H])C(=O)C3([H])C([H])([H])C3([H])[H])C([H])([H])C2([H])[H])c([H])c1[H]


 42 47  0  0  0  0  0  0  0  0999 V2000
   21.5939    5.6166   53.9851 C   0  0  0  0  0  0  0  0  0  0  0  0
   21.3714    6.9609   54.0132 C   0  0  0  0  0  0  0  0  0  0  0  0
   22.2624    7.9396   54.4447 C   0  0  0  0  0  0  0  0  0  0  0  0
   23.5067    7.4816   54.8900 C   0  0  0  0  0  0  0  0  0  0  0  0
   23.7484    6.1001   54.8686 C   0  0  0  0  0  0  0  0  0  0  0  0
   22.8294    5.2331   54.4358 N   0  0  0  0  0  0  0  0  0  0  0  0
   16.6400    4.0827   53.5358 C   0  0  0  0  0  0  0  0  0  0  0  0
   17.1553    5.2347   54.0707 C   0  0  0  0  0  0  0  0  0  0  0  0
   18.4787    5.4060   54.0698 N   0  0  0  0  0  0  0  0  0  0  0  0
   19.3376    4.5266   53.5800 N   0  0  0  0  0  0  0  0  0  0  0  0
   20.6627    4.5930   53.5298 C   0  0  0  0  0  0  0  0  0  0  0  0
   21.0781    3.4033   52.9171 C   0  0  0  0  0  0  0  0  0  0  0  0
   19.9668    2.6557   52.6177 C   0  0  0  0  0  0  0  0  0  0  0  0
   18.8621    3.3892   53.0486 C   0  0  0  0  0  0  0  0  0  0  0  0
   17.5090    3.1476   53.0171 C   0  0  0  0  0  0  0  0  0  0  0  0
   14.0759    3.7208   53.5276 N   0  0  0  0  0  0  0  0  0  0  0  0
   15.2234    3.8833   53.5352 C   0  0  0  0  0  0  0  0  0  0  0  0
   24.5596    8.3844   55.2744 C   0  0  0  0  0  0  0  0  0  0  0  0
   24.2621    9.5530   55.7036 O   0  0  0  0  0  0  0  0  0  0  0  0
   25.9285    8.0631   55.2119 N   0  0  0  0  0  0  0  0  0  0  0  0
   26.2212    7.1263   54.8802 H   0  0  0  0  0  0  0  0  0  0  0  0
   26.8953    9.0688   55.6255 C   0  0  0  0  0  0  0  0  0  0  0  0
   26.1075   10.1188   56.4151 C   0  0  0  0  0  0  0  0  0  0  0  0
   27.0929   11.0906   57.0542 C   0  0  0  0  0  0  0  0  0  0  0  0
   27.7387   10.3085   58.2076 C   0  0  0  0  0  0  0  0  0  0  0  0
   27.7686    8.8472   57.9219 C   0  0  0  0  0  0  0  0  0  0  0  0
   28.0321    8.5681   56.4326 C   0  0  0  0  0  0  0  0  0  0  0  0
   29.0928   10.8224   58.3532 N   0  0  0  0  0  0  0  0  0  0  0  0
   29.6867   10.8658   59.6316 C   0  0  0  0  0  0  0  0  0  0  0  0
   29.0355   10.4630   60.6505 O   0  0  0  0  0  0  0  0  0  0  0  0
   29.6238   11.1520   57.5295 H   0  0  0  0  0  0  0  0  0  0  0  0
   31.0589   11.3743   59.8086 C   0  0  0  0  0  0  0  0  0  0  0  0
   31.9667   10.7414   60.7671 C   0  0  0  0  0  0  0  0  0  0  0  0
   31.2682   11.9852   61.2088 C   0  0  0  0  0  0  0  0  0  0  0  0
   21.8488    9.2694   54.5343 N   0  0  0  0  0  0  0  0  0  0  0  0
   21.6016    9.6921   55.4550 H   0  0  0  0  0  0  0  0  0  0  0  0
   21.6776   10.1191   53.4223 C   0  0  0  0  0  0  0  0  0  0  0  0
   21.8287   11.5115   53.4601 C   0  0  0  0  0  0  0  0  0  0  0  0
   21.6473   12.2877   52.3447 C   0  0  0  0  0  0  0  0  0  0  0  0
   21.3077   11.6847   51.1569 C   0  0  0  0  0  0  0  0  0  0  0  0
   21.1537   10.3517   51.0851 N   0  0  0  0  0  0  0  0  0  0  0  0
   21.3319    9.6006   52.1724 C   0  0  0  0  0  0  0  0  0  0  0  0
 16 17  3  0  0  0
 17  7  1  0  0  0
  7  8  1  0  0  0
  8  9  2  0  0  0
  9 10  1  0  0  0
 10 11  1  0  0  0
 11  1  1  0  0  0
  1  2  2  0  0  0
  2  3  1  0  0  0
  3 35  1  0  0  0
 35 37  1  0  0  0
 37 38  2  0  0  0
 38 39  1  0  0  0
 39 40  2  0  0  0
 40 41  1  0  0  0
 41 42  2  0  0  0
  3  4  2  0  0  0
  4 18  1  0  0  0
 18 19  2  0  0  0
 18 20  1  0  0  0
 20 22  1  0  0  0
 22 23  1  0  0  0
 23 24  1  0  0  0
 24 25  1  0  0  0
 25 28  1  0  0  0
 28 29  1  0  0  0
 29 30  2  0  0  0
 29 32  1  0  0  0
 32 33  1  0  0  0
 33 34  1  0  0  0
 25 26  1  0  0  0
 26 27  1  0  0  0
  4  5  1  0  0  0
  5  6  2  0  0  0
 11 12  2  0  0  0
 12 13  1  0  0  0
 13 14  2  0  0  0
 14 15  1  0  0  0
 15  7  2  0  0  0
 14 10  1  0  0  0
  6  1  1  0  0  0
 42 37  1  0  0  0
 27 22  1  0  0  0
 34 32  1  0  0  0
 35 36  1  0  0  0
 20 21  1  0  0  0
 28 31  1  0  0  0
M  END
> <minimizedAffinity>
32.07640

> <CNNscore>
0.3511125147

> <CNNaffinity>
6.9332275391

> <CNN_VS>
2.4343428612

> <CNNaffinity_variance>
0.5277495980

$$$$
[H]c1c([H])c([H])c(N2C(N3C([H])([H])C([H])([H])C([H])([H])C([H])([H])C3([H])[H])=Nc3c([H])c([H])c([H])c([H])c3C2([H])C([H])([H])C(=O)N([H])C([H])([H])c2c([H])c([H])c([H])c([H])c2[H])c([H])c1[H]


 34 38  0  0  0  0  0  0  0  0999 V2000
   26.3510    8.8247   54.4484 C   0  0  0  0  0  0  0  0  0  0  0  0
   27.1042    8.9433   55.7010 C   0  0  0  0  0  0  0  0  0  0  0  0
   28.4251    8.5744   55.8547 C   0  0  0  0  0  0  0  0  0  0  0  0
   29.0754    8.8646   57.0510 C   0  0  0  0  0  0  0  0  0  0  0  0
   28.4424    9.5067   58.0872 C   0  0  0  0  0  0  0  0  0  0  0  0
   27.1309    9.8734   57.9494 C   0  0  0  0  0  0  0  0  0  0  0  0
   26.4564    9.5841   56.7439 C   0  0  0  0  0  0  0  0  0  0  0  0
   25.0490    9.7986   56.7103 N   0  0  0  0  0  0  0  0  0  0  0  0
   24.3427    9.3787   55.7009 C   0  0  0  0  0  0  0  0  0  0  0  0
   24.9537    8.6368   54.6569 N   0  0  0  0  0  0  0  0  0  0  0  0
   22.9387    9.6330   55.7262 N   0  0  0  0  0  0  0  0  0  0  0  0
   22.4765   10.9538   55.4227 C   0  0  0  0  0  0  0  0  0  0  0  0
   21.1802   10.8980   54.5926 C   0  0  0  0  0  0  0  0  0  0  0  0
   20.2071   10.0790   55.4106 C   0  0  0  0  0  0  0  0  0  0  0  0
   20.6941    8.6735   55.4649 C   0  0  0  0  0  0  0  0  0  0  0  0
   22.0743    8.5238   56.0509 C   0  0  0  0  0  0  0  0  0  0  0  0
   24.1874    7.7492   53.8683 C   0  0  0  0  0  0  0  0  0  0  0  0
   24.2563    6.3802   53.9979 C   0  0  0  0  0  0  0  0  0  0  0  0
   23.4967    5.5511   53.2079 C   0  0  0  0  0  0  0  0  0  0  0  0
   22.6343    6.0370   52.2538 C   0  0  0  0  0  0  0  0  0  0  0  0
   22.5689    7.4078   52.1278 C   0  0  0  0  0  0  0  0  0  0  0  0
   23.3163    8.2481   52.9041 C   0  0  0  0  0  0  0  0  0  0  0  0
   26.9677    8.1448   53.2998 C   0  0  0  0  0  0  0  0  0  0  0  0
   28.5792    9.8256   52.8011 O   0  0  0  0  0  0  0  0  0  0  0  0
   27.7111    9.0223   52.3717 C   0  0  0  0  0  0  0  0  0  0  0  0
   27.4812    8.9989   50.9639 N   0  0  0  0  0  0  0  0  0  0  0  0
   26.7728    8.3550   50.5334 H   0  0  0  0  0  0  0  0  0  0  0  0
   28.2270    9.8723   50.0928 C   0  0  0  0  0  0  0  0  0  0  0  0
   28.5245    9.2594   48.7772 C   0  0  0  0  0  0  0  0  0  0  0  0
   29.0828    8.0071   48.7298 C   0  0  0  0  0  0  0  0  0  0  0  0
   29.3790    7.3861   47.5180 C   0  0  0  0  0  0  0  0  0  0  0  0
   29.1078    8.0390   46.3317 C   0  0  0  0  0  0  0  0  0  0  0  0
   28.5410    9.3103   46.3845 C   0  0  0  0  0  0  0  0  0  0  0  0
   28.2515    9.9159   47.6041 C   0  0  0  0  0  0  0  0  0  0  0  0
 24 25  2  0  0  0
 25 23  1  0  0  0
 23  1  1  0  0  0
  1  2  1  0  0  0
  2  3  2  0  0  0
  3  4  1  0  0  0
  4  5  2  0  0  0
  5  6  1  0  0  0
  6  7  2  0  0  0
  7  8  1  0  0  0
  8  9  2  0  0  0
  9 11  1  0  0  0
 11 12  1  0  0  0
 12 13  1  0  0  0
 13 14  1  0  0  0
 14 15  1  0  0  0
 15 16  1  0  0  0
  9 10  1  0  0  0
 10 17  1  0  0  0
 17 18  2  0  0  0
 18 19  1  0  0  0
 19 20  2  0  0  0
 20 21  1  0  0  0
 21 22  2  0  0  0
 25 26  1  0  0  0
 26 28  1  0  0  0
 28 29  1  0  0  0
 29 30  2  0  0  0
 30 31  1  0  0  0
 31 32  2  0  0  0
 32 33  1  0  0  0
 33 34  2  0  0  0
 10  1  1  0  0  0
 22 17  1  0  0  0
 34 29  1  0  0  0
  7  2  1  0  0  0
 16 11  1  0  0  0
 26 27  1  0  0  0
M  END
> <minimizedAffinity>
31.23833

> <CNNscore>
0.5970482826

> <CNNaffinity>
6.4344291687

> <CNN_VS>
3.8416647911

> <CNNaffinity_variance>
0.2941842973

$$$$
[H]c1c([H])c([H])c(N2C(N3C([H])([H])C([H])([H])C([H])([H])C([H])([H])C3([H])[H])=Nc3c([H])c([H])c([H])c([H])c3C2([H])C([H])([H])C(=O)N([H])C([H])([H])c2c([H])c([H])c([H])c([H])c2[H])c([H])c1[H]


 34 38  0  0  0  0  0  0  0  0999 V2000
   24.2054    7.9102   55.0847 C   0  0  0  0  0  0  0  0  0  0  0  0
   23.0472    8.7783   55.3196 C   0  0  0  0  0  0  0  0  0  0  0  0
   21.8333    8.6503   54.6758 C   0  0  0  0  0  0  0  0  0  0  0  0
   20.7630    9.4423   55.0828 C   0  0  0  0  0  0  0  0  0  0  0  0
   20.8769   10.3509   56.1065 C   0  0  0  0  0  0  0  0  0  0  0  0
   22.0769   10.4912   56.7499 C   0  0  0  0  0  0  0  0  0  0  0  0
   23.1726    9.6977   56.3476 C   0  0  0  0  0  0  0  0  0  0  0  0
   24.4477   10.0093   56.9000 N   0  0  0  0  0  0  0  0  0  0  0  0
   25.5234    9.4440   56.4337 C   0  0  0  0  0  0  0  0  0  0  0  0
   25.4481    8.5671   55.3205 N   0  0  0  0  0  0  0  0  0  0  0  0
   26.7680    9.7945   57.0372 N   0  0  0  0  0  0  0  0  0  0  0  0
   27.2785   11.1170   56.8355 C   0  0  0  0  0  0  0  0  0  0  0  0
   27.9394   11.6460   58.1224 C   0  0  0  0  0  0  0  0  0  0  0  0
   28.9967   10.6278   58.4860 C   0  0  0  0  0  0  0  0  0  0  0  0
   28.3229    9.3628   58.8875 C   0  0  0  0  0  0  0  0  0  0  0  0
   27.4264    8.7805   57.8255 C   0  0  0  0  0  0  0  0  0  0  0  0
   26.5737    8.3698   54.4893 C   0  0  0  0  0  0  0  0  0  0  0  0
   27.7778    7.8936   54.9575 C   0  0  0  0  0  0  0  0  0  0  0  0
   28.8504    7.7197   54.1162 C   0  0  0  0  0  0  0  0  0  0  0  0
   28.7821    8.0086   52.7739 C   0  0  0  0  0  0  0  0  0  0  0  0
   27.5751    8.4850   52.3100 C   0  0  0  0  0  0  0  0  0  0  0  0
   26.4976    8.6644   53.1312 C   0  0  0  0  0  0  0  0  0  0  0  0
   24.1524    6.9174   54.0014 C   0  0  0  0  0  0  0  0  0  0  0  0
   23.0640    6.4442   51.9369 O   0  0  0  0  0  0  0  0  0  0  0  0
   23.2616    7.2611   52.8735 C   0  0  0  0  0  0  0  0  0  0  0  0
   22.5932    8.5190   52.7960 N   0  0  0  0  0  0  0  0  0  0  0  0
   22.7098    9.2501   53.5401 H   0  0  0  0  0  0  0  0  0  0  0  0
   21.7334    8.8155   51.6777 C   0  0  0  0  0  0  0  0  0  0  0  0
   21.5099   10.2681   51.4903 C   0  0  0  0  0  0  0  0  0  0  0  0
   21.8770   11.1386   52.4850 C   0  0  0  0  0  0  0  0  0  0  0  0
   21.6905   12.5136   52.3564 C   0  0  0  0  0  0  0  0  0  0  0  0
   21.1233   13.0211   51.2040 C   0  0  0  0  0  0  0  0  0  0  0  0
   20.7520   12.1336   50.1966 C   0  0  0  0  0  0  0  0  0  0  0  0
   20.9456   10.7627   50.3419 C   0  0  0  0  0  0  0  0  0  0  0  0
 24 25  2  0  0  0
 25 23  1  0  0  0
 23  1  1  0  0  0
  1  2  1  0  0  0
  2  3  2  0  0  0
  3  4  1  0  0  0
  4  5  2  0  0  0
  5  6  1  0  0  0
  6  7  2  0  0  0
  7  8  1  0  0  0
  8  9  2  0  0  0
  9 11  1  0  0  0
 11 12  1  0  0  0
 12 13  1  0  0  0
 13 14  1  0  0  0
 14 15  1  0  0  0
 15 16  1  0  0  0
  9 10  1  0  0  0
 10 17  1  0  0  0
 17 18  2  0  0  0
 18 19  1  0  0  0
 19 20  2  0  0  0
 20 21  1  0  0  0
 21 22  2  0  0  0
 25 26  1  0  0  0
 26 28  1  0  0  0
 28 29  1  0  0  0
 29 30  2  0  0  0
 30 31  1  0  0  0
 31 32  2  0  0  0
 32 33  1  0  0  0
 33 34  2  0  0  0
 10  1  1  0  0  0
 22 17  1  0  0  0
 34 29  1  0  0  0
  7  2  1  0  0  0
 16 11  1  0  0  0
 26 27  1  0  0  0
M  END
> <minimizedAffinity>
38.33515

> <CNNscore>
0.5051354766

> <CNNaffinity>
6.4783792496

> <CNN_VS>
3.2724592686

> <CNNaffinity_variance>
0.5801341534

$$$$
[H]c1c([H])c([H])c(N2C(N3C([H])([H])C([H])([H])C([H])([H])C([H])([H])C3([H])[H])=Nc3c([H])c([H])c([H])c([H])c3C2([H])C([H])([H])C(=O)N([H])C([H])([H])c2c([H])c([H])c([H])c([H])c2[H])c([H])c1[H]


 34 38  0  0  0  0  0  0  0  0999 V2000
   21.3832    8.6892   52.8554 C   0  0  0  0  0  0  0  0  0  0  0  0
   21.3829    9.9753   52.1509 C   0  0  0  0  0  0  0  0  0  0  0  0
   20.5457   10.2883   51.0995 C   0  0  0  0  0  0  0  0  0  0  0  0
   20.5387   11.5887   50.6021 C   0  0  0  0  0  0  0  0  0  0  0  0
   21.3417   12.5729   51.1247 C   0  0  0  0  0  0  0  0  0  0  0  0
   22.1803   12.2742   52.1644 C   0  0  0  0  0  0  0  0  0  0  0  0
   22.2014   10.9600   52.6784 C   0  0  0  0  0  0  0  0  0  0  0  0
   23.2213   10.6383   53.6189 N   0  0  0  0  0  0  0  0  0  0  0  0
   23.4122    9.4045   53.9871 C   0  0  0  0  0  0  0  0  0  0  0  0
   22.6570    8.3558   53.4010 N   0  0  0  0  0  0  0  0  0  0  0  0
   24.4454    9.1519   54.9385 N   0  0  0  0  0  0  0  0  0  0  0  0
   25.4605    8.1970   54.6097 C   0  0  0  0  0  0  0  0  0  0  0  0
   26.8356    8.6698   55.1179 C   0  0  0  0  0  0  0  0  0  0  0  0
   26.6648    8.8988   56.6029 C   0  0  0  0  0  0  0  0  0  0  0  0
   25.7560   10.0600   56.8053 C   0  0  0  0  0  0  0  0  0  0  0  0
   24.3971    9.8936   56.1756 C   0  0  0  0  0  0  0  0  0  0  0  0
   23.1690    7.0392   53.3679 C   0  0  0  0  0  0  0  0  0  0  0  0
   23.7868    6.5021   52.2609 C   0  0  0  0  0  0  0  0  0  0  0  0
   24.2678    5.2148   52.2682 C   0  0  0  0  0  0  0  0  0  0  0  0
   24.1601    4.3994   53.3699 C   0  0  0  0  0  0  0  0  0  0  0  0
   23.5410    4.9414   54.4754 C   0  0  0  0  0  0  0  0  0  0  0  0
   23.0565    6.2192   54.4869 C   0  0  0  0  0  0  0  0  0  0  0  0
   20.5490    7.5903   52.3471 C   0  0  0  0  0  0  0  0  0  0  0  0
   19.6655    7.1165   54.5072 O   0  0  0  0  0  0  0  0  0  0  0  0
   20.0081    6.6798   53.3778 C   0  0  0  0  0  0  0  0  0  0  0  0
   19.8516    5.2815   53.1424 N   0  0  0  0  0  0  0  0  0  0  0  0
   20.1158    4.8458   52.2247 H   0  0  0  0  0  0  0  0  0  0  0  0
   19.3211    4.4272   54.1751 C   0  0  0  0  0  0  0  0  0  0  0  0
   17.9953    3.8616   53.8325 C   0  0  0  0  0  0  0  0  0  0  0  0
   17.9189    2.8162   52.9474 C   0  0  0  0  0  0  0  0  0  0  0  0
   16.6967    2.2473   52.5945 C   0  0  0  0  0  0  0  0  0  0  0  0
   15.5296    2.7410   53.1435 C   0  0  0  0  0  0  0  0  0  0  0  0
   15.6119    3.8026   54.0416 C   0  0  0  0  0  0  0  0  0  0  0  0
   16.8416    4.3589   54.3830 C   0  0  0  0  0  0  0  0  0  0  0  0
 24 25  2  0  0  0
 25 23  1  0  0  0
 23  1  1  0  0  0
  1  2  1  0  0  0
  2  3  2  0  0  0
  3  4  1  0  0  0
  4  5  2  0  0  0
  5  6  1  0  0  0
  6  7  2  0  0  0
  7  8  1  0  0  0
  8  9  2  0  0  0
  9 11  1  0  0  0
 11 12  1  0  0  0
 12 13  1  0  0  0
 13 14  1  0  0  0
 14 15  1  0  0  0
 15 16  1  0  0  0
  9 10  1  0  0  0
 10 17  1  0  0  0
 17 18  2  0  0  0
 18 19  1  0  0  0
 19 20  2  0  0  0
 20 21  1  0  0  0
 21 22  2  0  0  0
 25 26  1  0  0  0
 26 28  1  0  0  0
 28 29  1  0  0  0
 29 30  2  0  0  0
 30 31  1  0  0  0
 31 32  2  0  0  0
 32 33  1  0  0  0
 33 34  2  0  0  0
 10  1  1  0  0  0
 22 17  1  0  0  0
 34 29  1  0  0  0
  7  2  1  0  0  0
 16 11  1  0  0  0
 26 27  1  0  0  0
M  END
> <minimizedAffinity>
38.93875

> <CNNscore>
0.4944635034

> <CNNaffinity>
6.3769297600

> <CNN_VS>
3.1531591415

> <CNNaffinity_variance>
0.6527147293

$$$$
[H]c1c([H])c([H])c(N2C(N3C([H])([H])C([H])([H])C([H])([H])C([H])([H])C3([H])[H])=Nc3c([H])c([H])c([H])c([H])c3C2([H])C([H])([H])C(=O)N([H])C([H])([H])c2c([H])c([H])c([H])c([H])c2[H])c([H])c1[H]


 34 38  0  0  0  0  0  0  0  0999 V2000
   24.2869    8.0527   54.5577 C   0  0  0  0  0  0  0  0  0  0  0  0
   23.1925    9.0084   54.3594 C   0  0  0  0  0  0  0  0  0  0  0  0
   22.2238    8.8932   53.3833 C   0  0  0  0  0  0  0  0  0  0  0  0
   21.1542    9.7844   53.3809 C   0  0  0  0  0  0  0  0  0  0  0  0
   21.0323   10.7787   54.3206 C   0  0  0  0  0  0  0  0  0  0  0  0
   21.9889   10.9068   55.2911 C   0  0  0  0  0  0  0  0  0  0  0  0
   23.0811   10.0131   55.3059 C   0  0  0  0  0  0  0  0  0  0  0  0
   24.1516   10.2981   56.2009 N   0  0  0  0  0  0  0  0  0  0  0  0
   25.2641    9.6260   56.1321 C   0  0  0  0  0  0  0  0  0  0  0  0
   25.4526    8.6523   55.1172 N   0  0  0  0  0  0  0  0  0  0  0  0
   26.2937    9.9565   57.0634 N   0  0  0  0  0  0  0  0  0  0  0  0
   26.7641    8.9386   57.9538 C   0  0  0  0  0  0  0  0  0  0  0  0
   28.2885    9.0478   58.1463 C   0  0  0  0  0  0  0  0  0  0  0  0
   28.5377   10.4565   58.6364 C   0  0  0  0  0  0  0  0  0  0  0  0
   28.2160   11.4079   57.5379 C   0  0  0  0  0  0  0  0  0  0  0  0
   26.7995   11.3079   57.0336 C   0  0  0  0  0  0  0  0  0  0  0  0
   26.7550    8.3077   54.6910 C   0  0  0  0  0  0  0  0  0  0  0  0
   27.0750    7.0684   54.1836 C   0  0  0  0  0  0  0  0  0  0  0  0
   28.3559    6.7717   53.7838 C   0  0  0  0  0  0  0  0  0  0  0  0
   29.3791    7.6861   53.8673 C   0  0  0  0  0  0  0  0  0  0  0  0
   29.0539    8.9250   54.3758 C   0  0  0  0  0  0  0  0  0  0  0  0
   27.7862    9.2384   54.7784 C   0  0  0  0  0  0  0  0  0  0  0  0
   24.4773    6.9653   53.5865 C   0  0  0  0  0  0  0  0  0  0  0  0
   23.9353    4.8128   54.4490 O   0  0  0  0  0  0  0  0  0  0  0  0
   23.5813    5.8026   53.7572 C   0  0  0  0  0  0  0  0  0  0  0  0
   22.2901    5.7498   53.1530 N   0  0  0  0  0  0  0  0  0  0  0  0
   21.9270    6.5379   52.5624 H   0  0  0  0  0  0  0  0  0  0  0  0
   21.4471    4.5961   53.3433 C   0  0  0  0  0  0  0  0  0  0  0  0
   20.0179    4.9470   53.5146 C   0  0  0  0  0  0  0  0  0  0  0  0
   19.1121    3.9569   53.7999 C   0  0  0  0  0  0  0  0  0  0  0  0
   17.7577    4.2352   53.9729 C   0  0  0  0  0  0  0  0  0  0  0  0
   17.3073    5.5355   53.8562 C   0  0  0  0  0  0  0  0  0  0  0  0
   18.2304    6.5376   53.5663 C   0  0  0  0  0  0  0  0  0  0  0  0
   19.5801    6.2416   53.3966 C   0  0  0  0  0  0  0  0  0  0  0  0
 24 25  2  0  0  0
 25 23  1  0  0  0
 23  1  1  0  0  0
  1  2  1  0  0  0
  2  3  2  0  0  0
  3  4  1  0  0  0
  4  5  2  0  0  0
  5  6  1  0  0  0
  6  7  2  0  0  0
  7  8  1  0  0  0
  8  9  2  0  0  0
  9 11  1  0  0  0
 11 12  1  0  0  0
 12 13  1  0  0  0
 13 14  1  0  0  0
 14 15  1  0  0  0
 15 16  1  0  0  0
  9 10  1  0  0  0
 10 17  1  0  0  0
 17 18  2  0  0  0
 18 19  1  0  0  0
 19 20  2  0  0  0
 20 21  1  0  0  0
 21 22  2  0  0  0
 25 26  1  0  0  0
 26 28  1  0  0  0
 28 29  1  0  0  0
 29 30  2  0  0  0
 30 31  1  0  0  0
 31 32  2  0  0  0
 32 33  1  0  0  0
 33 34  2  0  0  0
 10  1  1  0  0  0
 22 17  1  0  0  0
 34 29  1  0  0  0
  7  2  1  0  0  0
 16 11  1  0  0  0
 26 27  1  0  0  0
M  END
> <minimizedAffinity>
35.78945

> <CNNscore>
0.4616492689

> <CNNaffinity>
6.3549594879

> <CNN_VS>
2.9337623119

> <CNNaffinity_variance>
0.5612915754

$$$$
[H]c1c([H])c([H])c(N2C(N3C([H])([H])C([H])([H])C([H])([H])C([H])([H])C3([H])[H])=Nc3c([H])c([H])c([H])c([H])c3C2([H])C([H])([H])C(=O)N([H])C([H])([H])c2c([H])c([H])c([H])c([H])c2[H])c([H])c1[H]


 34 38  0  0  0  0  0  0  0  0999 V2000
   26.0697    8.8598   53.8682 C   0  0  0  0  0  0  0  0  0  0  0  0
   26.9761    8.8134   55.0200 C   0  0  0  0  0  0  0  0  0  0  0  0
   28.2916    8.4008   54.9610 C   0  0  0  0  0  0  0  0  0  0  0  0
   29.0953    8.5336   56.0900 C   0  0  0  0  0  0  0  0  0  0  0  0
   28.6193    9.0622   57.2650 C   0  0  0  0  0  0  0  0  0  0  0  0
   27.3149    9.4705   57.3383 C   0  0  0  0  0  0  0  0  0  0  0  0
   26.4862    9.3402   56.2033 C   0  0  0  0  0  0  0  0  0  0  0  0
   25.0941    9.5872   56.3741 N   0  0  0  0  0  0  0  0  0  0  0  0
   24.2534    9.3046   55.4214 C   0  0  0  0  0  0  0  0  0  0  0  0
   24.7030    8.6784   54.2300 N   0  0  0  0  0  0  0  0  0  0  0  0
   22.8735    9.5841   55.6543 N   0  0  0  0  0  0  0  0  0  0  0  0
   22.4205   10.9378   55.5418 C   0  0  0  0  0  0  0  0  0  0  0  0
   21.0275   10.9915   54.8867 C   0  0  0  0  0  0  0  0  0  0  0  0
   20.1404   10.1156   55.7426 C   0  0  0  0  0  0  0  0  0  0  0  0
   20.5832    8.7019   55.5980 C   0  0  0  0  0  0  0  0  0  0  0  0
   22.0213    8.4663   55.9814 C   0  0  0  0  0  0  0  0  0  0  0  0
   23.8134    7.9069   53.4491 C   0  0  0  0  0  0  0  0  0  0  0  0
   22.8378    8.4638   52.6530 C   0  0  0  0  0  0  0  0  0  0  0  0
   21.9891    7.6774   51.9114 C   0  0  0  0  0  0  0  0  0  0  0  0
   22.0658    6.3048   51.9227 C   0  0  0  0  0  0  0  0  0  0  0  0
   23.0438    5.7521   52.7211 C   0  0  0  0  0  0  0  0  0  0  0  0
   23.8966    6.5176   53.4654 C   0  0  0  0  0  0  0  0  0  0  0  0
   26.5143    8.3073   52.5802 C   0  0  0  0  0  0  0  0  0  0  0  0
   28.5876    9.4787   52.5880 O   0  0  0  0  0  0  0  0  0  0  0  0
   27.6116    9.0463   51.9217 C   0  0  0  0  0  0  0  0  0  0  0  0
   27.6146    9.2999   50.5178 N   0  0  0  0  0  0  0  0  0  0  0  0
   26.8344    8.9698   49.8980 H   0  0  0  0  0  0  0  0  0  0  0  0
   28.7039   10.0260   49.9144 C   0  0  0  0  0  0  0  0  0  0  0  0
   28.2504   11.1839   49.1091 C   0  0  0  0  0  0  0  0  0  0  0  0
   29.0117   11.6044   48.0482 C   0  0  0  0  0  0  0  0  0  0  0  0
   28.6277   12.6863   47.2583 C   0  0  0  0  0  0  0  0  0  0  0  0
   27.4547   13.3573   47.5427 C   0  0  0  0  0  0  0  0  0  0  0  0
   26.6848   12.9271   48.6209 C   0  0  0  0  0  0  0  0  0  0  0  0
   27.0836   11.8441   49.3996 C   0  0  0  0  0  0  0  0  0  0  0  0
 24 25  2  0  0  0
 25 23  1  0  0  0
 23  1  1  0  0  0
  1  2  1  0  0  0
  2  3  2  0  0  0
  3  4  1  0  0  0
  4  5  2  0  0  0
  5  6  1  0  0  0
  6  7  2  0  0  0
  7  8  1  0  0  0
  8  9  2  0  0  0
  9 11  1  0  0  0
 11 12  1  0  0  0
 12 13  1  0  0  0
 13 14  1  0  0  0
 14 15  1  0  0  0
 15 16  1  0  0  0
  9 10  1  0  0  0
 10 17  1  0  0  0
 17 18  2  0  0  0
 18 19  1  0  0  0
 19 20  2  0  0  0
 20 21  1  0  0  0
 21 22  2  0  0  0
 25 26  1  0  0  0
 26 28  1  0  0  0
 28 29  1  0  0  0
 29 30  2  0  0  0
 30 31  1  0  0  0
 31 32  2  0  0  0
 32 33  1  0  0  0
 33 34  2  0  0  0
 10  1  1  0  0  0
 22 17  1  0  0  0
 34 29  1  0  0  0
  7  2  1  0  0  0
 16 11  1  0  0  0
 26 27  1  0  0  0
M  END
> <minimizedAffinity>
37.23096

> <CNNscore>
0.4557537735

> <CNNaffinity>
6.0876512527

> <CNN_VS>
2.7744700909

> <CNNaffinity_variance>
0.4530841410

$$$$
[H]c1c([H])c([H])c(N2C(N3C([H])([H])C([H])([H])C([H])([H])C([H])([H])C3([H])[H])=Nc3c([H])c([H])c([H])c([H])c3C2([H])C([H])([H])C(=O)N([H])C([H])([H])c2c([H])c([H])c([H])c([H])c2[H])c([H])c1[H]


 34 38  0  0  0  0  0  0  0  0999 V2000
   23.1157    7.3930   53.4263 C   0  0  0  0  0  0  0  0  0  0  0  0
   22.4488    8.5900   52.9039 C   0  0  0  0  0  0  0  0  0  0  0  0
   23.0396    9.8337   52.8104 C   0  0  0  0  0  0  0  0  0  0  0  0
   22.3564   10.8623   52.1674 C   0  0  0  0  0  0  0  0  0  0  0  0
   21.1088   10.6793   51.6228 C   0  0  0  0  0  0  0  0  0  0  0  0
   20.5097    9.4520   51.7132 C   0  0  0  0  0  0  0  0  0  0  0  0
   21.1878    8.3993   52.3643 C   0  0  0  0  0  0  0  0  0  0  0  0
   20.4580    7.2021   52.6136 N   0  0  0  0  0  0  0  0  0  0  0  0
   20.9605    6.2700   53.3704 C   0  0  0  0  0  0  0  0  0  0  0  0
   22.2086    6.4657   54.0167 N   0  0  0  0  0  0  0  0  0  0  0  0
   20.1805    5.0923   53.5732 N   0  0  0  0  0  0  0  0  0  0  0  0
   18.9278    5.2098   54.2567 C   0  0  0  0  0  0  0  0  0  0  0  0
   17.8739    4.2831   53.6219 C   0  0  0  0  0  0  0  0  0  0  0  0
   18.4713    2.8946   53.6677 C   0  0  0  0  0  0  0  0  0  0  0  0
   19.6375    2.8462   52.7441 C   0  0  0  0  0  0  0  0  0  0  0  0
   20.7132    3.8531   53.0596 C   0  0  0  0  0  0  0  0  0  0  0  0
   22.5182    5.7596   55.2009 C   0  0  0  0  0  0  0  0  0  0  0  0
   23.6061    4.9232   55.3130 C   0  0  0  0  0  0  0  0  0  0  0  0
   23.8700    4.2509   56.4822 C   0  0  0  0  0  0  0  0  0  0  0  0
   23.0708    4.3745   57.5939 C   0  0  0  0  0  0  0  0  0  0  0  0
   21.9832    5.2126   57.4769 C   0  0  0  0  0  0  0  0  0  0  0  0
   21.7046    5.8893   56.3228 C   0  0  0  0  0  0  0  0  0  0  0  0
   24.4519    7.5182   54.0269 C   0  0  0  0  0  0  0  0  0  0  0  0
   23.6275    9.3156   55.3538 O   0  0  0  0  0  0  0  0  0  0  0  0
   24.6215    8.6534   54.9578 C   0  0  0  0  0  0  0  0  0  0  0  0
   25.9042    9.0454   55.4438 N   0  0  0  0  0  0  0  0  0  0  0  0
   26.7785    8.5402   55.1573 H   0  0  0  0  0  0  0  0  0  0  0  0
   26.0266   10.1598   56.3499 C   0  0  0  0  0  0  0  0  0  0  0  0
   27.1253    9.9898   57.3293 C   0  0  0  0  0  0  0  0  0  0  0  0
   27.8004   11.0955   57.7808 C   0  0  0  0  0  0  0  0  0  0  0  0
   28.8392   10.9893   58.7036 C   0  0  0  0  0  0  0  0  0  0  0  0
   29.2047    9.7459   59.1804 C   0  0  0  0  0  0  0  0  0  0  0  0
   28.5166    8.6260   58.7193 C   0  0  0  0  0  0  0  0  0  0  0  0
   27.4811    8.7504   57.7971 C   0  0  0  0  0  0  0  0  0  0  0  0
 24 25  2  0  0  0
 25 23  1  0  0  0
 23  1  1  0  0  0
  1  2  1  0  0  0
  2  3  2  0  0  0
  3  4  1  0  0  0
  4  5  2  0  0  0
  5  6  1  0  0  0
  6  7  2  0  0  0
  7  8  1  0  0  0
  8  9  2  0  0  0
  9 11  1  0  0  0
 11 12  1  0  0  0
 12 13  1  0  0  0
 13 14  1  0  0  0
 14 15  1  0  0  0
 15 16  1  0  0  0
  9 10  1  0  0  0
 10 17  1  0  0  0
 17 18  2  0  0  0
 18 19  1  0  0  0
 19 20  2  0  0  0
 20 21  1  0  0  0
 21 22  2  0  0  0
 25 26  1  0  0  0
 26 28  1  0  0  0
 28 29  1  0  0  0
 29 30  2  0  0  0
 30 31  1  0  0  0
 31 32  2  0  0  0
 32 33  1  0  0  0
 33 34  2  0  0  0
 10  1  1  0  0  0
 22 17  1  0  0  0
 34 29  1  0  0  0
  7  2  1  0  0  0
 16 11  1  0  0  0
 26 27  1  0  0  0
M  END
> <minimizedAffinity>
38.24947

> <CNNscore>
0.3442654908

> <CNNaffinity>
6.2038259506

> <CNN_VS>
2.1357631683

> <CNNaffinity_variance>
0.6832979321

$$$$
[H]c1c([H])c([H])c(N2C(N3C([H])([H])C([H])([H])C([H])([H])C([H])([H])C3([H])[H])=Nc3c([H])c([H])c([H])c([H])c3C2([H])C([H])([H])C(=O)N([H])C([H])([H])c2c([H])c([H])c([H])c([H])c2[H])c([H])c1[H]


 34 38  0  0  0  0  0  0  0  0999 V2000
   24.5144    7.9822   55.0601 C   0  0  0  0  0  0  0  0  0  0  0  0
   23.4157    8.9444   54.9277 C   0  0  0  0  0  0  0  0  0  0  0  0
   22.3130    8.7623   54.1182 C   0  0  0  0  0  0  0  0  0  0  0  0
   21.2667    9.6786   54.1815 C   0  0  0  0  0  0  0  0  0  0  0  0
   21.2972   10.7622   55.0250 C   0  0  0  0  0  0  0  0  0  0  0  0
   22.3874   10.9569   55.8294 C   0  0  0  0  0  0  0  0  0  0  0  0
   23.4578   10.0387   55.7753 C   0  0  0  0  0  0  0  0  0  0  0  0
   24.6516   10.3789   56.4732 N   0  0  0  0  0  0  0  0  0  0  0  0
   25.7329    9.6726   56.3118 C   0  0  0  0  0  0  0  0  0  0  0  0
   25.7575    8.6004   55.3826 N   0  0  0  0  0  0  0  0  0  0  0  0
   26.8922   10.0628   57.0468 N   0  0  0  0  0  0  0  0  0  0  0  0
   27.3143   11.4297   56.9850 C   0  0  0  0  0  0  0  0  0  0  0  0
   27.8228   11.9036   58.3595 C   0  0  0  0  0  0  0  0  0  0  0  0
   28.9213   10.9378   58.7430 C   0  0  0  0  0  0  0  0  0  0  0  0
   28.3159    9.6012   58.9929 C   0  0  0  0  0  0  0  0  0  0  0  0
   27.5587    9.0403   57.8170 C   0  0  0  0  0  0  0  0  0  0  0  0
   26.9786    8.1800   54.8092 C   0  0  0  0  0  0  0  0  0  0  0  0
   28.1406    8.9131   54.8977 C   0  0  0  0  0  0  0  0  0  0  0  0
   29.3074    8.4706   54.3221 C   0  0  0  0  0  0  0  0  0  0  0  0
   29.3790    7.2833   53.6326 C   0  0  0  0  0  0  0  0  0  0  0  0
   28.2134    6.5531   53.5467 C   0  0  0  0  0  0  0  0  0  0  0  0
   27.0439    6.9769   54.1125 C   0  0  0  0  0  0  0  0  0  0  0  0
   24.5457    6.8011   54.1850 C   0  0  0  0  0  0  0  0  0  0  0  0
   23.0733    6.5352   52.3323 O   0  0  0  0  0  0  0  0  0  0  0  0
   23.2512    6.4339   53.5739 C   0  0  0  0  0  0  0  0  0  0  0  0
   22.1577    5.9537   54.3542 N   0  0  0  0  0  0  0  0  0  0  0  0
   22.2322    5.8429   55.3953 H   0  0  0  0  0  0  0  0  0  0  0  0
   20.9107    5.6075   53.7192 C   0  0  0  0  0  0  0  0  0  0  0  0
   20.4345    6.6466   52.7766 C   0  0  0  0  0  0  0  0  0  0  0  0
   21.2916    7.1313   51.8213 C   0  0  0  0  0  0  0  0  0  0  0  0
   20.8916    8.1067   50.9099 C   0  0  0  0  0  0  0  0  0  0  0  0
   19.6039    8.6030   50.9620 C   0  0  0  0  0  0  0  0  0  0  0  0
   18.7371    8.1081   51.9335 C   0  0  0  0  0  0  0  0  0  0  0  0
   19.1535    7.1335   52.8363 C   0  0  0  0  0  0  0  0  0  0  0  0
 24 25  2  0  0  0
 25 23  1  0  0  0
 23  1  1  0  0  0
  1  2  1  0  0  0
  2  3  2  0  0  0
  3  4  1  0  0  0
  4  5  2  0  0  0
  5  6  1  0  0  0
  6  7  2  0  0  0
  7  8  1  0  0  0
  8  9  2  0  0  0
  9 11  1  0  0  0
 11 12  1  0  0  0
 12 13  1  0  0  0
 13 14  1  0  0  0
 14 15  1  0  0  0
 15 16  1  0  0  0
  9 10  1  0  0  0
 10 17  1  0  0  0
 17 18  2  0  0  0
 18 19  1  0  0  0
 19 20  2  0  0  0
 20 21  1  0  0  0
 21 22  2  0  0  0
 25 26  1  0  0  0
 26 28  1  0  0  0
 28 29  1  0  0  0
 29 30  2  0  0  0
 30 31  1  0  0  0
 31 32  2  0  0  0
 32 33  1  0  0  0
 33 34  2  0  0  0
 10  1  1  0  0  0
 22 17  1  0  0  0
 34 29  1  0  0  0
  7  2  1  0  0  0
 16 11  1  0  0  0
 26 27  1  0  0  0
M  END
> <minimizedAffinity>
32.25623

> <CNNscore>
0.3319541812

> <CNNaffinity>
6.1245102882

> <CNN_VS>
2.0330567360

> <CNNaffinity_variance>
0.5405091643

$$$$
[H]c1c([H])c([H])c(N2C(N3C([H])([H])C([H])([H])C([H])([H])C([H])([H])C3([H])[H])=Nc3c([H])c([H])c([H])c([H])c3C2([H])C([H])([H])C(=O)N([H])C([H])([H])c2c([H])c([H])c([H])c([H])c2[H])c([H])c1[H]


 34 38  0  0  0  0  0  0  0  0999 V2000
   24.5202    7.1888   53.4504 C   0  0  0  0  0  0  0  0  0  0  0  0
   25.8591    7.4494   53.9888 C   0  0  0  0  0  0  0  0  0  0  0  0
   26.7975    6.4725   54.2522 C   0  0  0  0  0  0  0  0  0  0  0  0
   28.0834    6.8512   54.6281 C   0  0  0  0  0  0  0  0  0  0  0  0
   28.4490    8.1698   54.7473 C   0  0  0  0  0  0  0  0  0  0  0  0
   27.5262    9.1484   54.4939 C   0  0  0  0  0  0  0  0  0  0  0  0
   26.2174    8.7812   54.1143 C   0  0  0  0  0  0  0  0  0  0  0  0
   25.2369    9.8122   54.0536 N   0  0  0  0  0  0  0  0  0  0  0  0
   23.9793    9.5166   53.8950 C   0  0  0  0  0  0  0  0  0  0  0  0
   23.5603    8.1614   53.8553 N   0  0  0  0  0  0  0  0  0  0  0  0
   23.0496   10.5975   53.8346 N   0  0  0  0  0  0  0  0  0  0  0  0
   22.9050   11.3083   52.6000 C   0  0  0  0  0  0  0  0  0  0  0  0
   21.4296   11.6766   52.3551 C   0  0  0  0  0  0  0  0  0  0  0  0
   20.9986   12.4643   53.5719 C   0  0  0  0  0  0  0  0  0  0  0  0
   20.9810   11.5530   54.7486 C   0  0  0  0  0  0  0  0  0  0  0  0
   22.3056   10.8941   55.0352 C   0  0  0  0  0  0  0  0  0  0  0  0
   22.2380    7.8119   54.2104 C   0  0  0  0  0  0  0  0  0  0  0  0
   21.8997    7.3190   55.4506 C   0  0  0  0  0  0  0  0  0  0  0  0
   20.6014    6.9868   55.7550 C   0  0  0  0  0  0  0  0  0  0  0  0
   19.5781    7.1266   54.8475 C   0  0  0  0  0  0  0  0  0  0  0  0
   19.9217    7.6203   53.6076 C   0  0  0  0  0  0  0  0  0  0  0  0
   21.2069    7.9560   53.2867 C   0  0  0  0  0  0  0  0  0  0  0  0
   24.0632    5.7994   53.3001 C   0  0  0  0  0  0  0  0  0  0  0  0
   21.8867    6.0302   52.3618 O   0  0  0  0  0  0  0  0  0  0  0  0
   22.5973    5.6124   53.3126 C   0  0  0  0  0  0  0  0  0  0  0  0
   21.9292    4.9577   54.3897 N   0  0  0  0  0  0  0  0  0  0  0  0
   22.4560    4.5831   55.2166 H   0  0  0  0  0  0  0  0  0  0  0  0
   20.4970    4.7967   54.3638 C   0  0  0  0  0  0  0  0  0  0  0  0
   20.0512    3.7425   53.4231 C   0  0  0  0  0  0  0  0  0  0  0  0
   20.2052    2.4239   53.7691 C   0  0  0  0  0  0  0  0  0  0  0  0
   19.7999    1.3952   52.9210 C   0  0  0  0  0  0  0  0  0  0  0  0
   19.2287    1.7006   51.7013 C   0  0  0  0  0  0  0  0  0  0  0  0
   19.0743    3.0407   51.3540 C   0  0  0  0  0  0  0  0  0  0  0  0
   19.4849    4.0559   52.2137 C   0  0  0  0  0  0  0  0  0  0  0  0
 24 25  2  0  0  0
 25 23  1  0  0  0
 23  1  1  0  0  0
  1  2  1  0  0  0
  2  3  2  0  0  0
  3  4  1  0  0  0
  4  5  2  0  0  0
  5  6  1  0  0  0
  6  7  2  0  0  0
  7  8  1  0  0  0
  8  9  2  0  0  0
  9 11  1  0  0  0
 11 12  1  0  0  0
 12 13  1  0  0  0
 13 14  1  0  0  0
 14 15  1  0  0  0
 15 16  1  0  0  0
  9 10  1  0  0  0
 10 17  1  0  0  0
 17 18  2  0  0  0
 18 19  1  0  0  0
 19 20  2  0  0  0
 20 21  1  0  0  0
 21 22  2  0  0  0
 25 26  1  0  0  0
 26 28  1  0  0  0
 28 29  1  0  0  0
 29 30  2  0  0  0
 30 31  1  0  0  0
 31 32  2  0  0  0
 32 33  1  0  0  0
 33 34  2  0  0  0
 10  1  1  0  0  0
 22 17  1  0  0  0
 34 29  1  0  0  0
  7  2  1  0  0  0
 16 11  1  0  0  0
 26 27  1  0  0  0
M  END
> <minimizedAffinity>
65.13322

> <CNNscore>
0.2875396013

> <CNNaffinity>
5.9089198112

> <CNN_VS>
1.6990483999

> <CNNaffinity_variance>
0.6395618320

$$$$
[H]c1c([H])c([H])c(N2C(N3C([H])([H])C([H])([H])C([H])([H])C([H])([H])C3([H])[H])=Nc3c([H])c([H])c([H])c([H])c3C2([H])C([H])([H])C(=O)N([H])C([H])([H])c2c([H])c([H])c([H])c([H])c2[H])c([H])c1[H]


 34 38  0  0  0  0  0  0  0  0999 V2000
   23.1377    8.3324   53.5303 C   0  0  0  0  0  0  0  0  0  0  0  0
   22.5365    9.2556   54.4981 C   0  0  0  0  0  0  0  0  0  0  0  0
   23.2007   10.3151   55.0817 C   0  0  0  0  0  0  0  0  0  0  0  0
   22.4872   11.2074   55.8774 C   0  0  0  0  0  0  0  0  0  0  0  0
   21.1396   11.0659   56.1024 C   0  0  0  0  0  0  0  0  0  0  0  0
   20.4700   10.0165   55.5335 C   0  0  0  0  0  0  0  0  0  0  0  0
   21.1793    9.1014   54.7263 C   0  0  0  0  0  0  0  0  0  0  0  0
   20.4976    7.9198   54.3175 N   0  0  0  0  0  0  0  0  0  0  0  0
   21.1462    6.9536   53.7345 C   0  0  0  0  0  0  0  0  0  0  0  0
   22.5529    7.0331   53.5658 N   0  0  0  0  0  0  0  0  0  0  0  0
   20.4017    5.8008   53.3430 N   0  0  0  0  0  0  0  0  0  0  0  0
   21.1058    4.6924   52.7720 C   0  0  0  0  0  0  0  0  0  0  0  0
   20.5124    3.3595   53.2661 C   0  0  0  0  0  0  0  0  0  0  0  0
   19.0449    3.4076   52.9048 C   0  0  0  0  0  0  0  0  0  0  0  0
   18.3844    4.4560   53.7295 C   0  0  0  0  0  0  0  0  0  0  0  0
   18.9756    5.8320   53.5625 C   0  0  0  0  0  0  0  0  0  0  0  0
   23.3252    5.8562   53.4424 C   0  0  0  0  0  0  0  0  0  0  0  0
   23.4724    4.9451   54.4642 C   0  0  0  0  0  0  0  0  0  0  0  0
   24.2363    3.8139   54.3049 C   0  0  0  0  0  0  0  0  0  0  0  0
   24.8897    3.5315   53.1286 C   0  0  0  0  0  0  0  0  0  0  0  0
   24.7393    4.4464   52.1091 C   0  0  0  0  0  0  0  0  0  0  0  0
   23.9840    5.5766   52.2487 C   0  0  0  0  0  0  0  0  0  0  0  0
   24.5771    8.4260   53.2452 C   0  0  0  0  0  0  0  0  0  0  0  0
   25.2600    6.8858   54.9281 O   0  0  0  0  0  0  0  0  0  0  0  0
   25.4670    7.9767   54.3361 C   0  0  0  0  0  0  0  0  0  0  0  0
   26.5877    8.7497   54.7625 N   0  0  0  0  0  0  0  0  0  0  0  0
   26.8226    9.6699   54.3155 H   0  0  0  0  0  0  0  0  0  0  0  0
   27.4306    8.2761   55.8316 C   0  0  0  0  0  0  0  0  0  0  0  0
   27.7730    9.3352   56.8095 C   0  0  0  0  0  0  0  0  0  0  0  0
   28.2064    8.9794   58.0616 C   0  0  0  0  0  0  0  0  0  0  0  0
   28.5432    9.9370   59.0162 C   0  0  0  0  0  0  0  0  0  0  0  0
   28.4414   11.2783   58.7036 C   0  0  0  0  0  0  0  0  0  0  0  0
   28.0008   11.6351   57.4312 C   0  0  0  0  0  0  0  0  0  0  0  0
   27.6685   10.6650   56.4896 C   0  0  0  0  0  0  0  0  0  0  0  0
 24 25  2  0  0  0
 25 23  1  0  0  0
 23  1  1  0  0  0
  1  2  1  0  0  0
  2  3  2  0  0  0
  3  4  1  0  0  0
  4  5  2  0  0  0
  5  6  1  0  0  0
  6  7  2  0  0  0
  7  8  1  0  0  0
  8  9  2  0  0  0
  9 11  1  0  0  0
 11 12  1  0  0  0
 12 13  1  0  0  0
 13 14  1  0  0  0
 14 15  1  0  0  0
 15 16  1  0  0  0
  9 10  1  0  0  0
 10 17  1  0  0  0
 17 18  2  0  0  0
 18 19  1  0  0  0
 19 20  2  0  0  0
 20 21  1  0  0  0
 21 22  2  0  0  0
 25 26  1  0  0  0
 26 28  1  0  0  0
 28 29  1  0  0  0
 29 30  2  0  0  0
 30 31  1  0  0  0
 31 32  2  0  0  0
 32 33  1  0  0  0
 33 34  2  0  0  0
 10  1  1  0  0  0
 22 17  1  0  0  0
 34 29  1  0  0  0
  7  2  1  0  0  0
 16 11  1  0  0  0
 26 27  1  0  0  0
M  END
> <minimizedAffinity>
41.52441

> <CNNscore>
0.2216524333

> <CNNaffinity>
6.0013656616

> <CNN_VS>
1.3302173615

> <CNNaffinity_variance>
0.6895904541

$$$$
[H]c1c([H])c([H])c(C([H])(N2C([H])([H])C([H])([H])N(C([H])([H])C#N)C([H])([H])C2([H])[H])C([H])([H])OC([H])([H])c2c([H])c(C(F)(F)F)c([H])c(C(F)(F)F)c2[H])c([H])c1[H]


 33 35  0  0  0  0  0  0  0  0999 V2000
   23.1322    9.6950   55.2897 C   0  0  0  0  0  0  0  0  0  0  0  0
   24.0700    8.5810   55.6121 C   0  0  0  0  0  0  0  0  0  0  0  0
   27.9470    9.7829   56.7240 N   0  0  0  0  0  0  0  0  0  0  0  0
   27.7639    9.1124   55.4880 C   0  0  0  0  0  0  0  0  0  0  0  0
   26.4861    8.2779   55.4862 C   0  0  0  0  0  0  0  0  0  0  0  0
   25.3681    9.0549   55.8737 N   0  0  0  0  0  0  0  0  0  0  0  0
   25.5080    9.9097   56.9998 C   0  0  0  0  0  0  0  0  0  0  0  0
   26.8547    9.6752   57.6298 C   0  0  0  0  0  0  0  0  0  0  0  0
   29.2508    9.8234   57.2720 C   0  0  0  0  0  0  0  0  0  0  0  0
   29.1335   10.9889   59.6487 N   0  0  0  0  0  0  0  0  0  0  0  0
   29.1964   10.4692   58.5933 C   0  0  0  0  0  0  0  0  0  0  0  0
   23.9732    7.5381   54.5602 C   0  0  0  0  0  0  0  0  0  0  0  0
   23.4319    6.2877   54.7618 C   0  0  0  0  0  0  0  0  0  0  0  0
   23.3962    5.3316   53.7650 C   0  0  0  0  0  0  0  0  0  0  0  0
   23.9047    5.5854   52.5130 C   0  0  0  0  0  0  0  0  0  0  0  0
   24.4501    6.8368   52.2903 C   0  0  0  0  0  0  0  0  0  0  0  0
   24.4794    7.7831   53.2989 C   0  0  0  0  0  0  0  0  0  0  0  0
   22.3298   10.1238   56.3439 O   0  0  0  0  0  0  0  0  0  0  0  0
   21.1708   10.6149   55.6907 C   0  0  0  0  0  0  0  0  0  0  0  0
   21.1669   10.4127   54.2554 C   0  0  0  0  0  0  0  0  0  0  0  0
   21.3745   11.5110   53.3917 C   0  0  0  0  0  0  0  0  0  0  0  0
   21.3880   11.3904   52.0358 C   0  0  0  0  0  0  0  0  0  0  0  0
   21.1936   10.1563   51.4665 C   0  0  0  0  0  0  0  0  0  0  0  0
   20.9895    9.0763   52.2923 C   0  0  0  0  0  0  0  0  0  0  0  0
   20.9733    9.1834   53.6849 C   0  0  0  0  0  0  0  0  0  0  0  0
   21.6056   12.5517   51.1218 C   0  0  0  0  0  0  0  0  0  0  0  0
   21.3063   12.2509   49.8369 F   0  0  0  0  0  0  0  0  0  0  0  0
   22.9319   12.9244   51.2895 F   0  0  0  0  0  0  0  0  0  0  0  0
   20.8493   13.5999   51.6227 F   0  0  0  0  0  0  0  0  0  0  0  0
   20.7943    7.7526   51.6192 C   0  0  0  0  0  0  0  0  0  0  0  0
   21.8414    7.5181   50.7181 F   0  0  0  0  0  0  0  0  0  0  0  0
   20.8524    6.7962   52.5993 F   0  0  0  0  0  0  0  0  0  0  0  0
   19.6138    7.6772   50.9099 F   0  0  0  0  0  0  0  0  0  0  0  0
 10 11  3  0  0  0
 11  9  1  0  0  0
  9  3  1  0  0  0
  3  4  1  0  0  0
  4  5  1  0  0  0
  5  6  1  0  0  0
  6  2  1  0  0  0
  2  1  1  0  0  0
  1 18  1  0  0  0
 18 19  1  0  0  0
 19 20  1  0  0  0
 20 21  2  0  0  0
 21 22  1  0  0  0
 22 26  1  0  0  0
 26 27  1  0  0  0
 26 28  1  0  0  0
 26 29  1  0  0  0
 22 23  2  0  0  0
 23 24  1  0  0  0
 24 30  1  0  0  0
 30 31  1  0  0  0
 30 32  1  0  0  0
 30 33  1  0  0  0
 24 25  2  0  0  0
  2 12  1  0  0  0
 12 13  2  0  0  0
 13 14  1  0  0  0
 14 15  2  0  0  0
 15 16  1  0  0  0
 16 17  2  0  0  0
  6  7  1  0  0  0
  7  8  1  0  0  0
  8  3  1  0  0  0
 25 20  1  0  0  0
 17 12  1  0  0  0
M  END
> <minimizedAffinity>
16.23980

> <CNNscore>
0.4045234025

> <CNNaffinity>
5.9438486099

> <CNN_VS>
2.4044258595

> <CNNaffinity_variance>
0.1366664171

$$$$
[H]c1c([H])c([H])c(C([H])(N2C([H])([H])C([H])([H])N(C([H])([H])C#N)C([H])([H])C2([H])[H])C([H])([H])OC([H])([H])c2c([H])c(C(F)(F)F)c([H])c(C(F)(F)F)c2[H])c([H])c1[H]


 33 35  0  0  0  0  0  0  0  0999 V2000
   23.6892   10.1588   55.2966 C   0  0  0  0  0  0  0  0  0  0  0  0
   24.1454    8.9161   54.6096 C   0  0  0  0  0  0  0  0  0  0  0  0
   22.2649    5.4570   56.0962 N   0  0  0  0  0  0  0  0  0  0  0  0
   21.6522    6.7177   56.3108 C   0  0  0  0  0  0  0  0  0  0  0  0
   22.6668    7.8552   56.2323 C   0  0  0  0  0  0  0  0  0  0  0  0
   23.4134    7.7917   55.0314 N   0  0  0  0  0  0  0  0  0  0  0  0
   23.9186    6.5271   54.6262 C   0  0  0  0  0  0  0  0  0  0  0  0
   23.6313    5.5158   55.7033 C   0  0  0  0  0  0  0  0  0  0  0  0
   21.8648    4.3750   56.9155 C   0  0  0  0  0  0  0  0  0  0  0  0
   23.9783    3.4998   58.2527 N   0  0  0  0  0  0  0  0  0  0  0  0
   23.0322    3.8825   57.6642 C   0  0  0  0  0  0  0  0  0  0  0  0
   25.6198    8.7993   54.7348 C   0  0  0  0  0  0  0  0  0  0  0  0
   26.4423    8.3192   53.7397 C   0  0  0  0  0  0  0  0  0  0  0  0
   27.8073    8.1903   53.9112 C   0  0  0  0  0  0  0  0  0  0  0  0
   28.4147    8.5380   55.0947 C   0  0  0  0  0  0  0  0  0  0  0  0
   27.6055    9.0249   56.1052 C   0  0  0  0  0  0  0  0  0  0  0  0
   26.2403    9.1471   55.9185 C   0  0  0  0  0  0  0  0  0  0  0  0
   22.6807    9.9830   56.2406 O   0  0  0  0  0  0  0  0  0  0  0  0
   21.5852   10.6883   55.6804 C   0  0  0  0  0  0  0  0  0  0  0  0
   21.4796   10.5745   54.2393 C   0  0  0  0  0  0  0  0  0  0  0  0
   21.2805    9.3071   53.6484 C   0  0  0  0  0  0  0  0  0  0  0  0
   21.1678    9.1302   52.3033 C   0  0  0  0  0  0  0  0  0  0  0  0
   21.2486   10.2189   51.4708 C   0  0  0  0  0  0  0  0  0  0  0  0
   21.4427   11.4602   52.0289 C   0  0  0  0  0  0  0  0  0  0  0  0
   21.5597   11.6583   53.4066 C   0  0  0  0  0  0  0  0  0  0  0  0
   20.9592    7.7898   51.6777 C   0  0  0  0  0  0  0  0  0  0  0  0
   20.6325    7.8851   50.3680 F   0  0  0  0  0  0  0  0  0  0  0  0
   19.9740    7.1675   52.4314 F   0  0  0  0  0  0  0  0  0  0  0  0
   22.1201    7.0640   51.8946 F   0  0  0  0  0  0  0  0  0  0  0  0
   21.5118   12.6137   51.0761 C   0  0  0  0  0  0  0  0  0  0  0  0
   20.9146   12.2614   49.8585 F   0  0  0  0  0  0  0  0  0  0  0  0
   20.7807   13.6317   51.6313 F   0  0  0  0  0  0  0  0  0  0  0  0
   22.8041   13.0111   50.8032 F   0  0  0  0  0  0  0  0  0  0  0  0
 10 11  3  0  0  0
 11  9  1  0  0  0
  9  3  1  0  0  0
  3  4  1  0  0  0
  4  5  1  0  0  0
  5  6  1  0  0  0
  6  2  1  0  0  0
  2  1  1  0  0  0
  1 18  1  0  0  0
 18 19  1  0  0  0
 19 20  1  0  0  0
 20 21  2  0  0  0
 21 22  1  0  0  0
 22 26  1  0  0  0
 26 27  1  0  0  0
 26 28  1  0  0  0
 26 29  1  0  0  0
 22 23  2  0  0  0
 23 24  1  0  0  0
 24 30  1  0  0  0
 30 31  1  0  0  0
 30 32  1  0  0  0
 30 33  1  0  0  0
 24 25  2  0  0  0
  2 12  1  0  0  0
 12 13  2  0  0  0
 13 14  1  0  0  0
 14 15  2  0  0  0
 15 16  1  0  0  0
 16 17  2  0  0  0
  6  7  1  0  0  0
  7  8  1  0  0  0
  8  3  1  0  0  0
 25 20  1  0  0  0
 17 12  1  0  0  0
M  END
> <minimizedAffinity>
14.93785

> <CNNscore>
0.4044659734

> <CNNaffinity>
6.2359423637

> <CNN_VS>
2.5222265720

> <CNNaffinity_variance>
0.2345016897

$$$$
[H]c1c([H])c([H])c(C([H])(N2C([H])([H])C([H])([H])N(C([H])([H])C#N)C([H])([H])C2([H])[H])C([H])([H])OC([H])([H])c2c([H])c(C(F)(F)F)c([H])c(C(F)(F)F)c2[H])c([H])c1[H]


 33 35  0  0  0  0  0  0  0  0999 V2000
   26.3373    7.7220   54.3830 C   0  0  0  0  0  0  0  0  0  0  0  0
   26.0841    9.0047   55.1006 C   0  0  0  0  0  0  0  0  0  0  0  0
   28.5796    9.8775   58.3751 N   0  0  0  0  0  0  0  0  0  0  0  0
   27.6005    8.8606   58.5098 C   0  0  0  0  0  0  0  0  0  0  0  0
   26.4625    9.0414   57.5090 C   0  0  0  0  0  0  0  0  0  0  0  0
   26.9584    9.1711   56.1896 N   0  0  0  0  0  0  0  0  0  0  0  0
   28.0686   10.0315   55.9760 C   0  0  0  0  0  0  0  0  0  0  0  0
   28.3922   10.7438   57.2618 C   0  0  0  0  0  0  0  0  0  0  0  0
   29.1252   10.4359   59.5552 C   0  0  0  0  0  0  0  0  0  0  0  0
   28.2065   12.9061   59.8288 N   0  0  0  0  0  0  0  0  0  0  0  0
   28.6244   11.8108   59.7117 C   0  0  0  0  0  0  0  0  0  0  0  0
   24.6390    9.1097   55.4229 C   0  0  0  0  0  0  0  0  0  0  0  0
   23.8394    8.0335   55.7389 C   0  0  0  0  0  0  0  0  0  0  0  0
   22.4886    8.1702   55.9950 C   0  0  0  0  0  0  0  0  0  0  0  0
   21.8727    9.3985   55.9456 C   0  0  0  0  0  0  0  0  0  0  0  0
   22.6598   10.4919   55.6327 C   0  0  0  0  0  0  0  0  0  0  0  0
   24.0108   10.3386   55.3778 C   0  0  0  0  0  0  0  0  0  0  0  0
   25.7927    7.6359   53.1042 O   0  0  0  0  0  0  0  0  0  0  0  0
   24.9024    6.5364   53.2040 C   0  0  0  0  0  0  0  0  0  0  0  0
   23.5034    6.8905   53.0694 C   0  0  0  0  0  0  0  0  0  0  0  0
   22.5070    5.9224   53.3247 C   0  0  0  0  0  0  0  0  0  0  0  0
   21.1761    6.1894   53.2220 C   0  0  0  0  0  0  0  0  0  0  0  0
   20.7669    7.4477   52.8561 C   0  0  0  0  0  0  0  0  0  0  0  0
   21.7233    8.4023   52.6032 C   0  0  0  0  0  0  0  0  0  0  0  0
   23.0924    8.1444   52.7047 C   0  0  0  0  0  0  0  0  0  0  0  0
   20.1219    5.1655   53.4900 C   0  0  0  0  0  0  0  0  0  0  0  0
   20.2151    4.1078   52.6512 F   0  0  0  0  0  0  0  0  0  0  0  0
   18.9089    5.8307   53.3802 F   0  0  0  0  0  0  0  0  0  0  0  0
   20.2418    4.8101   54.8245 F   0  0  0  0  0  0  0  0  0  0  0  0
   21.2216    9.7603   52.2191 C   0  0  0  0  0  0  0  0  0  0  0  0
   22.2623   10.5098   51.6547 F   0  0  0  0  0  0  0  0  0  0  0  0
   20.2617    9.5721   51.2589 F   0  0  0  0  0  0  0  0  0  0  0  0
   20.7301   10.4765   53.2905 F   0  0  0  0  0  0  0  0  0  0  0  0
 10 11  3  0  0  0
 11  9  1  0  0  0
  9  3  1  0  0  0
  3  4  1  0  0  0
  4  5  1  0  0  0
  5  6  1  0  0  0
  6  2  1  0  0  0
  2  1  1  0  0  0
  1 18  1  0  0  0
 18 19  1  0  0  0
 19 20  1  0  0  0
 20 21  2  0  0  0
 21 22  1  0  0  0
 22 26  1  0  0  0
 26 27  1  0  0  0
 26 28  1  0  0  0
 26 29  1  0  0  0
 22 23  2  0  0  0
 23 24  1  0  0  0
 24 30  1  0  0  0
 30 31  1  0  0  0
 30 32  1  0  0  0
 30 33  1  0  0  0
 24 25  2  0  0  0
  2 12  1  0  0  0
 12 13  2  0  0  0
 13 14  1  0  0  0
 14 15  2  0  0  0
 15 16  1  0  0  0
 16 17  2  0  0  0
  6  7  1  0  0  0
  7  8  1  0  0  0
  8  3  1  0  0  0
 25 20  1  0  0  0
 17 12  1  0  0  0
M  END
> <minimizedAffinity>
15.59448

> <CNNscore>
0.3838419616

> <CNNaffinity>
6.0419483185

> <CNN_VS>
2.3191533089

> <CNNaffinity_variance>
0.1860707104

$$$$
[H]c1c([H])c([H])c(C([H])(N2C([H])([H])C([H])([H])N(C([H])([H])C#N)C([H])([H])C2([H])[H])C([H])([H])OC([H])([H])c2c([H])c(C(F)(F)F)c([H])c(C(F)(F)F)c2[H])c([H])c1[H]


 33 35  0  0  0  0  0  0  0  0999 V2000
   21.5988    9.6096   55.5885 C   0  0  0  0  0  0  0  0  0  0  0  0
   20.7596    9.4010   54.3733 C   0  0  0  0  0  0  0  0  0  0  0  0
   20.4892    5.3017   53.4598 N   0  0  0  0  0  0  0  0  0  0  0  0
   20.1363    6.2511   52.4674 C   0  0  0  0  0  0  0  0  0  0  0  0
   19.7516    7.5924   53.0857 C   0  0  0  0  0  0  0  0  0  0  0  0
   20.7554    8.0533   53.9710 N   0  0  0  0  0  0  0  0  0  0  0  0
   21.3132    7.1236   54.8890 C   0  0  0  0  0  0  0  0  0  0  0  0
   20.5671    5.8208   54.7825 C   0  0  0  0  0  0  0  0  0  0  0  0
   20.0277    3.9733   53.3034 C   0  0  0  0  0  0  0  0  0  0  0  0
   17.5439    3.8000   54.2099 N   0  0  0  0  0  0  0  0  0  0  0  0
   18.6517    3.8796   53.8169 C   0  0  0  0  0  0  0  0  0  0  0  0
   21.1592   10.3760   53.3278 C   0  0  0  0  0  0  0  0  0  0  0  0
   21.4679   11.6943   53.5807 C   0  0  0  0  0  0  0  0  0  0  0  0
   21.7979   12.5795   52.5724 C   0  0  0  0  0  0  0  0  0  0  0  0
   21.8335   12.1826   51.2565 C   0  0  0  0  0  0  0  0  0  0  0  0
   21.5293   10.8614   50.9827 C   0  0  0  0  0  0  0  0  0  0  0  0
   21.1997    9.9875   52.0032 C   0  0  0  0  0  0  0  0  0  0  0  0
   22.5484   10.6235   55.4912 O   0  0  0  0  0  0  0  0  0  0  0  0
   23.6744   10.0787   56.1598 C   0  0  0  0  0  0  0  0  0  0  0  0
   24.4319    9.1283   55.3701 C   0  0  0  0  0  0  0  0  0  0  0  0
   25.8417    9.2095   55.3373 C   0  0  0  0  0  0  0  0  0  0  0  0
   26.6135    8.3465   54.6210 C   0  0  0  0  0  0  0  0  0  0  0  0
   26.0128    7.3488   53.8940 C   0  0  0  0  0  0  0  0  0  0  0  0
   24.6414    7.2554   53.9142 C   0  0  0  0  0  0  0  0  0  0  0  0
   23.8358    8.1323   54.6442 C   0  0  0  0  0  0  0  0  0  0  0  0
   28.1043    8.4331   54.5844 C   0  0  0  0  0  0  0  0  0  0  0  0
   28.6311    8.6582   55.8103 F   0  0  0  0  0  0  0  0  0  0  0  0
   28.4046    9.4413   53.6792 F   0  0  0  0  0  0  0  0  0  0  0  0
   28.5576    7.2566   54.0081 F   0  0  0  0  0  0  0  0  0  0  0  0
   24.0393    6.1422   53.1131 C   0  0  0  0  0  0  0  0  0  0  0  0
   25.0273    5.5323   52.3287 F   0  0  0  0  0  0  0  0  0  0  0  0
   23.5731    5.2153   54.0089 F   0  0  0  0  0  0  0  0  0  0  0  0
   23.0408    6.5687   52.2626 F   0  0  0  0  0  0  0  0  0  0  0  0
 10 11  3  0  0  0
 11  9  1  0  0  0
  9  3  1  0  0  0
  3  4  1  0  0  0
  4  5  1  0  0  0
  5  6  1  0  0  0
  6  2  1  0  0  0
  2  1  1  0  0  0
  1 18  1  0  0  0
 18 19  1  0  0  0
 19 20  1  0  0  0
 20 21  2  0  0  0
 21 22  1  0  0  0
 22 26  1  0  0  0
 26 27  1  0  0  0
 26 28  1  0  0  0
 26 29  1  0  0  0
 22 23  2  0  0  0
 23 24  1  0  0  0
 24 30  1  0  0  0
 30 31  1  0  0  0
 30 32  1  0  0  0
 30 33  1  0  0  0
 24 25  2  0  0  0
  2 12  1  0  0  0
 12 13  2  0  0  0
 13 14  1  0  0  0
 14 15  2  0  0  0
 15 16  1  0  0  0
 16 17  2  0  0  0
  6  7  1  0  0  0
  7  8  1  0  0  0
  8  3  1  0  0  0
 25 20  1  0  0  0
 17 12  1  0  0  0
M  END
> <minimizedAffinity>
15.08972

> <CNNscore>
0.3721767962

> <CNNaffinity>
6.2035160065

> <CNN_VS>
2.3088047504

> <CNNaffinity_variance>
0.8551036119

$$$$
[H]c1c([H])c([H])c(C([H])(N2C([H])([H])C([H])([H])N(C([H])([H])C#N)C([H])([H])C2([H])[H])C([H])([H])OC([H])([H])c2c([H])c(C(F)(F)F)c([H])c(C(F)(F)F)c2[H])c([H])c1[H]


 33 35  0  0  0  0  0  0  0  0999 V2000
   21.7109    9.4347   55.6012 C   0  0  0  0  0  0  0  0  0  0  0  0
   20.8074    9.2696   54.4262 C   0  0  0  0  0  0  0  0  0  0  0  0
   20.3998    5.1991   53.4377 N   0  0  0  0  0  0  0  0  0  0  0  0
   20.0381    6.1784   52.4780 C   0  0  0  0  0  0  0  0  0  0  0  0
   19.7096    7.5153   53.1369 C   0  0  0  0  0  0  0  0  0  0  0  0
   20.7545    7.9315   53.9964 N   0  0  0  0  0  0  0  0  0  0  0  0
   21.3189    6.9684   54.8751 C   0  0  0  0  0  0  0  0  0  0  0  0
   20.5360    5.6874   54.7675 C   0  0  0  0  0  0  0  0  0  0  0  0
   19.8989    3.8865   53.2699 C   0  0  0  0  0  0  0  0  0  0  0  0
   17.4357    3.7864   54.2412 N   0  0  0  0  0  0  0  0  0  0  0  0
   18.5328    3.8209   53.8132 C   0  0  0  0  0  0  0  0  0  0  0  0
   21.1742   10.2592   53.3824 C   0  0  0  0  0  0  0  0  0  0  0  0
   21.4592   11.5819   53.6402 C   0  0  0  0  0  0  0  0  0  0  0  0
   21.7588   12.4801   52.6339 C   0  0  0  0  0  0  0  0  0  0  0  0
   21.7862   12.0924   51.3150 C   0  0  0  0  0  0  0  0  0  0  0  0
   21.5055   10.7671   51.0362 C   0  0  0  0  0  0  0  0  0  0  0  0
   21.2063    9.8802   52.0548 C   0  0  0  0  0  0  0  0  0  0  0  0
   22.5758   10.5243   55.5407 O   0  0  0  0  0  0  0  0  0  0  0  0
   23.7356   10.0556   56.2091 C   0  0  0  0  0  0  0  0  0  0  0  0
   24.5525    9.1546   55.4207 C   0  0  0  0  0  0  0  0  0  0  0  0
   23.9381    8.1403   54.6535 C   0  0  0  0  0  0  0  0  0  0  0  0
   24.6451    7.2646   53.8876 C   0  0  0  0  0  0  0  0  0  0  0  0
   26.0143    7.3569   53.8472 C   0  0  0  0  0  0  0  0  0  0  0  0
   26.6290    8.3381   54.5883 C   0  0  0  0  0  0  0  0  0  0  0  0
   25.9180    9.2442   55.3785 C   0  0  0  0  0  0  0  0  0  0  0  0
   23.9959    6.1904   53.0775 C   0  0  0  0  0  0  0  0  0  0  0  0
   22.9879    6.6693   52.3122 F   0  0  0  0  0  0  0  0  0  0  0  0
   23.5692    5.2333   53.9874 F   0  0  0  0  0  0  0  0  0  0  0  0
   25.0004    5.5891   52.3353 F   0  0  0  0  0  0  0  0  0  0  0  0
   28.1228    8.4008   54.4987 C   0  0  0  0  0  0  0  0  0  0  0  0
   28.6214    7.1864   54.0090 F   0  0  0  0  0  0  0  0  0  0  0  0
   28.4254    9.3832   53.5920 F   0  0  0  0  0  0  0  0  0  0  0  0
   28.7267    8.6348   55.7165 F   0  0  0  0  0  0  0  0  0  0  0  0
 10 11  3  0  0  0
 11  9  1  0  0  0
  9  3  1  0  0  0
  3  4  1  0  0  0
  4  5  1  0  0  0
  5  6  1  0  0  0
  6  2  1  0  0  0
  2  1  1  0  0  0
  1 18  1  0  0  0
 18 19  1  0  0  0
 19 20  1  0  0  0
 20 21  2  0  0  0
 21 22  1  0  0  0
 22 26  1  0  0  0
 26 27  1  0  0  0
 26 28  1  0  0  0
 26 29  1  0  0  0
 22 23  2  0  0  0
 23 24  1  0  0  0
 24 30  1  0  0  0
 30 31  1  0  0  0
 30 32  1  0  0  0
 30 33  1  0  0  0
 24 25  2  0  0  0
  2 12  1  0  0  0
 12 13  2  0  0  0
 13 14  1  0  0  0
 14 15  2  0  0  0
 15 16  1  0  0  0
 16 17  2  0  0  0
  6  7  1  0  0  0
  7  8  1  0  0  0
  8  3  1  0  0  0
 25 20  1  0  0  0
 17 12  1  0  0  0
M  END
> <minimizedAffinity>
14.92712

> <CNNscore>
0.3653742671

> <CNNaffinity>
6.2118096352

> <CNN_VS>
2.2696354389

> <CNNaffinity_variance>
0.8764466047

$$$$
[H]c1c([H])c([H])c(C([H])(N2C([H])([H])C([H])([H])N(C([H])([H])C#N)C([H])([H])C2([H])[H])C([H])([H])OC([H])([H])c2c([H])c(C(F)(F)F)c([H])c(C(F)(F)F)c2[H])c([H])c1[H]


 33 35  0  0  0  0  0  0  0  0999 V2000
   23.6265    9.2814   56.1223 C   0  0  0  0  0  0  0  0  0  0  0  0
   24.2408    8.7047   54.8918 C   0  0  0  0  0  0  0  0  0  0  0  0
   22.2214    5.1899   53.7600 N   0  0  0  0  0  0  0  0  0  0  0  0
   23.4926    5.4639   53.1945 C   0  0  0  0  0  0  0  0  0  0  0  0
   23.8213    6.9533   53.2479 C   0  0  0  0  0  0  0  0  0  0  0  0
   23.6694    7.4631   54.5598 N   0  0  0  0  0  0  0  0  0  0  0  0
   22.5075    7.0930   55.2887 C   0  0  0  0  0  0  0  0  0  0  0  0
   21.5955    6.3018   54.3901 C   0  0  0  0  0  0  0  0  0  0  0  0
   21.3878    4.2556   53.1012 C   0  0  0  0  0  0  0  0  0  0  0  0
   18.8789    4.6930   53.8325 N   0  0  0  0  0  0  0  0  0  0  0  0
   19.9910    4.4955   53.4974 C   0  0  0  0  0  0  0  0  0  0  0  0
   25.7184    8.7077   55.0333 C   0  0  0  0  0  0  0  0  0  0  0  0
   26.3841    9.1383   56.1596 C   0  0  0  0  0  0  0  0  0  0  0  0
   27.7635    9.1609   56.2359 C   0  0  0  0  0  0  0  0  0  0  0  0
   28.5443    8.7513   55.1809 C   0  0  0  0  0  0  0  0  0  0  0  0
   27.8939    8.3125   54.0418 C   0  0  0  0  0  0  0  0  0  0  0  0
   26.5120    8.2968   53.9804 C   0  0  0  0  0  0  0  0  0  0  0  0
   23.1643   10.5895   56.0019 O   0  0  0  0  0  0  0  0  0  0  0  0
   21.8080   10.4210   55.6232 C   0  0  0  0  0  0  0  0  0  0  0  0
   21.5851   10.4323   54.1911 C   0  0  0  0  0  0  0  0  0  0  0  0
   21.2435    9.2345   53.5248 C   0  0  0  0  0  0  0  0  0  0  0  0
   21.0159    9.1758   52.1839 C   0  0  0  0  0  0  0  0  0  0  0  0
   21.1181   10.3198   51.4317 C   0  0  0  0  0  0  0  0  0  0  0  0
   21.4502   11.4946   52.0639 C   0  0  0  0  0  0  0  0  0  0  0  0
   21.6862   11.5714   53.4385 C   0  0  0  0  0  0  0  0  0  0  0  0
   20.6566    7.9091   51.4784 C   0  0  0  0  0  0  0  0  0  0  0  0
   21.7507    7.1947   51.1269 F   0  0  0  0  0  0  0  0  0  0  0  0
   19.8899    8.2871   50.3850 F   0  0  0  0  0  0  0  0  0  0  0  0
   19.8028    7.2129   52.3197 F   0  0  0  0  0  0  0  0  0  0  0  0
   21.5367   12.7137   51.1981 C   0  0  0  0  0  0  0  0  0  0  0  0
   22.8630   13.1618   51.1387 F   0  0  0  0  0  0  0  0  0  0  0  0
   21.1580   12.3329   49.9370 F   0  0  0  0  0  0  0  0  0  0  0  0
   20.7671   13.7601   51.6617 F   0  0  0  0  0  0  0  0  0  0  0  0
 10 11  3  0  0  0
 11  9  1  0  0  0
  9  3  1  0  0  0
  3  4  1  0  0  0
  4  5  1  0  0  0
  5  6  1  0  0  0
  6  2  1  0  0  0
  2  1  1  0  0  0
  1 18  1  0  0  0
 18 19  1  0  0  0
 19 20  1  0  0  0
 20 21  2  0  0  0
 21 22  1  0  0  0
 22 26  1  0  0  0
 26 27  1  0  0  0
 26 28  1  0  0  0
 26 29  1  0  0  0
 22 23  2  0  0  0
 23 24  1  0  0  0
 24 30  1  0  0  0
 30 31  1  0  0  0
 30 32  1  0  0  0
 30 33  1  0  0  0
 24 25  2  0  0  0
  2 12  1  0  0  0
 12 13  2  0  0  0
 13 14  1  0  0  0
 14 15  2  0  0  0
 15 16  1  0  0  0
 16 17  2  0  0  0
  6  7  1  0  0  0
  7  8  1  0  0  0
  8  3  1  0  0  0
 25 20  1  0  0  0
 17 12  1  0  0  0
M  END
> <minimizedAffinity>
11.77504

> <CNNscore>
0.3649983108

> <CNNaffinity>
6.3046927452

> <CNN_VS>
2.3012022972

> <CNNaffinity_variance>
0.2865119874

$$$$
[H]c1c([H])c([H])c(C([H])(N2C([H])([H])C([H])([H])N(C([H])([H])C#N)C([H])([H])C2([H])[H])C([H])([H])OC([H])([H])c2c([H])c(C(F)(F)F)c([H])c(C(F)(F)F)c2[H])c([H])c1[H]


 33 35  0  0  0  0  0  0  0  0999 V2000
   23.6053    9.2831   56.1010 C   0  0  0  0  0  0  0  0  0  0  0  0
   24.2284    8.6963   54.8797 C   0  0  0  0  0  0  0  0  0  0  0  0
   22.2141    5.1733   53.7647 N   0  0  0  0  0  0  0  0  0  0  0  0
   23.4836    5.4478   53.1957 C   0  0  0  0  0  0  0  0  0  0  0  0
   23.8093    6.9381   53.2431 C   0  0  0  0  0  0  0  0  0  0  0  0
   23.6590    7.4523   54.5533 N   0  0  0  0  0  0  0  0  0  0  0  0
   22.4993    7.0826   55.2860 C   0  0  0  0  0  0  0  0  0  0  0  0
   21.5872    6.2862   54.3920 C   0  0  0  0  0  0  0  0  0  0  0  0
   21.3811    4.2348   53.1110 C   0  0  0  0  0  0  0  0  0  0  0  0
   18.8620    4.6434   53.8239 N   0  0  0  0  0  0  0  0  0  0  0  0
   19.9853    4.4690   53.5143 C   0  0  0  0  0  0  0  0  0  0  0  0
   25.7050    8.6998   55.0321 C   0  0  0  0  0  0  0  0  0  0  0  0
   26.3623    9.1354   56.1614 C   0  0  0  0  0  0  0  0  0  0  0  0
   27.7411    9.1583   56.2478 C   0  0  0  0  0  0  0  0  0  0  0  0
   28.5296    8.7439   55.2005 C   0  0  0  0  0  0  0  0  0  0  0  0
   27.8877    8.3001   54.0585 C   0  0  0  0  0  0  0  0  0  0  0  0
   26.5063    8.2842   53.9870 C   0  0  0  0  0  0  0  0  0  0  0  0
   23.1717   10.6005   55.9757 O   0  0  0  0  0  0  0  0  0  0  0  0
   21.8041   10.4602   55.6272 C   0  0  0  0  0  0  0  0  0  0  0  0
   21.5604   10.3700   54.2013 C   0  0  0  0  0  0  0  0  0  0  0  0
   21.6822   11.5231   53.3945 C   0  0  0  0  0  0  0  0  0  0  0  0
   21.4725   11.5073   52.0494 C   0  0  0  0  0  0  0  0  0  0  0  0
   21.1275   10.3293   51.4344 C   0  0  0  0  0  0  0  0  0  0  0  0
   21.0041    9.1973   52.2046 C   0  0  0  0  0  0  0  0  0  0  0  0
   21.2164    9.1969   53.5852 C   0  0  0  0  0  0  0  0  0  0  0  0
   21.5992   12.7267   51.1960 C   0  0  0  0  0  0  0  0  0  0  0  0
   22.8748   13.1740   51.1340 F   0  0  0  0  0  0  0  0  0  0  0  0
   20.7294   13.6625   51.7382 F   0  0  0  0  0  0  0  0  0  0  0  0
   21.0795   12.3990   49.9534 F   0  0  0  0  0  0  0  0  0  0  0  0
   20.6373    7.9382   51.4812 C   0  0  0  0  0  0  0  0  0  0  0  0
   19.8268    7.1390   52.2984 F   0  0  0  0  0  0  0  0  0  0  0  0
   19.9033    8.3095   50.3847 F   0  0  0  0  0  0  0  0  0  0  0  0
   21.7344    7.1834   51.1221 F   0  0  0  0  0  0  0  0  0  0  0  0
 10 11  3  0  0  0
 11  9  1  0  0  0
  9  3  1  0  0  0
  3  4  1  0  0  0
  4  5  1  0  0  0
  5  6  1  0  0  0
  6  2  1  0  0  0
  2  1  1  0  0  0
  1 18  1  0  0  0
 18 19  1  0  0  0
 19 20  1  0  0  0
 20 21  2  0  0  0
 21 22  1  0  0  0
 22 26  1  0  0  0
 26 27  1  0  0  0
 26 28  1  0  0  0
 26 29  1  0  0  0
 22 23  2  0  0  0
 23 24  1  0  0  0
 24 30  1  0  0  0
 30 31  1  0  0  0
 30 32  1  0  0  0
 30 33  1  0  0  0
 24 25  2  0  0  0
  2 12  1  0  0  0
 12 13  2  0  0  0
 13 14  1  0  0  0
 14 15  2  0  0  0
 15 16  1  0  0  0
 16 17  2  0  0  0
  6  7  1  0  0  0
  7  8  1  0  0  0
  8  3  1  0  0  0
 25 20  1  0  0  0
 17 12  1  0  0  0
M  END
> <minimizedAffinity>
11.75511

> <CNNscore>
0.3584920466

> <CNNaffinity>
6.2970876694

> <CNN_VS>
2.2574558258

> <CNNaffinity_variance>
0.2808085084

$$$$
[H]c1c([H])c([H])c(C([H])(N2C([H])([H])C([H])([H])N(C([H])([H])C#N)C([H])([H])C2([H])[H])C([H])([H])OC([H])([H])c2c([H])c(C(F)(F)F)c([H])c(C(F)(F)F)c2[H])c([H])c1[H]


 33 35  0  0  0  0  0  0  0  0999 V2000
   23.6845    9.2290   56.1083 C   0  0  0  0  0  0  0  0  0  0  0  0
   24.2640    8.6779   54.8494 C   0  0  0  0  0  0  0  0  0  0  0  0
   22.2509    5.1494   53.7497 N   0  0  0  0  0  0  0  0  0  0  0  0
   23.4779    5.4666   53.1136 C   0  0  0  0  0  0  0  0  0  0  0  0
   23.7782    6.9612   53.1874 C   0  0  0  0  0  0  0  0  0  0  0  0
   23.6988    7.4329   54.5197 N   0  0  0  0  0  0  0  0  0  0  0  0
   22.5932    7.0178   55.3094 C   0  0  0  0  0  0  0  0  0  0  0  0
   21.6429    6.2301   54.4480 C   0  0  0  0  0  0  0  0  0  0  0  0
   21.3970    4.2141   53.1188 C   0  0  0  0  0  0  0  0  0  0  0  0
   18.8883    4.6927   53.8248 N   0  0  0  0  0  0  0  0  0  0  0  0
   20.0071    4.4876   53.5179 C   0  0  0  0  0  0  0  0  0  0  0  0
   25.7454    8.7001   54.9403 C   0  0  0  0  0  0  0  0  0  0  0  0
   26.5857    8.2566   53.9431 C   0  0  0  0  0  0  0  0  0  0  0  0
   27.9602    8.2589   54.0835 C   0  0  0  0  0  0  0  0  0  0  0  0
   28.5599    8.7078   55.2364 C   0  0  0  0  0  0  0  0  0  0  0  0
   27.7327    9.1600   56.2485 C   0  0  0  0  0  0  0  0  0  0  0  0
   26.3581    9.1504   56.0931 C   0  0  0  0  0  0  0  0  0  0  0  0
   23.1802   10.5237   56.0164 O   0  0  0  0  0  0  0  0  0  0  0  0
   21.8263   10.3191   55.6466 C   0  0  0  0  0  0  0  0  0  0  0  0
   21.5884   10.3573   54.2174 C   0  0  0  0  0  0  0  0  0  0  0  0
   21.2052    9.1795   53.5384 C   0  0  0  0  0  0  0  0  0  0  0  0
   20.9615    9.1465   52.1994 C   0  0  0  0  0  0  0  0  0  0  0  0
   21.0887   10.2977   51.4622 C   0  0  0  0  0  0  0  0  0  0  0  0
   21.4615   11.4532   52.1069 C   0  0  0  0  0  0  0  0  0  0  0  0
   21.7144   11.5036   53.4797 C   0  0  0  0  0  0  0  0  0  0  0  0
   20.5581    7.9008   51.4804 C   0  0  0  0  0  0  0  0  0  0  0  0
   19.9626    7.0080   52.3045 F   0  0  0  0  0  0  0  0  0  0  0  0
   21.7170    7.4041   50.9005 F   0  0  0  0  0  0  0  0  0  0  0  0
   19.7444    8.2935   50.4291 F   0  0  0  0  0  0  0  0  0  0  0  0
   21.5740   12.6815   51.2572 C   0  0  0  0  0  0  0  0  0  0  0  0
   22.9074   13.1101   51.2148 F   0  0  0  0  0  0  0  0  0  0  0  0
   21.2006   12.3223   49.9882 F   0  0  0  0  0  0  0  0  0  0  0  0
   20.8163   13.7337   51.7274 F   0  0  0  0  0  0  0  0  0  0  0  0
 10 11  3  0  0  0
 11  9  1  0  0  0
  9  3  1  0  0  0
  3  4  1  0  0  0
  4  5  1  0  0  0
  5  6  1  0  0  0
  6  2  1  0  0  0
  2  1  1  0  0  0
  1 18  1  0  0  0
 18 19  1  0  0  0
 19 20  1  0  0  0
 20 21  2  0  0  0
 21 22  1  0  0  0
 22 26  1  0  0  0
 26 27  1  0  0  0
 26 28  1  0  0  0
 26 29  1  0  0  0
 22 23  2  0  0  0
 23 24  1  0  0  0
 24 30  1  0  0  0
 30 31  1  0  0  0
 30 32  1  0  0  0
 30 33  1  0  0  0
 24 25  2  0  0  0
  2 12  1  0  0  0
 12 13  2  0  0  0
 13 14  1  0  0  0
 14 15  2  0  0  0
 15 16  1  0  0  0
 16 17  2  0  0  0
  6  7  1  0  0  0
  7  8  1  0  0  0
  8  3  1  0  0  0
 25 20  1  0  0  0
 17 12  1  0  0  0
M  END
> <minimizedAffinity>
12.00925

> <CNNscore>
0.3511537015

> <CNNaffinity>
6.2696805000

> <CNN_VS>
2.2016215324

> <CNNaffinity_variance>
0.2691183984

$$$$
[H]c1c([H])c([H])c(C([H])(N2C([H])([H])C([H])([H])N(C([H])([H])C#N)C([H])([H])C2([H])[H])C([H])([H])OC([H])([H])c2c([H])c(C(F)(F)F)c([H])c(C(F)(F)F)c2[H])c([H])c1[H]


 33 35  0  0  0  0  0  0  0  0999 V2000
   23.8846    5.7187   53.9779 C   0  0  0  0  0  0  0  0  0  0  0  0
   24.5523    6.8931   53.3460 C   0  0  0  0  0  0  0  0  0  0  0  0
   27.2628    9.0595   55.7276 N   0  0  0  0  0  0  0  0  0  0  0  0
   25.8958    9.0231   56.1030 C   0  0  0  0  0  0  0  0  0  0  0  0
   24.9950    8.7091   54.9117 C   0  0  0  0  0  0  0  0  0  0  0  0
   25.4239    7.5383   54.2417 N   0  0  0  0  0  0  0  0  0  0  0  0
   26.8126    7.3897   53.9812 C   0  0  0  0  0  0  0  0  0  0  0  0
   27.5263    8.6500   54.3905 C   0  0  0  0  0  0  0  0  0  0  0  0
   28.0749   10.0825   56.2717 C   0  0  0  0  0  0  0  0  0  0  0  0
   28.4419    9.6128   58.8535 N   0  0  0  0  0  0  0  0  0  0  0  0
   28.2878    9.8161   57.7032 C   0  0  0  0  0  0  0  0  0  0  0  0
   23.5256    7.7629   52.7194 C   0  0  0  0  0  0  0  0  0  0  0  0
   23.4136    9.1154   52.9542 C   0  0  0  0  0  0  0  0  0  0  0  0
   22.4181    9.8824   52.3798 C   0  0  0  0  0  0  0  0  0  0  0  0
   21.4831    9.3262   51.5390 C   0  0  0  0  0  0  0  0  0  0  0  0
   21.5808    7.9695   51.2887 C   0  0  0  0  0  0  0  0  0  0  0  0
   22.5826    7.2149   51.8722 C   0  0  0  0  0  0  0  0  0  0  0  0
   24.1841    5.5139   55.3224 O   0  0  0  0  0  0  0  0  0  0  0  0
   22.9135    5.5697   55.9501 C   0  0  0  0  0  0  0  0  0  0  0  0
   22.0277    6.5817   55.4098 C   0  0  0  0  0  0  0  0  0  0  0  0
   21.0168    6.2131   54.4948 C   0  0  0  0  0  0  0  0  0  0  0  0
   20.1488    7.1115   53.9537 C   0  0  0  0  0  0  0  0  0  0  0  0
   20.2455    8.4362   54.3012 C   0  0  0  0  0  0  0  0  0  0  0  0
   21.2240    8.8127   55.1903 C   0  0  0  0  0  0  0  0  0  0  0  0
   22.1217    7.9033   55.7545 C   0  0  0  0  0  0  0  0  0  0  0  0
   19.0808    6.7226   52.9844 C   0  0  0  0  0  0  0  0  0  0  0  0
   19.1130    7.4777   51.8620 F   0  0  0  0  0  0  0  0  0  0  0  0
   17.8816    6.8382   53.6733 F   0  0  0  0  0  0  0  0  0  0  0  0
   19.2458    5.3697   52.7315 F   0  0  0  0  0  0  0  0  0  0  0  0
   21.2773   10.2674   55.5432 C   0  0  0  0  0  0  0  0  0  0  0  0
   22.5202   10.5735   56.1129 F   0  0  0  0  0  0  0  0  0  0  0  0
   21.1624   10.9653   54.3690 F   0  0  0  0  0  0  0  0  0  0  0  0
   20.3049   10.6387   56.4481 F   0  0  0  0  0  0  0  0  0  0  0  0
 10 11  3  0  0  0
 11  9  1  0  0  0
  9  3  1  0  0  0
  3  4  1  0  0  0
  4  5  1  0  0  0
  5  6  1  0  0  0
  6  2  1  0  0  0
  2  1  1  0  0  0
  1 18  1  0  0  0
 18 19  1  0  0  0
 19 20  1  0  0  0
 20 21  2  0  0  0
 21 22  1  0  0  0
 22 26  1  0  0  0
 26 27  1  0  0  0
 26 28  1  0  0  0
 26 29  1  0  0  0
 22 23  2  0  0  0
 23 24  1  0  0  0
 24 30  1  0  0  0
 30 31  1  0  0  0
 30 32  1  0  0  0
 30 33  1  0  0  0
 24 25  2  0  0  0
  2 12  1  0  0  0
 12 13  2  0  0  0
 13 14  1  0  0  0
 14 15  2  0  0  0
 15 16  1  0  0  0
 16 17  2  0  0  0
  6  7  1  0  0  0
  7  8  1  0  0  0
  8  3  1  0  0  0
 25 20  1  0  0  0
 17 12  1  0  0  0
M  END
> <minimizedAffinity>
13.27109

> <CNNscore>
0.3331861794

> <CNNaffinity>
6.1001300812

> <CNN_VS>
2.0324790478

> <CNNaffinity_variance>
0.3455713689

$$$$
[H]OC(=O)c1c([H])c([H])c([H])c(O[H])c1C(=O)c1c(O[H])c([H])c(C(=O)OC([H])([H])[C@]2([H])C([H])([H])C([H])([H])C([H])([H])[C@@]2([H])N([H])C(=O)c2c([H])c([H])c(O[H])c([H])c2[H])c([H])c1O[H]


 45 48  0  0  0  0  0  0  0  0999 V2000
   25.7079    8.2079   54.4175 C   0  0  0  0  0  0  0  0  0  0  0  0
   27.0502    8.0186   54.2779 C   0  0  0  0  0  0  0  0  0  0  0  0
   27.9642    8.5928   55.1724 C   0  0  0  0  0  0  0  0  0  0  0  0
   29.2918    8.3301   54.9386 O   0  0  0  0  0  0  0  0  0  0  0  0
   27.5498    9.3730   56.2289 C   0  0  0  0  0  0  0  0  0  0  0  0
   26.1674    9.5632   56.3642 C   0  0  0  0  0  0  0  0  0  0  0  0
   25.6234   10.3461   57.3991 O   0  0  0  0  0  0  0  0  0  0  0  0
   25.2951    8.9861   55.4721 C   0  0  0  0  0  0  0  0  0  0  0  0
   30.1014    8.5876   55.4196 H   0  0  0  0  0  0  0  0  0  0  0  0
   24.6444   10.4662   57.4755 H   0  0  0  0  0  0  0  0  0  0  0  0
   24.7310    7.6050   53.4821 C   0  0  0  0  0  0  0  0  0  0  0  0
   24.6937    6.3698   53.4118 O   0  0  0  0  0  0  0  0  0  0  0  0
   23.9317    8.3548   52.7519 O   0  0  0  0  0  0  0  0  0  0  0  0
   22.8168    8.3324   52.0010 C   0  0  0  0  0  0  0  0  0  0  0  0
   21.3791    7.6410   53.8278 C   0  0  0  0  0  0  0  0  0  0  0  0
   21.4550    8.4920   55.0722 C   0  0  0  0  0  0  0  0  0  0  0  0
   21.2704    9.9180   54.6799 C   0  0  0  0  0  0  0  0  0  0  0  0
   21.3136    9.9821   53.1591 C   0  0  0  0  0  0  0  0  0  0  0  0
   21.5282    8.6310   52.6672 C   0  0  0  0  0  0  0  0  0  0  0  0
   21.2858    4.9195   53.6469 O   0  0  0  0  0  0  0  0  0  0  0  0
   20.1632    5.5042   53.6649 C   0  0  0  0  0  0  0  0  0  0  0  0
   20.1342    6.9016   53.7550 N   0  0  0  0  0  0  0  0  0  0  0  0
   19.2123    7.4107   53.7684 H   0  0  0  0  0  0  0  0  0  0  0  0
   18.9725    4.7029   53.5922 C   0  0  0  0  0  0  0  0  0  0  0  0
   17.7826    5.1722   54.0907 C   0  0  0  0  0  0  0  0  0  0  0  0
   16.6192    4.4012   54.0272 C   0  0  0  0  0  0  0  0  0  0  0  0
   16.6681    3.1535   53.4559 C   0  0  0  0  0  0  0  0  0  0  0  0
   15.5160    2.3669   53.3823 O   0  0  0  0  0  0  0  0  0  0  0  0
   17.8647    2.6838   52.9555 C   0  0  0  0  0  0  0  0  0  0  0  0
   19.0157    3.4362   53.0137 C   0  0  0  0  0  0  0  0  0  0  0  0
   14.8964    2.4101   52.5947 H   0  0  0  0  0  0  0  0  0  0  0  0
   28.3944   10.1294   57.0945 C   0  0  0  0  0  0  0  0  0  0  0  0
   29.0247   11.0953   56.4652 O   0  0  0  0  0  0  0  0  0  0  0  0
   28.6684   10.0446   58.5054 C   0  0  0  0  0  0  0  0  0  0  0  0
   28.9005    8.7193   58.9560 C   0  0  0  0  0  0  0  0  0  0  0  0
   28.8589    7.6734   58.0448 O   0  0  0  0  0  0  0  0  0  0  0  0
   29.1650    8.4313   60.2591 C   0  0  0  0  0  0  0  0  0  0  0  0
   29.1993    9.4877   61.1355 C   0  0  0  0  0  0  0  0  0  0  0  0
   28.9771   10.7670   60.7336 C   0  0  0  0  0  0  0  0  0  0  0  0
   28.6946   11.0817   59.3701 C   0  0  0  0  0  0  0  0  0  0  0  0
   29.0254    6.7395   58.3765 H   0  0  0  0  0  0  0  0  0  0  0  0
   28.2565   12.4318   59.0967 C   0  0  0  0  0  0  0  0  0  0  0  0
   28.5225   13.3244   59.9721 O   0  0  0  0  0  0  0  0  0  0  0  0
   27.5793   12.8736   58.0161 O   0  0  0  0  0  0  0  0  0  0  0  0
   27.0930   13.7425   57.9167 H   0  0  0  0  0  0  0  0  0  0  0  0
 20 21  2  0  0  0
 21 22  1  0  0  0
 22 15  1  0  0  0
 15 16  1  0  0  0
 16 17  1  0  0  0
 17 18  1  0  0  0
 18 19  1  0  0  0
 19 14  1  0  0  0
 14 13  1  0  0  0
 13 11  1  0  0  0
 11 12  2  0  0  0
 11  1  1  0  0  0
  1  2  2  0  0  0
  2  3  1  0  0  0
  3  4  1  0  0  0
  3  5  2  0  0  0
  5 32  1  0  0  0
 32 33  2  0  0  0
 32 34  1  0  0  0
 34 35  2  0  0  0
 35 36  1  0  0  0
 35 37  1  0  0  0
 37 38  2  0  0  0
 38 39  1  0  0  0
 39 40  2  0  0  0
 40 42  1  0  0  0
 42 43  2  0  0  0
 42 44  1  0  0  0
  5  6  1  0  0  0
  6  7  1  0  0  0
  6  8  2  0  0  0
 21 24  1  0  0  0
 24 25  2  0  0  0
 25 26  1  0  0  0
 26 27  2  0  0  0
 27 28  1  0  0  0
 27 29  1  0  0  0
 29 30  2  0  0  0
 19 15  1  0  0  0
  8  1  1  0  0  0
 30 24  1  0  0  0
 40 34  1  0  0  0
 22 23  1  0  0  0
  4  9  1  0  0  0
 36 41  1  0  0  0
 44 45  1  0  0  0
  7 10  1  0  0  0
 28 31  1  0  0  0
M  END
> <minimizedAffinity>
18.53468

> <CNNscore>
0.6461963058

> <CNNaffinity>
6.6007514000

> <CNN_VS>
4.2653813362

> <CNNaffinity_variance>
0.2597845197

$$$$
[H]OC(=O)c1c([H])c([H])c([H])c(O[H])c1C(=O)c1c(O[H])c([H])c(C(=O)OC([H])([H])[C@]2([H])C([H])([H])C([H])([H])C([H])([H])[C@@]2([H])N([H])C(=O)c2c([H])c([H])c(O[H])c([H])c2[H])c([H])c1O[H]


 45 48  0  0  0  0  0  0  0  0999 V2000
   25.5803    8.3165   54.3373 C   0  0  0  0  0  0  0  0  0  0  0  0
   25.1635    8.8241   55.5314 C   0  0  0  0  0  0  0  0  0  0  0  0
   26.0795    9.1937   56.5261 C   0  0  0  0  0  0  0  0  0  0  0  0
   25.5470    9.6990   57.6868 O   0  0  0  0  0  0  0  0  0  0  0  0
   27.4381    9.0605   56.3440 C   0  0  0  0  0  0  0  0  0  0  0  0
   27.8579    8.5366   55.1132 C   0  0  0  0  0  0  0  0  0  0  0  0
   29.2193    8.3464   54.8127 O   0  0  0  0  0  0  0  0  0  0  0  0
   26.9360    8.1842   54.1562 C   0  0  0  0  0  0  0  0  0  0  0  0
   25.9646   10.0415   58.5001 H   0  0  0  0  0  0  0  0  0  0  0  0
   29.4926    7.9755   53.9372 H   0  0  0  0  0  0  0  0  0  0  0  0
   24.6242    7.9248   53.2767 C   0  0  0  0  0  0  0  0  0  0  0  0
   24.6093    6.7365   52.9305 O   0  0  0  0  0  0  0  0  0  0  0  0
   23.8197    8.8076   52.7219 O   0  0  0  0  0  0  0  0  0  0  0  0
   22.6195    8.9564   52.1346 C   0  0  0  0  0  0  0  0  0  0  0  0
   21.4434    7.7755   53.8966 C   0  0  0  0  0  0  0  0  0  0  0  0
   21.6707    8.2996   55.2938 C   0  0  0  0  0  0  0  0  0  0  0  0
   21.4173    9.7683   55.2933 C   0  0  0  0  0  0  0  0  0  0  0  0
   21.2597   10.2036   53.8427 C   0  0  0  0  0  0  0  0  0  0  0  0
   21.4257    9.0246   53.0085 C   0  0  0  0  0  0  0  0  0  0  0  0
   21.3878    5.0530   53.7160 O   0  0  0  0  0  0  0  0  0  0  0  0
   20.2579    5.6237   53.7094 C   0  0  0  0  0  0  0  0  0  0  0  0
   20.2096    7.0208   53.7976 N   0  0  0  0  0  0  0  0  0  0  0  0
   19.2814    7.5183   53.7908 H   0  0  0  0  0  0  0  0  0  0  0  0
   19.0791    4.8077   53.6116 C   0  0  0  0  0  0  0  0  0  0  0  0
   17.8633    5.2818   54.0381 C   0  0  0  0  0  0  0  0  0  0  0  0
   16.7111    4.4966   53.9498 C   0  0  0  0  0  0  0  0  0  0  0  0
   16.7974    3.2298   53.4271 C   0  0  0  0  0  0  0  0  0  0  0  0
   15.6571    2.4288   53.3298 O   0  0  0  0  0  0  0  0  0  0  0  0
   18.0200    2.7552   52.9990 C   0  0  0  0  0  0  0  0  0  0  0  0
   19.1602    3.5215   53.0822 C   0  0  0  0  0  0  0  0  0  0  0  0
   15.0739    2.4371   52.5137 H   0  0  0  0  0  0  0  0  0  0  0  0
   28.4405    9.2529   57.3405 C   0  0  0  0  0  0  0  0  0  0  0  0
   29.4754    8.4610   57.1731 O   0  0  0  0  0  0  0  0  0  0  0  0
   28.5360   10.1465   58.4653 C   0  0  0  0  0  0  0  0  0  0  0  0
   28.2213   11.4924   58.1444 C   0  0  0  0  0  0  0  0  0  0  0  0
   27.8548   11.8147   56.8453 O   0  0  0  0  0  0  0  0  0  0  0  0
   28.2652   12.4888   59.0697 C   0  0  0  0  0  0  0  0  0  0  0  0
   28.6313   12.1377   60.3457 C   0  0  0  0  0  0  0  0  0  0  0  0
   28.9420   10.8578   60.6814 C   0  0  0  0  0  0  0  0  0  0  0  0
   28.9038    9.8042   59.7189 C   0  0  0  0  0  0  0  0  0  0  0  0
   27.6339   12.7713   56.6310 H   0  0  0  0  0  0  0  0  0  0  0  0
   29.4649    8.5362   60.1272 C   0  0  0  0  0  0  0  0  0  0  0  0
   30.3493    8.5549   61.0500 O   0  0  0  0  0  0  0  0  0  0  0  0
   29.1733    7.3124   59.6386 O   0  0  0  0  0  0  0  0  0  0  0  0
   29.6977    6.4687   59.7591 H   0  0  0  0  0  0  0  0  0  0  0  0
 20 21  2  0  0  0
 21 22  1  0  0  0
 22 15  1  0  0  0
 15 16  1  0  0  0
 16 17  1  0  0  0
 17 18  1  0  0  0
 18 19  1  0  0  0
 19 14  1  0  0  0
 14 13  1  0  0  0
 13 11  1  0  0  0
 11 12  2  0  0  0
 11  1  1  0  0  0
  1  2  2  0  0  0
  2  3  1  0  0  0
  3  4  1  0  0  0
  3  5  2  0  0  0
  5 32  1  0  0  0
 32 33  2  0  0  0
 32 34  1  0  0  0
 34 35  2  0  0  0
 35 36  1  0  0  0
 35 37  1  0  0  0
 37 38  2  0  0  0
 38 39  1  0  0  0
 39 40  2  0  0  0
 40 42  1  0  0  0
 42 43  2  0  0  0
 42 44  1  0  0  0
  5  6  1  0  0  0
  6  7  1  0  0  0
  6  8  2  0  0  0
 21 24  1  0  0  0
 24 25  2  0  0  0
 25 26  1  0  0  0
 26 27  2  0  0  0
 27 28  1  0  0  0
 27 29  1  0  0  0
 29 30  2  0  0  0
 19 15  1  0  0  0
  8  1  1  0  0  0
 30 24  1  0  0  0
 40 34  1  0  0  0
 22 23  1  0  0  0
  4  9  1  0  0  0
 36 41  1  0  0  0
 44 45  1  0  0  0
  7 10  1  0  0  0
 28 31  1  0  0  0
M  END
> <minimizedAffinity>
18.59653

> <CNNscore>
0.6181437373

> <CNNaffinity>
6.5134825706

> <CNN_VS>
4.0262684822

> <CNNaffinity_variance>
0.2464171946

$$$$
[H]OC(=O)c1c([H])c([H])c([H])c(O[H])c1C(=O)c1c(O[H])c([H])c(C(=O)OC([H])([H])[C@]2([H])C([H])([H])C([H])([H])C([H])([H])[C@@]2([H])N([H])C(=O)c2c([H])c([H])c(O[H])c([H])c2[H])c([H])c1O[H]


 45 48  0  0  0  0  0  0  0  0999 V2000
   25.4646    7.9225   54.4846 C   0  0  0  0  0  0  0  0  0  0  0  0
   25.0229    8.8346   55.3957 C   0  0  0  0  0  0  0  0  0  0  0  0
   25.9189    9.6222   56.1320 C   0  0  0  0  0  0  0  0  0  0  0  0
   25.3617   10.5121   57.0174 O   0  0  0  0  0  0  0  0  0  0  0  0
   27.2820    9.5104   55.9704 C   0  0  0  0  0  0  0  0  0  0  0  0
   27.7275    8.5689   55.0319 C   0  0  0  0  0  0  0  0  0  0  0  0
   29.0963    8.3581   54.7839 O   0  0  0  0  0  0  0  0  0  0  0  0
   26.8247    7.8117   54.3236 C   0  0  0  0  0  0  0  0  0  0  0  0
   25.7609   11.1729   57.6150 H   0  0  0  0  0  0  0  0  0  0  0  0
   29.3879    7.6886   54.1164 H   0  0  0  0  0  0  0  0  0  0  0  0
   24.5296    7.0862   53.6978 C   0  0  0  0  0  0  0  0  0  0  0  0
   24.5416    5.8659   53.9044 O   0  0  0  0  0  0  0  0  0  0  0  0
   23.7158    7.6206   52.8110 O   0  0  0  0  0  0  0  0  0  0  0  0
   23.1573    8.7782   52.4168 C   0  0  0  0  0  0  0  0  0  0  0  0
   21.6744    8.3334   54.2837 C   0  0  0  0  0  0  0  0  0  0  0  0
   21.6960    9.3606   55.3896 C   0  0  0  0  0  0  0  0  0  0  0  0
   21.4994   10.7085   54.7848 C   0  0  0  0  0  0  0  0  0  0  0  0
   21.5899   10.5479   53.2732 C   0  0  0  0  0  0  0  0  0  0  0  0
   21.8433    9.1439   52.9938 C   0  0  0  0  0  0  0  0  0  0  0  0
   21.5319    5.7738   53.3476 O   0  0  0  0  0  0  0  0  0  0  0  0
   20.4476    6.2545   53.7899 C   0  0  0  0  0  0  0  0  0  0  0  0
   20.4454    7.5645   54.2855 N   0  0  0  0  0  0  0  0  0  0  0  0
   19.5547    7.9872   54.6558 H   0  0  0  0  0  0  0  0  0  0  0  0
   19.2710    5.4299   53.7615 C   0  0  0  0  0  0  0  0  0  0  0  0
   18.0230    5.9881   53.8861 C   0  0  0  0  0  0  0  0  0  0  0  0
   16.8724    5.1960   53.8618 C   0  0  0  0  0  0  0  0  0  0  0  0
   16.9932    3.8366   53.7103 C   0  0  0  0  0  0  0  0  0  0  0  0
   15.8551    3.0270   53.6832 O   0  0  0  0  0  0  0  0  0  0  0  0
   18.2481    3.2776   53.5852 C   0  0  0  0  0  0  0  0  0  0  0  0
   19.3871    4.0500   53.6080 C   0  0  0  0  0  0  0  0  0  0  0  0
   15.3806    2.8114   52.8262 H   0  0  0  0  0  0  0  0  0  0  0  0
   28.2764   10.1414   56.7752 C   0  0  0  0  0  0  0  0  0  0  0  0
   29.0549   10.9393   56.0800 O   0  0  0  0  0  0  0  0  0  0  0  0
   28.5714   10.0812   58.1831 C   0  0  0  0  0  0  0  0  0  0  0  0
   28.8583    8.7701   58.6436 C   0  0  0  0  0  0  0  0  0  0  0  0
   28.8439    7.7141   57.7433 O   0  0  0  0  0  0  0  0  0  0  0  0
   29.1499    8.5055   59.9458 C   0  0  0  0  0  0  0  0  0  0  0  0
   29.1560    9.5714   60.8114 C   0  0  0  0  0  0  0  0  0  0  0  0
   28.8814   10.8373   60.3999 C   0  0  0  0  0  0  0  0  0  0  0  0
   28.5699   11.1274   59.0373 C   0  0  0  0  0  0  0  0  0  0  0  0
   29.0493    6.7905   58.0819 H   0  0  0  0  0  0  0  0  0  0  0  0
   28.0785   12.4575   58.7565 C   0  0  0  0  0  0  0  0  0  0  0  0
   28.0860   13.3014   59.7165 O   0  0  0  0  0  0  0  0  0  0  0  0
   27.5936   12.9251   57.5870 O   0  0  0  0  0  0  0  0  0  0  0  0
   27.0626   13.7602   57.4394 H   0  0  0  0  0  0  0  0  0  0  0  0
 20 21  2  0  0  0
 21 22  1  0  0  0
 22 15  1  0  0  0
 15 16  1  0  0  0
 16 17  1  0  0  0
 17 18  1  0  0  0
 18 19  1  0  0  0
 19 14  1  0  0  0
 14 13  1  0  0  0
 13 11  1  0  0  0
 11 12  2  0  0  0
 11  1  1  0  0  0
  1  2  2  0  0  0
  2  3  1  0  0  0
  3  4  1  0  0  0
  3  5  2  0  0  0
  5 32  1  0  0  0
 32 33  2  0  0  0
 32 34  1  0  0  0
 34 35  2  0  0  0
 35 36  1  0  0  0
 35 37  1  0  0  0
 37 38  2  0  0  0
 38 39  1  0  0  0
 39 40  2  0  0  0
 40 42  1  0  0  0
 42 43  2  0  0  0
 42 44  1  0  0  0
  5  6  1  0  0  0
  6  7  1  0  0  0
  6  8  2  0  0  0
 21 24  1  0  0  0
 24 25  2  0  0  0
 25 26  1  0  0  0
 26 27  2  0  0  0
 27 28  1  0  0  0
 27 29  1  0  0  0
 29 30  2  0  0  0
 19 15  1  0  0  0
  8  1  1  0  0  0
 30 24  1  0  0  0
 40 34  1  0  0  0
 22 23  1  0  0  0
  4  9  1  0  0  0
 36 41  1  0  0  0
 44 45  1  0  0  0
  7 10  1  0  0  0
 28 31  1  0  0  0
M  END
> <minimizedAffinity>
19.59668

> <CNNscore>
0.5682964921

> <CNNaffinity>
6.5299377441

> <CNN_VS>
3.7109405994

> <CNNaffinity_variance>
0.2096663415

$$$$
[H]OC(=O)c1c([H])c([H])c([H])c(O[H])c1C(=O)c1c(O[H])c([H])c(C(=O)OC([H])([H])[C@]2([H])C([H])([H])C([H])([H])C([H])([H])[C@@]2([H])N([H])C(=O)c2c([H])c([H])c(O[H])c([H])c2[H])c([H])c1O[H]


 45 48  0  0  0  0  0  0  0  0999 V2000
   26.7653    9.0443   55.7147 C   0  0  0  0  0  0  0  0  0  0  0  0
   26.4715    8.1842   54.6993 C   0  0  0  0  0  0  0  0  0  0  0  0
   25.1519    7.9884   54.2687 C   0  0  0  0  0  0  0  0  0  0  0  0
   24.9741    7.1029   53.2340 O   0  0  0  0  0  0  0  0  0  0  0  0
   24.0949    8.6526   54.8504 C   0  0  0  0  0  0  0  0  0  0  0  0
   24.4063    9.5345   55.8948 C   0  0  0  0  0  0  0  0  0  0  0  0
   23.4118   10.2643   56.5717 O   0  0  0  0  0  0  0  0  0  0  0  0
   25.7103    9.7070   56.2943 C   0  0  0  0  0  0  0  0  0  0  0  0
   24.1755    6.8185   52.7498 H   0  0  0  0  0  0  0  0  0  0  0  0
   23.6548   10.8816   57.3057 H   0  0  0  0  0  0  0  0  0  0  0  0
   28.1547    9.2632   56.1777 C   0  0  0  0  0  0  0  0  0  0  0  0
   28.9183    8.2891   56.1758 O   0  0  0  0  0  0  0  0  0  0  0  0
   28.5629   10.4498   56.5771 O   0  0  0  0  0  0  0  0  0  0  0  0
   28.8254   11.1915   57.6673 C   0  0  0  0  0  0  0  0  0  0  0  0
   29.1869    9.5668   59.4314 C   0  0  0  0  0  0  0  0  0  0  0  0
   29.8843   10.0901   60.6637 C   0  0  0  0  0  0  0  0  0  0  0  0
   29.1719   11.3157   61.1237 C   0  0  0  0  0  0  0  0  0  0  0  0
   28.1690   11.6936   60.0420 C   0  0  0  0  0  0  0  0  0  0  0  0
   28.2933   10.7224   58.9674 C   0  0  0  0  0  0  0  0  0  0  0  0
   30.3576    7.1718   60.0156 O   0  0  0  0  0  0  0  0  0  0  0  0
   29.0917    7.1728   60.0061 C   0  0  0  0  0  0  0  0  0  0  0  0
   28.4223    8.3676   59.7126 N   0  0  0  0  0  0  0  0  0  0  0  0
   27.3696    8.3924   59.6956 H   0  0  0  0  0  0  0  0  0  0  0  0
   28.4038    5.9453   60.2978 C   0  0  0  0  0  0  0  0  0  0  0  0
   29.0738    4.8833   60.8528 C   0  0  0  0  0  0  0  0  0  0  0  0
   28.4156    3.6845   61.1388 C   0  0  0  0  0  0  0  0  0  0  0  0
   27.0761    3.5681   60.8599 C   0  0  0  0  0  0  0  0  0  0  0  0
   26.3995    2.3781   61.1385 O   0  0  0  0  0  0  0  0  0  0  0  0
   26.4047    4.6364   60.3023 C   0  0  0  0  0  0  0  0  0  0  0  0
   27.0448    5.8210   60.0172 C   0  0  0  0  0  0  0  0  0  0  0  0
   25.9562    2.2174   62.0238 H   0  0  0  0  0  0  0  0  0  0  0  0
   22.7118    8.4092   54.6003 C   0  0  0  0  0  0  0  0  0  0  0  0
   22.0141    8.2868   55.7068 O   0  0  0  0  0  0  0  0  0  0  0  0
   21.9485    8.2905   53.3853 C   0  0  0  0  0  0  0  0  0  0  0  0
   21.5859    9.5417   52.8227 C   0  0  0  0  0  0  0  0  0  0  0  0
   21.9874   10.7124   53.4506 O   0  0  0  0  0  0  0  0  0  0  0  0
   20.8530    9.6392   51.6807 C   0  0  0  0  0  0  0  0  0  0  0  0
   20.4713    8.4631   51.0836 C   0  0  0  0  0  0  0  0  0  0  0  0
   20.8005    7.2503   51.6015 C   0  0  0  0  0  0  0  0  0  0  0  0
   21.5654    7.1346   52.8013 C   0  0  0  0  0  0  0  0  0  0  0  0
   21.7246   11.5920   53.0418 H   0  0  0  0  0  0  0  0  0  0  0  0
   21.6647    5.8131   53.3786 C   0  0  0  0  0  0  0  0  0  0  0  0
   22.8221    5.4218   53.7546 O   0  0  0  0  0  0  0  0  0  0  0  0
   20.6702    4.9198   53.5638 O   0  0  0  0  0  0  0  0  0  0  0  0
   20.7594    3.9425   53.7595 H   0  0  0  0  0  0  0  0  0  0  0  0
 20 21  2  0  0  0
 21 22  1  0  0  0
 22 15  1  0  0  0
 15 16  1  0  0  0
 16 17  1  0  0  0
 17 18  1  0  0  0
 18 19  1  0  0  0
 19 14  1  0  0  0
 14 13  1  0  0  0
 13 11  1  0  0  0
 11 12  2  0  0  0
 11  1  1  0  0  0
  1  2  2  0  0  0
  2  3  1  0  0  0
  3  4  1  0  0  0
  3  5  2  0  0  0
  5 32  1  0  0  0
 32 33  2  0  0  0
 32 34  1  0  0  0
 34 35  2  0  0  0
 35 36  1  0  0  0
 35 37  1  0  0  0
 37 38  2  0  0  0
 38 39  1  0  0  0
 39 40  2  0  0  0
 40 42  1  0  0  0
 42 43  2  0  0  0
 42 44  1  0  0  0
  5  6  1  0  0  0
  6  7  1  0  0  0
  6  8  2  0  0  0
 21 24  1  0  0  0
 24 25  2  0  0  0
 25 26  1  0  0  0
 26 27  2  0  0  0
 27 28  1  0  0  0
 27 29  1  0  0  0
 29 30  2  0  0  0
 19 15  1  0  0  0
  8  1  1  0  0  0
 30 24  1  0  0  0
 40 34  1  0  0  0
 22 23  1  0  0  0
  4  9  1  0  0  0
 36 41  1  0  0  0
 44 45  1  0  0  0
  7 10  1  0  0  0
 28 31  1  0  0  0
M  END
> <minimizedAffinity>
14.34811

> <CNNscore>
0.5168761015

> <CNNaffinity>
6.3977408409

> <CNN_VS>
3.3068392277

> <CNNaffinity_variance>
0.5349341631

$$$$
[H]OC(=O)c1c([H])c([H])c([H])c(O[H])c1C(=O)c1c(O[H])c([H])c(C(=O)OC([H])([H])[C@]2([H])C([H])([H])C([H])([H])C([H])([H])[C@@]2([H])N([H])C(=O)c2c([H])c([H])c(O[H])c([H])c2[H])c([H])c1O[H]


 45 48  0  0  0  0  0  0  0  0999 V2000
   21.7378    7.3469   53.5401 C   0  0  0  0  0  0  0  0  0  0  0  0
   20.4413    7.7664   53.5517 C   0  0  0  0  0  0  0  0  0  0  0  0
   19.3806    6.8540   53.6392 C   0  0  0  0  0  0  0  0  0  0  0  0
   18.1159    7.3896   53.6487 O   0  0  0  0  0  0  0  0  0  0  0  0
   19.5986    5.4963   53.7159 C   0  0  0  0  0  0  0  0  0  0  0  0
   20.9353    5.0737   53.7023 C   0  0  0  0  0  0  0  0  0  0  0  0
   21.2842    3.7122   53.7678 O   0  0  0  0  0  0  0  0  0  0  0  0
   21.9546    5.9922   53.6171 C   0  0  0  0  0  0  0  0  0  0  0  0
   17.2343    6.9771   53.7243 H   0  0  0  0  0  0  0  0  0  0  0  0
   22.2344    3.4368   53.7572 H   0  0  0  0  0  0  0  0  0  0  0  0
   22.8680    8.2995   53.4512 C   0  0  0  0  0  0  0  0  0  0  0  0
   22.6913    9.3373   52.8003 O   0  0  0  0  0  0  0  0  0  0  0  0
   24.0184    8.0518   54.0423 O   0  0  0  0  0  0  0  0  0  0  0  0
   25.3016    7.7223   53.8135 C   0  0  0  0  0  0  0  0  0  0  0  0
   27.2236    8.0467   55.2568 C   0  0  0  0  0  0  0  0  0  0  0  0
   28.5694    7.8718   54.5958 C   0  0  0  0  0  0  0  0  0  0  0  0
   28.6032    8.7129   53.3659 C   0  0  0  0  0  0  0  0  0  0  0  0
   27.1917    9.2331   53.1300 C   0  0  0  0  0  0  0  0  0  0  0  0
   26.3451    8.7047   54.1871 C   0  0  0  0  0  0  0  0  0  0  0  0
   28.6281   10.3842   55.3648 O   0  0  0  0  0  0  0  0  0  0  0  0
   28.0519   10.0434   56.4391 C   0  0  0  0  0  0  0  0  0  0  0  0
   27.3134    8.8534   56.4580 N   0  0  0  0  0  0  0  0  0  0  0  0
   26.8279    8.5474   57.3410 H   0  0  0  0  0  0  0  0  0  0  0  0
   28.1846   10.8967   57.5878 C   0  0  0  0  0  0  0  0  0  0  0  0
   28.5912   10.3854   58.7952 C   0  0  0  0  0  0  0  0  0  0  0  0
   28.7218   11.2051   59.9190 C   0  0  0  0  0  0  0  0  0  0  0  0
   28.4387   12.5446   59.8125 C   0  0  0  0  0  0  0  0  0  0  0  0
   28.5632   13.3813   60.9242 O   0  0  0  0  0  0  0  0  0  0  0  0
   28.0302   13.0564   58.5984 C   0  0  0  0  0  0  0  0  0  0  0  0
   27.8987   12.2564   57.4861 C   0  0  0  0  0  0  0  0  0  0  0  0
   29.4226   13.8529   61.1367 H   0  0  0  0  0  0  0  0  0  0  0  0
   18.5988    4.4813   53.6464 C   0  0  0  0  0  0  0  0  0  0  0  0
   18.6024    3.8491   52.4946 O   0  0  0  0  0  0  0  0  0  0  0  0
   17.6151    4.0177   54.5899 C   0  0  0  0  0  0  0  0  0  0  0  0
   18.1795    3.5002   55.7845 C   0  0  0  0  0  0  0  0  0  0  0  0
   19.5585    3.4967   55.9399 O   0  0  0  0  0  0  0  0  0  0  0  0
   17.4140    3.0027   56.7931 C   0  0  0  0  0  0  0  0  0  0  0  0
   16.0535    3.0202   56.6088 C   0  0  0  0  0  0  0  0  0  0  0  0
   15.4847    3.5060   55.4739 C   0  0  0  0  0  0  0  0  0  0  0  0
   16.2770    4.0268   54.4068 C   0  0  0  0  0  0  0  0  0  0  0  0
   19.9458    3.1280   56.7908 H   0  0  0  0  0  0  0  0  0  0  0  0
   15.5874    4.3060   53.1675 C   0  0  0  0  0  0  0  0  0  0  0  0
   15.3589    3.3197   52.3872 O   0  0  0  0  0  0  0  0  0  0  0  0
   15.1557    5.5033   52.7182 O   0  0  0  0  0  0  0  0  0  0  0  0
   14.8753    5.7381   51.7869 H   0  0  0  0  0  0  0  0  0  0  0  0
 20 21  2  0  0  0
 21 22  1  0  0  0
 22 15  1  0  0  0
 15 16  1  0  0  0
 16 17  1  0  0  0
 17 18  1  0  0  0
 18 19  1  0  0  0
 19 14  1  0  0  0
 14 13  1  0  0  0
 13 11  1  0  0  0
 11 12  2  0  0  0
 11  1  1  0  0  0
  1  2  2  0  0  0
  2  3  1  0  0  0
  3  4  1  0  0  0
  3  5  2  0  0  0
  5 32  1  0  0  0
 32 33  2  0  0  0
 32 34  1  0  0  0
 34 35  2  0  0  0
 35 36  1  0  0  0
 35 37  1  0  0  0
 37 38  2  0  0  0
 38 39  1  0  0  0
 39 40  2  0  0  0
 40 42  1  0  0  0
 42 43  2  0  0  0
 42 44  1  0  0  0
  5  6  1  0  0  0
  6  7  1  0  0  0
  6  8  2  0  0  0
 21 24  1  0  0  0
 24 25  2  0  0  0
 25 26  1  0  0  0
 26 27  2  0  0  0
 27 28  1  0  0  0
 27 29  1  0  0  0
 29 30  2  0  0  0
 19 15  1  0  0  0
  8  1  1  0  0  0
 30 24  1  0  0  0
 40 34  1  0  0  0
 22 23  1  0  0  0
  4  9  1  0  0  0
 36 41  1  0  0  0
 44 45  1  0  0  0
  7 10  1  0  0  0
 28 31  1  0  0  0
M  END
> <minimizedAffinity>
39.83097

> <CNNscore>
0.4393266737

> <CNNaffinity>
5.9852199554

> <CNN_VS>
2.6294667721

> <CNNaffinity_variance>
0.4069584310

$$$$
[H]OC(=O)c1c([H])c([H])c([H])c(O[H])c1C(=O)c1c(O[H])c([H])c(C(=O)OC([H])([H])[C@]2([H])C([H])([H])C([H])([H])C([H])([H])[C@@]2([H])N([H])C(=O)c2c([H])c([H])c(O[H])c([H])c2[H])c([H])c1O[H]


 45 48  0  0  0  0  0  0  0  0999 V2000
   22.8837    4.8765   53.5170 C   0  0  0  0  0  0  0  0  0  0  0  0
   22.5433    5.4000   54.7282 C   0  0  0  0  0  0  0  0  0  0  0  0
   23.0213    6.6512   55.1419 C   0  0  0  0  0  0  0  0  0  0  0  0
   22.6085    7.0821   56.3790 O   0  0  0  0  0  0  0  0  0  0  0  0
   23.8549    7.4062   54.3471 C   0  0  0  0  0  0  0  0  0  0  0  0
   24.2007    6.8594   53.1033 C   0  0  0  0  0  0  0  0  0  0  0  0
   25.0513    7.5324   52.2070 O   0  0  0  0  0  0  0  0  0  0  0  0
   23.7151    5.6304   52.7242 C   0  0  0  0  0  0  0  0  0  0  0  0
   22.7789    7.9075   56.8716 H   0  0  0  0  0  0  0  0  0  0  0  0
   25.2815    7.1277   51.3341 H   0  0  0  0  0  0  0  0  0  0  0  0
   22.3838    3.5577   53.0659 C   0  0  0  0  0  0  0  0  0  0  0  0
   23.2078    2.6405   52.9571 O   0  0  0  0  0  0  0  0  0  0  0  0
   21.1102    3.3674   52.7903 O   0  0  0  0  0  0  0  0  0  0  0  0
   19.9267    3.0290   53.3310 C   0  0  0  0  0  0  0  0  0  0  0  0
   18.6787    5.1083   53.2936 C   0  0  0  0  0  0  0  0  0  0  0  0
   17.1818    4.9701   53.4306 C   0  0  0  0  0  0  0  0  0  0  0  0
   16.8937    4.1275   54.6257 C   0  0  0  0  0  0  0  0  0  0  0  0
   18.2169    3.5428   55.1014 C   0  0  0  0  0  0  0  0  0  0  0  0
   19.2569    4.0198   54.2046 C   0  0  0  0  0  0  0  0  0  0  0  0
   20.5240    6.5030   51.8451 O   0  0  0  0  0  0  0  0  0  0  0  0
   20.0844    7.0887   52.8777 C   0  0  0  0  0  0  0  0  0  0  0  0
   19.1351    6.4316   53.6707 N   0  0  0  0  0  0  0  0  0  0  0  0
   18.7570    6.8974   54.5363 H   0  0  0  0  0  0  0  0  0  0  0  0
   20.5824    8.4012   53.1847 C   0  0  0  0  0  0  0  0  0  0  0  0
   21.0679    9.2148   52.1911 C   0  0  0  0  0  0  0  0  0  0  0  0
   21.5564   10.4918   52.4782 C   0  0  0  0  0  0  0  0  0  0  0  0
   21.5499   10.9397   53.7763 C   0  0  0  0  0  0  0  0  0  0  0  0
   22.0336   12.2135   54.0843 O   0  0  0  0  0  0  0  0  0  0  0  0
   21.0616   10.1207   54.7732 C   0  0  0  0  0  0  0  0  0  0  0  0
   20.5785    8.8613   54.4997 C   0  0  0  0  0  0  0  0  0  0  0  0
   21.4363   13.0193   54.0850 H   0  0  0  0  0  0  0  0  0  0  0  0
   24.5215    8.6066   54.7335 C   0  0  0  0  0  0  0  0  0  0  0  0
   23.8457    9.6851   54.4073 O   0  0  0  0  0  0  0  0  0  0  0  0
   25.7652    8.8531   55.4154 C   0  0  0  0  0  0  0  0  0  0  0  0
   25.6001    9.4563   56.6892 C   0  0  0  0  0  0  0  0  0  0  0  0
   24.3208    9.7312   57.1514 O   0  0  0  0  0  0  0  0  0  0  0  0
   26.6572    9.7784   57.4826 C   0  0  0  0  0  0  0  0  0  0  0  0
   27.9096    9.4937   56.9969 C   0  0  0  0  0  0  0  0  0  0  0  0
   28.0987    8.9200   55.7793 C   0  0  0  0  0  0  0  0  0  0  0  0
   26.9981    8.5811   54.9357 C   0  0  0  0  0  0  0  0  0  0  0  0
   24.2172   10.1581   58.0553 H   0  0  0  0  0  0  0  0  0  0  0  0
   27.3193    8.1872   53.5825 C   0  0  0  0  0  0  0  0  0  0  0  0
   27.9687    7.0973   53.4263 O   0  0  0  0  0  0  0  0  0  0  0  0
   27.0223    8.8451   52.4421 O   0  0  0  0  0  0  0  0  0  0  0  0
   27.4165    8.6970   51.5345 H   0  0  0  0  0  0  0  0  0  0  0  0
 20 21  2  0  0  0
 21 22  1  0  0  0
 22 15  1  0  0  0
 15 16  1  0  0  0
 16 17  1  0  0  0
 17 18  1  0  0  0
 18 19  1  0  0  0
 19 14  1  0  0  0
 14 13  1  0  0  0
 13 11  1  0  0  0
 11 12  2  0  0  0
 11  1  1  0  0  0
  1  2  2  0  0  0
  2  3  1  0  0  0
  3  4  1  0  0  0
  3  5  2  0  0  0
  5 32  1  0  0  0
 32 33  2  0  0  0
 32 34  1  0  0  0
 34 35  2  0  0  0
 35 36  1  0  0  0
 35 37  1  0  0  0
 37 38  2  0  0  0
 38 39  1  0  0  0
 39 40  2  0  0  0
 40 42  1  0  0  0
 42 43  2  0  0  0
 42 44  1  0  0  0
  5  6  1  0  0  0
  6  7  1  0  0  0
  6  8  2  0  0  0
 21 24  1  0  0  0
 24 25  2  0  0  0
 25 26  1  0  0  0
 26 27  2  0  0  0
 27 28  1  0  0  0
 27 29  1  0  0  0
 29 30  2  0  0  0
 19 15  1  0  0  0
  8  1  1  0  0  0
 30 24  1  0  0  0
 40 34  1  0  0  0
 22 23  1  0  0  0
  4  9  1  0  0  0
 36 41  1  0  0  0
 44 45  1  0  0  0
  7 10  1  0  0  0
 28 31  1  0  0  0
M  END
> <minimizedAffinity>
42.47904

> <CNNscore>
0.4238142073

> <CNNaffinity>
6.0495786667

> <CNN_VS>
2.5638973713

> <CNNaffinity_variance>
1.1145823002

$$$$
[H]OC(=O)c1c([H])c([H])c([H])c(O[H])c1C(=O)c1c(O[H])c([H])c(C(=O)OC([H])([H])[C@]2([H])C([H])([H])C([H])([H])C([H])([H])[C@@]2([H])N([H])C(=O)c2c([H])c([H])c(O[H])c([H])c2[H])c([H])c1O[H]


 45 48  0  0  0  0  0  0  0  0999 V2000
   26.0031    8.1543   54.4429 C   0  0  0  0  0  0  0  0  0  0  0  0
   27.3593    8.0735   54.3366 C   0  0  0  0  0  0  0  0  0  0  0  0
   28.2020    8.7613   55.2209 C   0  0  0  0  0  0  0  0  0  0  0  0
   29.5518    8.6021   55.0236 O   0  0  0  0  0  0  0  0  0  0  0  0
   27.7005    9.5486   56.2335 C   0  0  0  0  0  0  0  0  0  0  0  0
   26.3044    9.6268   56.3346 C   0  0  0  0  0  0  0  0  0  0  0  0
   25.6739   10.4048   57.3231 O   0  0  0  0  0  0  0  0  0  0  0  0
   25.5034    8.9397   55.4536 C   0  0  0  0  0  0  0  0  0  0  0  0
   30.3262    8.9479   55.5072 H   0  0  0  0  0  0  0  0  0  0  0  0
   24.6868   10.4448   57.3760 H   0  0  0  0  0  0  0  0  0  0  0  0
   25.1010    7.4309   53.5178 C   0  0  0  0  0  0  0  0  0  0  0  0
   24.8920    7.9392   52.4087 O   0  0  0  0  0  0  0  0  0  0  0  0
   24.5416    6.2896   53.8621 O   0  0  0  0  0  0  0  0  0  0  0  0
   23.4280    5.7463   54.3839 C   0  0  0  0  0  0  0  0  0  0  0  0
   21.8239    6.4660   52.7131 C   0  0  0  0  0  0  0  0  0  0  0  0
   20.5787    5.6201   52.6012 C   0  0  0  0  0  0  0  0  0  0  0  0
   19.9891    5.4669   53.9614 C   0  0  0  0  0  0  0  0  0  0  0  0
   20.9960    6.0214   54.9601 C   0  0  0  0  0  0  0  0  0  0  0  0
   22.1535    6.4805   54.2099 C   0  0  0  0  0  0  0  0  0  0  0  0
   22.2011    8.7153   54.2119 O   0  0  0  0  0  0  0  0  0  0  0  0
   21.8319    8.9111   53.0170 C   0  0  0  0  0  0  0  0  0  0  0  0
   21.6175    7.8018   52.1891 N   0  0  0  0  0  0  0  0  0  0  0  0
   21.3070    7.9394   51.1922 H   0  0  0  0  0  0  0  0  0  0  0  0
   21.6512   10.2645   52.5691 C   0  0  0  0  0  0  0  0  0  0  0  0
   21.6749   11.3058   53.4634 C   0  0  0  0  0  0  0  0  0  0  0  0
   21.4984   12.6254   53.0395 C   0  0  0  0  0  0  0  0  0  0  0  0
   21.2983   12.8837   51.7058 C   0  0  0  0  0  0  0  0  0  0  0  0
   21.1201   14.1960   51.2615 O   0  0  0  0  0  0  0  0  0  0  0  0
   21.2749   11.8359   50.8088 C   0  0  0  0  0  0  0  0  0  0  0  0
   21.4478   10.5330   51.2172 C   0  0  0  0  0  0  0  0  0  0  0  0
   21.8946   14.7688   50.9821 H   0  0  0  0  0  0  0  0  0  0  0  0
   28.4594   10.4107   57.0795 C   0  0  0  0  0  0  0  0  0  0  0  0
   29.2831   11.1805   56.4050 O   0  0  0  0  0  0  0  0  0  0  0  0
   28.4801   10.6030   58.5061 C   0  0  0  0  0  0  0  0  0  0  0  0
   28.2008   11.9374   58.8994 C   0  0  0  0  0  0  0  0  0  0  0  0
   27.9325   12.8914   57.9278 O   0  0  0  0  0  0  0  0  0  0  0  0
   28.1854   12.3218   60.2043 C   0  0  0  0  0  0  0  0  0  0  0  0
   28.4547   11.3548   61.1413 C   0  0  0  0  0  0  0  0  0  0  0  0
   28.7295   10.0697   60.7942 C   0  0  0  0  0  0  0  0  0  0  0  0
   28.7528    9.6548   59.4285 C   0  0  0  0  0  0  0  0  0  0  0  0
   27.7357   13.8328   58.2193 H   0  0  0  0  0  0  0  0  0  0  0  0
   29.2722    8.3320   59.1644 C   0  0  0  0  0  0  0  0  0  0  0  0
   29.4899    8.0191   57.9443 O   0  0  0  0  0  0  0  0  0  0  0  0
   29.5514    7.3638   60.0623 O   0  0  0  0  0  0  0  0  0  0  0  0
   29.7042    6.3918   59.8805 H   0  0  0  0  0  0  0  0  0  0  0  0
 20 21  2  0  0  0
 21 22  1  0  0  0
 22 15  1  0  0  0
 15 16  1  0  0  0
 16 17  1  0  0  0
 17 18  1  0  0  0
 18 19  1  0  0  0
 19 14  1  0  0  0
 14 13  1  0  0  0
 13 11  1  0  0  0
 11 12  2  0  0  0
 11  1  1  0  0  0
  1  2  2  0  0  0
  2  3  1  0  0  0
  3  4  1  0  0  0
  3  5  2  0  0  0
  5 32  1  0  0  0
 32 33  2  0  0  0
 32 34  1  0  0  0
 34 35  2  0  0  0
 35 36  1  0  0  0
 35 37  1  0  0  0
 37 38  2  0  0  0
 38 39  1  0  0  0
 39 40  2  0  0  0
 40 42  1  0  0  0
 42 43  2  0  0  0
 42 44  1  0  0  0
  5  6  1  0  0  0
  6  7  1  0  0  0
  6  8  2  0  0  0
 21 24  1  0  0  0
 24 25  2  0  0  0
 25 26  1  0  0  0
 26 27  2  0  0  0
 27 28  1  0  0  0
 27 29  1  0  0  0
 29 30  2  0  0  0
 19 15  1  0  0  0
  8  1  1  0  0  0
 30 24  1  0  0  0
 40 34  1  0  0  0
 22 23  1  0  0  0
  4  9  1  0  0  0
 36 41  1  0  0  0
 44 45  1  0  0  0
  7 10  1  0  0  0
 28 31  1  0  0  0
M  END
> <minimizedAffinity>
18.91536

> <CNNscore>
0.4041699767

> <CNNaffinity>
5.9245939255

> <CNN_VS>
2.3945429325

> <CNNaffinity_variance>
0.5911314487

$$$$
[H]OC(=O)c1c([H])c([H])c([H])c(O[H])c1C(=O)c1c(O[H])c([H])c(C(=O)OC([H])([H])[C@]2([H])C([H])([H])C([H])([H])C([H])([H])[C@@]2([H])N([H])C(=O)c2c([H])c([H])c(O[H])c([H])c2[H])c([H])c1O[H]


 45 48  0  0  0  0  0  0  0  0999 V2000
   24.5377    9.5267   55.5614 C   0  0  0  0  0  0  0  0  0  0  0  0
   25.5527    8.6235   55.6673 C   0  0  0  0  0  0  0  0  0  0  0  0
   26.7545    8.9496   56.3112 C   0  0  0  0  0  0  0  0  0  0  0  0
   27.7051    7.9597   56.3638 O   0  0  0  0  0  0  0  0  0  0  0  0
   26.9650   10.1935   56.8635 C   0  0  0  0  0  0  0  0  0  0  0  0
   25.9160   11.1166   56.7489 C   0  0  0  0  0  0  0  0  0  0  0  0
   26.0151   12.4212   57.2666 O   0  0  0  0  0  0  0  0  0  0  0  0
   24.7483   10.7675   56.1130 C   0  0  0  0  0  0  0  0  0  0  0  0
   28.5935    7.9305   56.7674 H   0  0  0  0  0  0  0  0  0  0  0  0
   25.2618   13.0559   57.1746 H   0  0  0  0  0  0  0  0  0  0  0  0
   23.2620    9.1949   54.8868 C   0  0  0  0  0  0  0  0  0  0  0  0
   22.6093   10.1303   54.4059 O   0  0  0  0  0  0  0  0  0  0  0  0
   22.8372    7.9513   54.8018 O   0  0  0  0  0  0  0  0  0  0  0  0
   22.8929    6.8398   54.0475 C   0  0  0  0  0  0  0  0  0  0  0  0
   20.6465    7.4212   53.3418 C   0  0  0  0  0  0  0  0  0  0  0  0
   20.5412    8.6228   52.4342 C   0  0  0  0  0  0  0  0  0  0  0  0
   21.4904    8.4410   51.2996 C   0  0  0  0  0  0  0  0  0  0  0  0
   22.3608    7.2338   51.6219 C   0  0  0  0  0  0  0  0  0  0  0  0
   21.9431    6.7228   52.9172 C   0  0  0  0  0  0  0  0  0  0  0  0
   20.7340    4.7624   53.9508 O   0  0  0  0  0  0  0  0  0  0  0  0
   19.6132    5.1943   53.5511 C   0  0  0  0  0  0  0  0  0  0  0  0
   19.4944    6.5498   53.2191 N   0  0  0  0  0  0  0  0  0  0  0  0
   18.5730    6.9317   52.8813 H   0  0  0  0  0  0  0  0  0  0  0  0
   18.5167    4.2701   53.4584 C   0  0  0  0  0  0  0  0  0  0  0  0
   17.3285    4.5290   54.0955 C   0  0  0  0  0  0  0  0  0  0  0  0
   16.2565    3.6368   54.0139 C   0  0  0  0  0  0  0  0  0  0  0  0
   16.3948    2.4821   53.2836 C   0  0  0  0  0  0  0  0  0  0  0  0
   15.3349    1.5772   53.1892 O   0  0  0  0  0  0  0  0  0  0  0  0
   17.5896    2.2239   52.6441 C   0  0  0  0  0  0  0  0  0  0  0  0
   18.6509    3.0970   52.7190 C   0  0  0  0  0  0  0  0  0  0  0  0
   14.6500    1.6402   52.4591 H   0  0  0  0  0  0  0  0  0  0  0  0
   28.1974   10.6778   57.3938 C   0  0  0  0  0  0  0  0  0  0  0  0
   29.1341   10.7797   56.4780 O   0  0  0  0  0  0  0  0  0  0  0  0
   28.5955   11.0834   58.7166 C   0  0  0  0  0  0  0  0  0  0  0  0
   28.4828   12.4808   58.9357 C   0  0  0  0  0  0  0  0  0  0  0  0
   28.0112   13.2940   57.9150 O   0  0  0  0  0  0  0  0  0  0  0  0
   28.8224   13.0599   60.1191 C   0  0  0  0  0  0  0  0  0  0  0  0
   29.2855   12.2284   61.1088 C   0  0  0  0  0  0  0  0  0  0  0  0
   29.4078   10.8870   60.9265 C   0  0  0  0  0  0  0  0  0  0  0  0
   29.0588   10.2679   59.6884 C   0  0  0  0  0  0  0  0  0  0  0  0
   27.9356   14.2820   58.0830 H   0  0  0  0  0  0  0  0  0  0  0  0
   29.4371    8.8818   59.5306 C   0  0  0  0  0  0  0  0  0  0  0  0
   30.5311    8.5058   60.0743 O   0  0  0  0  0  0  0  0  0  0  0  0
   28.7713    7.9190   58.8587 O   0  0  0  0  0  0  0  0  0  0  0  0
   29.1215    7.0283   58.5667 H   0  0  0  0  0  0  0  0  0  0  0  0
 20 21  2  0  0  0
 21 22  1  0  0  0
 22 15  1  0  0  0
 15 16  1  0  0  0
 16 17  1  0  0  0
 17 18  1  0  0  0
 18 19  1  0  0  0
 19 14  1  0  0  0
 14 13  1  0  0  0
 13 11  1  0  0  0
 11 12  2  0  0  0
 11  1  1  0  0  0
  1  2  2  0  0  0
  2  3  1  0  0  0
  3  4  1  0  0  0
  3  5  2  0  0  0
  5 32  1  0  0  0
 32 33  2  0  0  0
 32 34  1  0  0  0
 34 35  2  0  0  0
 35 36  1  0  0  0
 35 37  1  0  0  0
 37 38  2  0  0  0
 38 39  1  0  0  0
 39 40  2  0  0  0
 40 42  1  0  0  0
 42 43  2  0  0  0
 42 44  1  0  0  0
  5  6  1  0  0  0
  6  7  1  0  0  0
  6  8  2  0  0  0
 21 24  1  0  0  0
 24 25  2  0  0  0
 25 26  1  0  0  0
 26 27  2  0  0  0
 27 28  1  0  0  0
 27 29  1  0  0  0
 29 30  2  0  0  0
 19 15  1  0  0  0
  8  1  1  0  0  0
 30 24  1  0  0  0
 40 34  1  0  0  0
 22 23  1  0  0  0
  4  9  1  0  0  0
 36 41  1  0  0  0
 44 45  1  0  0  0
  7 10  1  0  0  0
 28 31  1  0  0  0
M  END
> <minimizedAffinity>
32.70566

> <CNNscore>
0.3836650848

> <CNNaffinity>
5.7857604027

> <CNN_VS>
2.2197942734

> <CNNaffinity_variance>
0.6259123087

$$$$
[H]OC(=O)c1c([H])c([H])c([H])c(O[H])c1C(=O)c1c(O[H])c([H])c(C(=O)OC([H])([H])[C@]2([H])C([H])([H])C([H])([H])C([H])([H])[C@@]2([H])N([H])C(=O)c2c([H])c([H])c(O[H])c([H])c2[H])c([H])c1O[H]


 45 48  0  0  0  0  0  0  0  0999 V2000
   21.8463   12.2047   51.4104 C   0  0  0  0  0  0  0  0  0  0  0  0
   21.9760   12.3432   52.7598 C   0  0  0  0  0  0  0  0  0  0  0  0
   21.8380   11.2462   53.6218 C   0  0  0  0  0  0  0  0  0  0  0  0
   21.9949   11.5015   54.9621 O   0  0  0  0  0  0  0  0  0  0  0  0
   21.5648    9.9827   53.1467 C   0  0  0  0  0  0  0  0  0  0  0  0
   21.4320    9.8498   51.7574 C   0  0  0  0  0  0  0  0  0  0  0  0
   21.1458    8.6114   51.1540 O   0  0  0  0  0  0  0  0  0  0  0  0
   21.5741   10.9438   50.9371 C   0  0  0  0  0  0  0  0  0  0  0  0
   21.9710   10.9171   55.7437 H   0  0  0  0  0  0  0  0  0  0  0  0
   21.0569    8.5409   50.1712 H   0  0  0  0  0  0  0  0  0  0  0  0
   21.9925   13.3539   50.4880 C   0  0  0  0  0  0  0  0  0  0  0  0
   20.9586   13.8404   50.0122 O   0  0  0  0  0  0  0  0  0  0  0  0
   23.1782   13.8402   50.1848 O   0  0  0  0  0  0  0  0  0  0  0  0
   24.3930   14.1184   50.6893 C   0  0  0  0  0  0  0  0  0  0  0  0
   25.0882   13.6089   48.4222 C   0  0  0  0  0  0  0  0  0  0  0  0
   24.9862   14.7500   47.4394 C   0  0  0  0  0  0  0  0  0  0  0  0
   25.6792   15.9351   48.0196 C   0  0  0  0  0  0  0  0  0  0  0  0
   26.0122   15.6049   49.4683 C   0  0  0  0  0  0  0  0  0  0  0  0
   25.5196   14.2642   49.7389 C   0  0  0  0  0  0  0  0  0  0  0  0
   25.9805   11.6093   50.0512 O   0  0  0  0  0  0  0  0  0  0  0  0
   26.4452   11.6026   48.8737 C   0  0  0  0  0  0  0  0  0  0  0  0
   26.0324   12.6007   47.9820 N   0  0  0  0  0  0  0  0  0  0  0  0
   26.4076   12.6176   46.9982 H   0  0  0  0  0  0  0  0  0  0  0  0
   27.3749   10.5687   48.5104 C   0  0  0  0  0  0  0  0  0  0  0  0
   28.5284   10.3812   49.2307 C   0  0  0  0  0  0  0  0  0  0  0  0
   29.4403    9.3806   48.8854 C   0  0  0  0  0  0  0  0  0  0  0  0
   29.1769    8.5716   47.8075 C   0  0  0  0  0  0  0  0  0  0  0  0
   30.0757    7.5652   47.4460 O   0  0  0  0  0  0  0  0  0  0  0  0
   28.0172    8.7617   47.0851 C   0  0  0  0  0  0  0  0  0  0  0  0
   27.1133    9.7448   47.4178 C   0  0  0  0  0  0  0  0  0  0  0  0
   30.0076    6.6370   47.8200 H   0  0  0  0  0  0  0  0  0  0  0  0
   21.2483    8.8394   53.9389 C   0  0  0  0  0  0  0  0  0  0  0  0
   20.5679    9.1483   55.0195 O   0  0  0  0  0  0  0  0  0  0  0  0
   21.5161    7.4348   53.7713 C   0  0  0  0  0  0  0  0  0  0  0  0
   20.3522    6.6661   53.5106 C   0  0  0  0  0  0  0  0  0  0  0  0
   19.1209    7.3011   53.4305 O   0  0  0  0  0  0  0  0  0  0  0  0
   20.3970    5.3178   53.3344 C   0  0  0  0  0  0  0  0  0  0  0  0
   21.6299    4.7194   53.4196 C   0  0  0  0  0  0  0  0  0  0  0  0
   22.7612    5.4293   53.6719 C   0  0  0  0  0  0  0  0  0  0  0  0
   22.7270    6.8436   53.8628 C   0  0  0  0  0  0  0  0  0  0  0  0
   18.3043    6.7455   53.2450 H   0  0  0  0  0  0  0  0  0  0  0  0
   23.9430    7.4597   54.3435 C   0  0  0  0  0  0  0  0  0  0  0  0
   24.8257    6.6929   54.8599 O   0  0  0  0  0  0  0  0  0  0  0  0
   24.2641    8.7705   54.3242 O   0  0  0  0  0  0  0  0  0  0  0  0
   24.9930    9.2255   54.8368 H   0  0  0  0  0  0  0  0  0  0  0  0
 20 21  2  0  0  0
 21 22  1  0  0  0
 22 15  1  0  0  0
 15 16  1  0  0  0
 16 17  1  0  0  0
 17 18  1  0  0  0
 18 19  1  0  0  0
 19 14  1  0  0  0
 14 13  1  0  0  0
 13 11  1  0  0  0
 11 12  2  0  0  0
 11  1  1  0  0  0
  1  2  2  0  0  0
  2  3  1  0  0  0
  3  4  1  0  0  0
  3  5  2  0  0  0
  5 32  1  0  0  0
 32 33  2  0  0  0
 32 34  1  0  0  0
 34 35  2  0  0  0
 35 36  1  0  0  0
 35 37  1  0  0  0
 37 38  2  0  0  0
 38 39  1  0  0  0
 39 40  2  0  0  0
 40 42  1  0  0  0
 42 43  2  0  0  0
 42 44  1  0  0  0
  5  6  1  0  0  0
  6  7  1  0  0  0
  6  8  2  0  0  0
 21 24  1  0  0  0
 24 25  2  0  0  0
 25 26  1  0  0  0
 26 27  2  0  0  0
 27 28  1  0  0  0
 27 29  1  0  0  0
 29 30  2  0  0  0
 19 15  1  0  0  0
  8  1  1  0  0  0
 30 24  1  0  0  0
 40 34  1  0  0  0
 22 23  1  0  0  0
  4  9  1  0  0  0
 36 41  1  0  0  0
 44 45  1  0  0  0
  7 10  1  0  0  0
 28 31  1  0  0  0
M  END
> <minimizedAffinity>
49.54940

> <CNNscore>
0.3657982051

> <CNNaffinity>
5.5524888039

> <CNN_VS>
2.0310904980

> <CNNaffinity_variance>
1.0064413548

$$$$
[H]OC(=O)C([H])([H])C([H])([H])c1c2c(n([H])c1C([H])=C1C(=O)N([H])c3c([H])c([H])c(S(=O)(=O)N([H])C([H])([H])[H])c([H])c31)C([H])([H])C([H])([H])C([H])([H])C2=O


 35 38  0  0  0  0  0  0  0  0999 V2000
   28.2226    9.1857   57.2636 C   0  0  0  0  0  0  0  0  0  0  0  0
   29.3786    9.1001   56.5177 C   0  0  0  0  0  0  0  0  0  0  0  0
   29.3382    8.8635   55.1652 C   0  0  0  0  0  0  0  0  0  0  0  0
   28.1253    8.6992   54.4844 C   0  0  0  0  0  0  0  0  0  0  0  0
   26.9678    8.7836   55.2239 C   0  0  0  0  0  0  0  0  0  0  0  0
   27.0463    9.0247   56.5949 C   0  0  0  0  0  0  0  0  0  0  0  0
   25.7860    8.5929   54.3575 C   0  0  0  0  0  0  0  0  0  0  0  0
   24.5358    8.6399   54.7400 C   0  0  0  0  0  0  0  0  0  0  0  0
   26.3689    8.3898   53.0406 C   0  0  0  0  0  0  0  0  0  0  0  0
   25.7540    8.1861   51.9626 O   0  0  0  0  0  0  0  0  0  0  0  0
   27.8041    8.4564   53.1307 N   0  0  0  0  0  0  0  0  0  0  0  0
   28.4922    8.3498   52.3626 H   0  0  0  0  0  0  0  0  0  0  0  0
   23.3594    8.4530   53.9141 C   0  0  0  0  0  0  0  0  0  0  0  0
   22.9637    8.9753   52.7551 N   0  0  0  0  0  0  0  0  0  0  0  0
   21.7579    8.4996   52.3889 C   0  0  0  0  0  0  0  0  0  0  0  0
   21.3319    7.6143   53.3558 C   0  0  0  0  0  0  0  0  0  0  0  0
   22.3311    7.5876   54.3032 C   0  0  0  0  0  0  0  0  0  0  0  0
   20.0438    6.9693   53.1738 C   0  0  0  0  0  0  0  0  0  0  0  0
   19.8818    5.8375   53.6915 O   0  0  0  0  0  0  0  0  0  0  0  0
   18.9334    7.6002   52.4065 C   0  0  0  0  0  0  0  0  0  0  0  0
   19.4459    8.9270   51.8293 C   0  0  0  0  0  0  0  0  0  0  0  0
   20.8406    8.7135   51.2279 C   0  0  0  0  0  0  0  0  0  0  0  0
   23.4813    9.6411   52.1741 H   0  0  0  0  0  0  0  0  0  0  0  0
   22.2859    6.7647   55.5120 C   0  0  0  0  0  0  0  0  0  0  0  0
   23.2248    5.5796   55.4872 C   0  0  0  0  0  0  0  0  0  0  0  0
   23.4756    5.2519   54.0675 C   0  0  0  0  0  0  0  0  0  0  0  0
   24.6069    5.3861   53.5645 O   0  0  0  0  0  0  0  0  0  0  0  0
   22.4379    4.7886   53.2840 O   0  0  0  0  0  0  0  0  0  0  0  0
   21.5807    5.3004   53.1224 H   0  0  0  0  0  0  0  0  0  0  0  0
   28.2406    9.4933   58.9768 S   0  0  0  0  0  0  0  0  0  0  0  0
   28.9040    8.3152   59.6335 O   0  0  0  0  0  0  0  0  0  0  0  0
   26.8611    9.6096   59.5194 O   0  0  0  0  0  0  0  0  0  0  0  0
   28.3324   12.0991   59.3303 C   0  0  0  0  0  0  0  0  0  0  0  0
   29.1386   10.8944   59.3972 N   0  0  0  0  0  0  0  0  0  0  0  0
   30.0372   10.9790   58.9175 H   0  0  0  0  0  0  0  0  0  0  0  0
 33 34  1  0  0  0
 34 30  1  0  0  0
 30 31  2  0  0  0
 30 32  2  0  0  0
 30  1  1  0  0  0
  1  2  2  0  0  0
  2  3  1  0  0  0
  3  4  2  0  0  0
  4  5  1  0  0  0
  5  6  2  0  0  0
  5  7  1  0  0  0
  7  8  2  0  0  0
  8 13  1  0  0  0
 13 14  1  0  0  0
 14 15  1  0  0  0
 15 16  2  0  0  0
 16 17  1  0  0  0
 17 24  1  0  0  0
 24 25  1  0  0  0
 25 26  1  0  0  0
 26 27  2  0  0  0
 26 28  1  0  0  0
 16 18  1  0  0  0
 18 19  2  0  0  0
 18 20  1  0  0  0
 20 21  1  0  0  0
 21 22  1  0  0  0
  7  9  1  0  0  0
  9 10  2  0  0  0
  9 11  1  0  0  0
  6  1  1  0  0  0
 17 13  2  0  0  0
 11  4  1  0  0  0
 22 15  1  0  0  0
 34 35  1  0  0  0
 14 23  1  0  0  0
 28 29  1  0  0  0
 11 12  1  0  0  0
M  END
> <minimizedAffinity>
23.59011

> <CNNscore>
0.4382295012

> <CNNaffinity>
6.2230081558

> <CNN_VS>
2.7271058559

> <CNNaffinity_variance>
0.2133798599

$$$$
[H]OC(=O)C([H])([H])C([H])([H])c1c2c(n([H])c1C([H])=C1C(=O)N([H])c3c([H])c([H])c(S(=O)(=O)N([H])C([H])([H])[H])c([H])c31)C([H])([H])C([H])([H])C([H])([H])C2=O


 35 38  0  0  0  0  0  0  0  0999 V2000
   28.1883   10.2910   50.7539 C   0  0  0  0  0  0  0  0  0  0  0  0
   29.2027   10.2996   51.6871 C   0  0  0  0  0  0  0  0  0  0  0  0
   29.0358    9.7315   52.9266 C   0  0  0  0  0  0  0  0  0  0  0  0
   27.8320    9.1194   53.2977 C   0  0  0  0  0  0  0  0  0  0  0  0
   26.8154    9.1079   52.3701 C   0  0  0  0  0  0  0  0  0  0  0  0
   27.0198    9.6942   51.1218 C   0  0  0  0  0  0  0  0  0  0  0  0
   25.6248    8.4243   52.9169 C   0  0  0  0  0  0  0  0  0  0  0  0
   24.4979    8.2184   52.2851 C   0  0  0  0  0  0  0  0  0  0  0  0
   26.0480    8.0384   54.2538 C   0  0  0  0  0  0  0  0  0  0  0  0
   25.3704    7.4208   55.1147 O   0  0  0  0  0  0  0  0  0  0  0  0
   27.4030    8.4705   54.4765 N   0  0  0  0  0  0  0  0  0  0  0  0
   27.9762    8.3415   55.3306 H   0  0  0  0  0  0  0  0  0  0  0  0
   23.3148    7.5557   52.7973 C   0  0  0  0  0  0  0  0  0  0  0  0
   22.8808    6.2978   52.7541 N   0  0  0  0  0  0  0  0  0  0  0  0
   21.6867    6.1697   53.3642 C   0  0  0  0  0  0  0  0  0  0  0  0
   21.3095    7.4081   53.8377 C   0  0  0  0  0  0  0  0  0  0  0  0
   22.3252    8.2680   53.4833 C   0  0  0  0  0  0  0  0  0  0  0  0
   20.0424    7.5162   54.5386 C   0  0  0  0  0  0  0  0  0  0  0  0
   19.9301    8.4215   55.4007 O   0  0  0  0  0  0  0  0  0  0  0  0
   18.8971    6.6026   54.2683 C   0  0  0  0  0  0  0  0  0  0  0  0
   19.3516    5.5596   53.2379 C   0  0  0  0  0  0  0  0  0  0  0  0
   20.7425    5.0396   53.6220 C   0  0  0  0  0  0  0  0  0  0  0  0
   23.3641    5.4962   52.3384 H   0  0  0  0  0  0  0  0  0  0  0  0
   22.3304    9.6966   53.7988 C   0  0  0  0  0  0  0  0  0  0  0  0
   21.1675   10.4629   53.2099 C   0  0  0  0  0  0  0  0  0  0  0  0
   21.1483   10.1789   51.7591 C   0  0  0  0  0  0  0  0  0  0  0  0
   20.8003    9.0649   51.3243 O   0  0  0  0  0  0  0  0  0  0  0  0
   21.5227   11.1652   50.8690 O   0  0  0  0  0  0  0  0  0  0  0  0
   22.4280   11.6162   50.8744 H   0  0  0  0  0  0  0  0  0  0  0  0
   28.3720   10.9944   49.1724 S   0  0  0  0  0  0  0  0  0  0  0  0
   28.8711    9.9104   48.2585 O   0  0  0  0  0  0  0  0  0  0  0  0
   29.3763   12.0908   49.1820 O   0  0  0  0  0  0  0  0  0  0  0  0
   26.7584   13.0154   48.6871 C   0  0  0  0  0  0  0  0  0  0  0  0
   26.8948   11.5800   48.5232 N   0  0  0  0  0  0  0  0  0  0  0  0
   26.0679   11.0564   48.8176 H   0  0  0  0  0  0  0  0  0  0  0  0
 33 34  1  0  0  0
 34 30  1  0  0  0
 30 31  2  0  0  0
 30 32  2  0  0  0
 30  1  1  0  0  0
  1  2  2  0  0  0
  2  3  1  0  0  0
  3  4  2  0  0  0
  4  5  1  0  0  0
  5  6  2  0  0  0
  5  7  1  0  0  0
  7  8  2  0  0  0
  8 13  1  0  0  0
 13 14  1  0  0  0
 14 15  1  0  0  0
 15 16  2  0  0  0
 16 17  1  0  0  0
 17 24  1  0  0  0
 24 25  1  0  0  0
 25 26  1  0  0  0
 26 27  2  0  0  0
 26 28  1  0  0  0
 16 18  1  0  0  0
 18 19  2  0  0  0
 18 20  1  0  0  0
 20 21  1  0  0  0
 21 22  1  0  0  0
  7  9  1  0  0  0
  9 10  2  0  0  0
  9 11  1  0  0  0
  6  1  1  0  0  0
 17 13  2  0  0  0
 11  4  1  0  0  0
 22 15  1  0  0  0
 34 35  1  0  0  0
 14 23  1  0  0  0
 28 29  1  0  0  0
 11 12  1  0  0  0
M  END
> <minimizedAffinity>
38.47413

> <CNNscore>
0.4123477638

> <CNNaffinity>
6.0231199265

> <CNN_VS>
2.4836199284

> <CNNaffinity_variance>
0.8343601227

$$$$
[H]OC(=O)C([H])([H])C([H])([H])c1c2c(n([H])c1C([H])=C1C(=O)N([H])c3c([H])c([H])c(S(=O)(=O)N([H])C([H])([H])[H])c([H])c31)C([H])([H])C([H])([H])C([H])([H])C2=O


 35 38  0  0  0  0  0  0  0  0999 V2000
   21.8801   12.1782   52.4553 C   0  0  0  0  0  0  0  0  0  0  0  0
   22.6644   12.5725   53.5181 C   0  0  0  0  0  0  0  0  0  0  0  0
   22.8346   11.7652   54.6163 C   0  0  0  0  0  0  0  0  0  0  0  0
   22.2216   10.5091   54.7065 C   0  0  0  0  0  0  0  0  0  0  0  0
   21.4373   10.1101   53.6484 C   0  0  0  0  0  0  0  0  0  0  0  0
   21.2866   10.9552   52.5498 C   0  0  0  0  0  0  0  0  0  0  0  0
   20.8728    8.7680   53.9010 C   0  0  0  0  0  0  0  0  0  0  0  0
   20.1073    8.0893   53.0856 C   0  0  0  0  0  0  0  0  0  0  0  0
   21.4058    8.4243   55.2098 C   0  0  0  0  0  0  0  0  0  0  0  0
   21.2056    7.3636   55.8552 O   0  0  0  0  0  0  0  0  0  0  0  0
   22.2311    9.4997   55.6942 N   0  0  0  0  0  0  0  0  0  0  0  0
   22.7450    9.5477   56.5934 H   0  0  0  0  0  0  0  0  0  0  0  0
   19.5374    6.7753   53.3087 C   0  0  0  0  0  0  0  0  0  0  0  0
   18.3213    6.3517   53.6464 N   0  0  0  0  0  0  0  0  0  0  0  0
   18.2834    5.0100   53.7607 C   0  0  0  0  0  0  0  0  0  0  0  0
   19.5407    4.5180   53.4832 C   0  0  0  0  0  0  0  0  0  0  0  0
   20.3184    5.6194   53.2021 C   0  0  0  0  0  0  0  0  0  0  0  0
   19.7427    3.0814   53.5447 C   0  0  0  0  0  0  0  0  0  0  0  0
   20.6393    2.5886   52.8177 O   0  0  0  0  0  0  0  0  0  0  0  0
   18.9330    2.1959   54.4278 C   0  0  0  0  0  0  0  0  0  0  0  0
   17.8734    3.0589   55.1267 C   0  0  0  0  0  0  0  0  0  0  0  0
   17.2321    4.0034   54.1023 C   0  0  0  0  0  0  0  0  0  0  0  0
   17.4893    6.9304   53.7937 H   0  0  0  0  0  0  0  0  0  0  0  0
   21.7359    5.5466   52.8475 C   0  0  0  0  0  0  0  0  0  0  0  0
   22.6657    5.4560   54.0364 C   0  0  0  0  0  0  0  0  0  0  0  0
   23.7869    6.3864   53.7848 C   0  0  0  0  0  0  0  0  0  0  0  0
   24.5423    6.2365   52.8060 O   0  0  0  0  0  0  0  0  0  0  0  0
   24.0016    7.4407   54.6494 O   0  0  0  0  0  0  0  0  0  0  0  0
   24.1775    7.3318   55.6394 H   0  0  0  0  0  0  0  0  0  0  0  0
   21.6522   13.1744   51.0462 S   0  0  0  0  0  0  0  0  0  0  0  0
   21.1156   12.2884   49.9570 O   0  0  0  0  0  0  0  0  0  0  0  0
   22.9399   13.7534   50.5799 O   0  0  0  0  0  0  0  0  0  0  0  0
   19.9874   14.4371   52.6456 C   0  0  0  0  0  0  0  0  0  0  0  0
   20.5159   14.4368   51.2941 N   0  0  0  0  0  0  0  0  0  0  0  0
   19.7929   14.5007   50.5745 H   0  0  0  0  0  0  0  0  0  0  0  0
 33 34  1  0  0  0
 34 30  1  0  0  0
 30 31  2  0  0  0
 30 32  2  0  0  0
 30  1  1  0  0  0
  1  2  2  0  0  0
  2  3  1  0  0  0
  3  4  2  0  0  0
  4  5  1  0  0  0
  5  6  2  0  0  0
  5  7  1  0  0  0
  7  8  2  0  0  0
  8 13  1  0  0  0
 13 14  1  0  0  0
 14 15  1  0  0  0
 15 16  2  0  0  0
 16 17  1  0  0  0
 17 24  1  0  0  0
 24 25  1  0  0  0
 25 26  1  0  0  0
 26 27  2  0  0  0
 26 28  1  0  0  0
 16 18  1  0  0  0
 18 19  2  0  0  0
 18 20  1  0  0  0
 20 21  1  0  0  0
 21 22  1  0  0  0
  7  9  1  0  0  0
  9 10  2  0  0  0
  9 11  1  0  0  0
  6  1  1  0  0  0
 17 13  2  0  0  0
 11  4  1  0  0  0
 22 15  1  0  0  0
 34 35  1  0  0  0
 14 23  1  0  0  0
 28 29  1  0  0  0
 11 12  1  0  0  0
M  END
> <minimizedAffinity>
37.52010

> <CNNscore>
0.3993891478

> <CNNaffinity>
6.2477731705

> <CNN_VS>
2.4952929020

> <CNNaffinity_variance>
0.7082762122

$$$$
[H]OC(=O)C([H])([H])C([H])([H])c1c2c(n([H])c1C([H])=C1C(=O)N([H])c3c([H])c([H])c(S(=O)(=O)N([H])C([H])([H])[H])c([H])c31)C([H])([H])C([H])([H])C([H])([H])C2=O


 35 38  0  0  0  0  0  0  0  0999 V2000
   28.2166    9.1213   57.2225 C   0  0  0  0  0  0  0  0  0  0  0  0
   29.3790    9.2564   56.4940 C   0  0  0  0  0  0  0  0  0  0  0  0
   29.3789    9.1457   55.1248 C   0  0  0  0  0  0  0  0  0  0  0  0
   28.2023    8.8917   54.4087 C   0  0  0  0  0  0  0  0  0  0  0  0
   27.0386    8.7558   55.1307 C   0  0  0  0  0  0  0  0  0  0  0  0
   27.0758    8.8740   56.5194 C   0  0  0  0  0  0  0  0  0  0  0  0
   25.8976    8.4972   54.2280 C   0  0  0  0  0  0  0  0  0  0  0  0
   24.6494    8.3461   54.5893 C   0  0  0  0  0  0  0  0  0  0  0  0
   26.5110    8.4965   52.9092 C   0  0  0  0  0  0  0  0  0  0  0  0
   25.9351    8.3182   51.8054 O   0  0  0  0  0  0  0  0  0  0  0  0
   27.9246    8.7387   53.0324 N   0  0  0  0  0  0  0  0  0  0  0  0
   28.6259    8.7950   52.2710 H   0  0  0  0  0  0  0  0  0  0  0  0
   23.5129    8.0882   53.7274 C   0  0  0  0  0  0  0  0  0  0  0  0
   23.1591    8.5331   52.5234 N   0  0  0  0  0  0  0  0  0  0  0  0
   21.9782    8.0136   52.1361 C   0  0  0  0  0  0  0  0  0  0  0  0
   21.5254    7.1795   53.1358 C   0  0  0  0  0  0  0  0  0  0  0  0
   22.4832    7.2282   54.1243 C   0  0  0  0  0  0  0  0  0  0  0  0
   20.2572    6.5005   52.9389 C   0  0  0  0  0  0  0  0  0  0  0  0
   20.0916    5.3986   53.5166 O   0  0  0  0  0  0  0  0  0  0  0  0
   19.1708    7.0635   52.0889 C   0  0  0  0  0  0  0  0  0  0  0  0
   19.6859    8.3631   51.4550 C   0  0  0  0  0  0  0  0  0  0  0  0
   21.1085    8.1407   50.9267 C   0  0  0  0  0  0  0  0  0  0  0  0
   23.6904    9.1728   51.9256 H   0  0  0  0  0  0  0  0  0  0  0  0
   22.3994    6.4779   55.3774 C   0  0  0  0  0  0  0  0  0  0  0  0
   21.8282    7.2684   56.5330 C   0  0  0  0  0  0  0  0  0  0  0  0
   21.4524    8.5983   56.0078 C   0  0  0  0  0  0  0  0  0  0  0  0
   20.3995    8.7635   55.3634 O   0  0  0  0  0  0  0  0  0  0  0  0
   22.2825    9.6775   56.2349 O   0  0  0  0  0  0  0  0  0  0  0  0
   23.2487    9.7184   55.9389 H   0  0  0  0  0  0  0  0  0  0  0  0
   28.1827    9.2650   58.9569 S   0  0  0  0  0  0  0  0  0  0  0  0
   28.7612    7.9971   59.5198 O   0  0  0  0  0  0  0  0  0  0  0  0
   26.7905    9.4023   59.4606 O   0  0  0  0  0  0  0  0  0  0  0  0
   28.4950   11.8541   59.3069 C   0  0  0  0  0  0  0  0  0  0  0  0
   29.1315   10.5711   59.5402 N   0  0  0  0  0  0  0  0  0  0  0  0
   30.1109   10.5438   59.2490 H   0  0  0  0  0  0  0  0  0  0  0  0
 33 34  1  0  0  0
 34 30  1  0  0  0
 30 31  2  0  0  0
 30 32  2  0  0  0
 30  1  1  0  0  0
  1  2  2  0  0  0
  2  3  1  0  0  0
  3  4  2  0  0  0
  4  5  1  0  0  0
  5  6  2  0  0  0
  5  7  1  0  0  0
  7  8  2  0  0  0
  8 13  1  0  0  0
 13 14  1  0  0  0
 14 15  1  0  0  0
 15 16  2  0  0  0
 16 17  1  0  0  0
 17 24  1  0  0  0
 24 25  1  0  0  0
 25 26  1  0  0  0
 26 27  2  0  0  0
 26 28  1  0  0  0
 16 18  1  0  0  0
 18 19  2  0  0  0
 18 20  1  0  0  0
 20 21  1  0  0  0
 21 22  1  0  0  0
  7  9  1  0  0  0
  9 10  2  0  0  0
  9 11  1  0  0  0
  6  1  1  0  0  0
 17 13  2  0  0  0
 11  4  1  0  0  0
 22 15  1  0  0  0
 34 35  1  0  0  0
 14 23  1  0  0  0
 28 29  1  0  0  0
 11 12  1  0  0  0
M  END
> <minimizedAffinity>
22.06254

> <CNNscore>
0.3855625391

> <CNNaffinity>
6.1164202690

> <CNN_VS>
2.3582625389

> <CNNaffinity_variance>
0.3049415648

$$$$
[H]OC(=O)C([H])([H])C([H])([H])c1c2c(n([H])c1C([H])=C1C(=O)N([H])c3c([H])c([H])c(S(=O)(=O)N([H])C([H])([H])[H])c([H])c31)C([H])([H])C([H])([H])C([H])([H])C2=O


 35 38  0  0  0  0  0  0  0  0999 V2000
   20.0662    5.8235   53.1719 C   0  0  0  0  0  0  0  0  0  0  0  0
   19.2430    6.7436   52.5588 C   0  0  0  0  0  0  0  0  0  0  0  0
   19.5508    8.0823   52.5520 C   0  0  0  0  0  0  0  0  0  0  0  0
   20.7109    8.5721   53.1650 C   0  0  0  0  0  0  0  0  0  0  0  0
   21.5367    7.6582   53.7788 C   0  0  0  0  0  0  0  0  0  0  0  0
   21.1929    6.3071   53.7664 C   0  0  0  0  0  0  0  0  0  0  0  0
   22.7102    8.3360   54.3680 C   0  0  0  0  0  0  0  0  0  0  0  0
   23.6984    7.7550   54.9983 C   0  0  0  0  0  0  0  0  0  0  0  0
   22.4870    9.7345   54.0366 C   0  0  0  0  0  0  0  0  0  0  0  0
   23.2265   10.7096   54.3264 O   0  0  0  0  0  0  0  0  0  0  0  0
   21.2577    9.8673   53.2994 N   0  0  0  0  0  0  0  0  0  0  0  0
   20.8336   10.7371   52.9273 H   0  0  0  0  0  0  0  0  0  0  0  0
   24.8577    8.3943   55.5885 C   0  0  0  0  0  0  0  0  0  0  0  0
   25.0344    9.1433   56.6750 N   0  0  0  0  0  0  0  0  0  0  0  0
   26.3175    9.5350   56.7973 C   0  0  0  0  0  0  0  0  0  0  0  0
   27.0292    9.0177   55.7362 C   0  0  0  0  0  0  0  0  0  0  0  0
   26.1175    8.3083   54.9862 C   0  0  0  0  0  0  0  0  0  0  0  0
   28.4489    9.3110   55.6561 C   0  0  0  0  0  0  0  0  0  0  0  0
   29.1836    8.4756   55.0751 O   0  0  0  0  0  0  0  0  0  0  0  0
   29.0447   10.5494   56.2318 C   0  0  0  0  0  0  0  0  0  0  0  0
   27.9299   11.3294   56.9424 C   0  0  0  0  0  0  0  0  0  0  0  0
   27.0862   10.3596   57.7792 C   0  0  0  0  0  0  0  0  0  0  0  0
   24.3228    9.3998   57.3654 H   0  0  0  0  0  0  0  0  0  0  0  0
   26.4571    7.5876   53.7592 C   0  0  0  0  0  0  0  0  0  0  0  0
   26.1649    8.3569   52.4907 C   0  0  0  0  0  0  0  0  0  0  0  0
   27.4270    9.0037   52.0727 C   0  0  0  0  0  0  0  0  0  0  0  0
   27.5235    9.5792   50.9725 O   0  0  0  0  0  0  0  0  0  0  0  0
   28.5191    8.9699   52.9162 O   0  0  0  0  0  0  0  0  0  0  0  0
   28.9462    8.1171   53.2526 H   0  0  0  0  0  0  0  0  0  0  0  0
   19.7082    4.1202   53.1898 S   0  0  0  0  0  0  0  0  0  0  0  0
   21.0019    3.3962   53.4377 O   0  0  0  0  0  0  0  0  0  0  0  0
   19.1679    3.6678   51.8805 O   0  0  0  0  0  0  0  0  0  0  0  0
   17.2336    3.7972   54.0239 C   0  0  0  0  0  0  0  0  0  0  0  0
   18.6186    3.6771   54.4399 N   0  0  0  0  0  0  0  0  0  0  0  0
   18.8118    4.1157   55.3427 H   0  0  0  0  0  0  0  0  0  0  0  0
 33 34  1  0  0  0
 34 30  1  0  0  0
 30 31  2  0  0  0
 30 32  2  0  0  0
 30  1  1  0  0  0
  1  2  2  0  0  0
  2  3  1  0  0  0
  3  4  2  0  0  0
  4  5  1  0  0  0
  5  6  2  0  0  0
  5  7  1  0  0  0
  7  8  2  0  0  0
  8 13  1  0  0  0
 13 14  1  0  0  0
 14 15  1  0  0  0
 15 16  2  0  0  0
 16 17  1  0  0  0
 17 24  1  0  0  0
 24 25  1  0  0  0
 25 26  1  0  0  0
 26 27  2  0  0  0
 26 28  1  0  0  0
 16 18  1  0  0  0
 18 19  2  0  0  0
 18 20  1  0  0  0
 20 21  1  0  0  0
 21 22  1  0  0  0
  7  9  1  0  0  0
  9 10  2  0  0  0
  9 11  1  0  0  0
  6  1  1  0  0  0
 17 13  2  0  0  0
 11  4  1  0  0  0
 22 15  1  0  0  0
 34 35  1  0  0  0
 14 23  1  0  0  0
 28 29  1  0  0  0
 11 12  1  0  0  0
M  END
> <minimizedAffinity>
38.92834

> <CNNscore>
0.3724351823

> <CNNaffinity>
5.8951826096

> <CNN_VS>
2.1955733299

> <CNNaffinity_variance>
0.5172806978

$$$$
[H]OC(=O)C([H])([H])C([H])([H])c1c2c(n([H])c1C([H])=C1C(=O)N([H])c3c([H])c([H])c(S(=O)(=O)N([H])C([H])([H])[H])c([H])c31)C([H])([H])C([H])([H])C([H])([H])C2=O


 35 38  0  0  0  0  0  0  0  0999 V2000
   28.2163    9.4258   57.1260 C   0  0  0  0  0  0  0  0  0  0  0  0
   29.1808    9.6242   56.1615 C   0  0  0  0  0  0  0  0  0  0  0  0
   28.9331    9.3489   54.8387 C   0  0  0  0  0  0  0  0  0  0  0  0
   27.6938    8.8561   54.4107 C   0  0  0  0  0  0  0  0  0  0  0  0
   26.7269    8.6560   55.3694 C   0  0  0  0  0  0  0  0  0  0  0  0
   27.0132    8.9460   56.7027 C   0  0  0  0  0  0  0  0  0  0  0  0
   25.4867    8.1408   54.7527 C   0  0  0  0  0  0  0  0  0  0  0  0
   24.3705    7.8708   55.3793 C   0  0  0  0  0  0  0  0  0  0  0  0
   25.8261    8.0611   53.3407 C   0  0  0  0  0  0  0  0  0  0  0  0
   25.0823    7.6753   52.4029 O   0  0  0  0  0  0  0  0  0  0  0  0
   27.1823    8.5016   53.1430 N   0  0  0  0  0  0  0  0  0  0  0  0
   27.7059    8.5573   52.2499 H   0  0  0  0  0  0  0  0  0  0  0  0
   23.1425    7.3618   54.8014 C   0  0  0  0  0  0  0  0  0  0  0  0
   22.4447    6.2417   54.9779 N   0  0  0  0  0  0  0  0  0  0  0  0
   21.3603    6.2084   54.1794 C   0  0  0  0  0  0  0  0  0  0  0  0
   21.3376    7.3681   53.4346 C   0  0  0  0  0  0  0  0  0  0  0  0
   22.4480    8.0835   53.8245 C   0  0  0  0  0  0  0  0  0  0  0  0
   20.2481    7.5559   52.4934 C   0  0  0  0  0  0  0  0  0  0  0  0
   19.9056    8.7338   52.2278 O   0  0  0  0  0  0  0  0  0  0  0  0
   19.5413    6.4141   51.8480 C   0  0  0  0  0  0  0  0  0  0  0  0
   20.1160    5.1115   52.4217 C   0  0  0  0  0  0  0  0  0  0  0  0
   20.2447    5.2413   53.9446 C   0  0  0  0  0  0  0  0  0  0  0  0
   22.6557    5.4848   55.6348 H   0  0  0  0  0  0  0  0  0  0  0  0
   22.8062    9.3929   53.2793 C   0  0  0  0  0  0  0  0  0  0  0  0
   21.8578   10.5042   53.6691 C   0  0  0  0  0  0  0  0  0  0  0  0
   21.7100   10.4554   55.1394 C   0  0  0  0  0  0  0  0  0  0  0  0
   20.5895   10.5294   55.6781 O   0  0  0  0  0  0  0  0  0  0  0  0
   22.8334   10.3254   55.9308 O   0  0  0  0  0  0  0  0  0  0  0  0
   23.6058   10.9783   55.9259 H   0  0  0  0  0  0  0  0  0  0  0  0
   28.4966    9.7735   58.8084 S   0  0  0  0  0  0  0  0  0  0  0  0
   29.3769    8.6811   59.3479 O   0  0  0  0  0  0  0  0  0  0  0  0
   27.2258    9.7678   59.5804 O   0  0  0  0  0  0  0  0  0  0  0  0
   28.4383   12.2689   59.6411 C   0  0  0  0  0  0  0  0  0  0  0  0
   29.3090   11.2647   59.0587 N   0  0  0  0  0  0  0  0  0  0  0  0
   29.8325   11.6010   58.2478 H   0  0  0  0  0  0  0  0  0  0  0  0
 33 34  1  0  0  0
 34 30  1  0  0  0
 30 31  2  0  0  0
 30 32  2  0  0  0
 30  1  1  0  0  0
  1  2  2  0  0  0
  2  3  1  0  0  0
  3  4  2  0  0  0
  4  5  1  0  0  0
  5  6  2  0  0  0
  5  7  1  0  0  0
  7  8  2  0  0  0
  8 13  1  0  0  0
 13 14  1  0  0  0
 14 15  1  0  0  0
 15 16  2  0  0  0
 16 17  1  0  0  0
 17 24  1  0  0  0
 24 25  1  0  0  0
 25 26  1  0  0  0
 26 27  2  0  0  0
 26 28  1  0  0  0
 16 18  1  0  0  0
 18 19  2  0  0  0
 18 20  1  0  0  0
 20 21  1  0  0  0
 21 22  1  0  0  0
  7  9  1  0  0  0
  9 10  2  0  0  0
  9 11  1  0  0  0
  6  1  1  0  0  0
 17 13  2  0  0  0
 11  4  1  0  0  0
 22 15  1  0  0  0
 34 35  1  0  0  0
 14 23  1  0  0  0
 28 29  1  0  0  0
 11 12  1  0  0  0
M  END
> <minimizedAffinity>
18.65395

> <CNNscore>
0.3685378730

> <CNNaffinity>
6.2316498756

> <CNN_VS>
2.2965989113

> <CNNaffinity_variance>
0.3224620223

$$$$
[H]OC(=O)C([H])([H])C([H])([H])c1c2c(n([H])c1C([H])=C1C(=O)N([H])c3c([H])c([H])c(S(=O)(=O)N([H])C([H])([H])[H])c([H])c31)C([H])([H])C([H])([H])C([H])([H])C2=O


 35 38  0  0  0  0  0  0  0  0999 V2000
   27.9208    9.5428   51.4067 C   0  0  0  0  0  0  0  0  0  0  0  0
   28.7514    9.7688   52.4834 C   0  0  0  0  0  0  0  0  0  0  0  0
   28.4004    9.3702   53.7502 C   0  0  0  0  0  0  0  0  0  0  0  0
   27.1874    8.7182   54.0053 C   0  0  0  0  0  0  0  0  0  0  0  0
   26.3540    8.4899   52.9341 C   0  0  0  0  0  0  0  0  0  0  0  0
   26.7423    8.9083   51.6622 C   0  0  0  0  0  0  0  0  0  0  0  0
   25.1270    7.7933   53.3734 C   0  0  0  0  0  0  0  0  0  0  0  0
   24.1439    7.4061   52.6020 C   0  0  0  0  0  0  0  0  0  0  0  0
   25.3279    7.6379   54.8055 C   0  0  0  0  0  0  0  0  0  0  0  0
   24.5453    7.0940   55.6261 O   0  0  0  0  0  0  0  0  0  0  0  0
   26.5944    8.2093   55.1817 N   0  0  0  0  0  0  0  0  0  0  0  0
   27.0135    8.2514   56.1290 H   0  0  0  0  0  0  0  0  0  0  0  0
   22.9293    6.7258   53.0056 C   0  0  0  0  0  0  0  0  0  0  0  0
   22.6795    5.5102   53.4879 N   0  0  0  0  0  0  0  0  0  0  0  0
   21.3610    5.3253   53.6930 C   0  0  0  0  0  0  0  0  0  0  0  0
   20.7019    6.4797   53.3283 C   0  0  0  0  0  0  0  0  0  0  0  0
   21.6811    7.3491   52.9013 C   0  0  0  0  0  0  0  0  0  0  0  0
   19.2567    6.5149   53.4640 C   0  0  0  0  0  0  0  0  0  0  0  0
   18.7182    7.6313   53.6617 O   0  0  0  0  0  0  0  0  0  0  0  0
   18.4140    5.2894   53.3767 C   0  0  0  0  0  0  0  0  0  0  0  0
   19.3456    4.0802   53.2150 C   0  0  0  0  0  0  0  0  0  0  0  0
   20.5133    4.2040   54.2018 C   0  0  0  0  0  0  0  0  0  0  0  0
   23.3676    4.7839   53.7064 H   0  0  0  0  0  0  0  0  0  0  0  0
   21.4140    8.7062   52.4246 C   0  0  0  0  0  0  0  0  0  0  0  0
   22.1466    9.7847   53.1905 C   0  0  0  0  0  0  0  0  0  0  0  0
   21.8031    9.6149   54.6185 C   0  0  0  0  0  0  0  0  0  0  0  0
   22.6318    9.8611   55.5150 O   0  0  0  0  0  0  0  0  0  0  0  0
   20.5415    9.1756   54.9659 O   0  0  0  0  0  0  0  0  0  0  0  0
   20.1454    8.2971   54.6588 H   0  0  0  0  0  0  0  0  0  0  0  0
   28.3411   10.0277   49.7886 S   0  0  0  0  0  0  0  0  0  0  0  0
   29.3788   11.1090   49.9035 O   0  0  0  0  0  0  0  0  0  0  0  0
   27.1661   10.5880   49.0701 O   0  0  0  0  0  0  0  0  0  0  0  0
   28.6342    8.8275   47.4654 C   0  0  0  0  0  0  0  0  0  0  0  0
   29.0214    8.7530   48.8619 N   0  0  0  0  0  0  0  0  0  0  0  0
   28.8986    7.8236   49.2692 H   0  0  0  0  0  0  0  0  0  0  0  0
 33 34  1  0  0  0
 34 30  1  0  0  0
 30 31  2  0  0  0
 30 32  2  0  0  0
 30  1  1  0  0  0
  1  2  2  0  0  0
  2  3  1  0  0  0
  3  4  2  0  0  0
  4  5  1  0  0  0
  5  6  2  0  0  0
  5  7  1  0  0  0
  7  8  2  0  0  0
  8 13  1  0  0  0
 13 14  1  0  0  0
 14 15  1  0  0  0
 15 16  2  0  0  0
 16 17  1  0  0  0
 17 24  1  0  0  0
 24 25  1  0  0  0
 25 26  1  0  0  0
 26 27  2  0  0  0
 26 28  1  0  0  0
 16 18  1  0  0  0
 18 19  2  0  0  0
 18 20  1  0  0  0
 20 21  1  0  0  0
 21 22  1  0  0  0
  7  9  1  0  0  0
  9 10  2  0  0  0
  9 11  1  0  0  0
  6  1  1  0  0  0
 17 13  2  0  0  0
 11  4  1  0  0  0
 22 15  1  0  0  0
 34 35  1  0  0  0
 14 23  1  0  0  0
 28 29  1  0  0  0
 11 12  1  0  0  0
M  END
> <minimizedAffinity>
28.87346

> <CNNscore>
0.3457786143

> <CNNaffinity>
5.9659128189

> <CNN_VS>
2.0628850460

> <CNNaffinity_variance>
0.4430289865

$$$$
[H]OC(=O)C([H])([H])C([H])([H])c1c2c(n([H])c1C([H])=C1C(=O)N([H])c3c([H])c([H])c(S(=O)(=O)N([H])C([H])([H])[H])c([H])c31)C([H])([H])C([H])([H])C([H])([H])C2=O


 35 38  0  0  0  0  0  0  0  0999 V2000
   25.8112    9.1582   54.9767 C   0  0  0  0  0  0  0  0  0  0  0  0
   25.6611   10.3278   55.6905 C   0  0  0  0  0  0  0  0  0  0  0  0
   24.4204   10.7720   56.0781 C   0  0  0  0  0  0  0  0  0  0  0  0
   23.2552   10.0595   55.7673 C   0  0  0  0  0  0  0  0  0  0  0  0
   23.3989    8.8910   55.0546 C   0  0  0  0  0  0  0  0  0  0  0  0
   24.6736    8.4704   54.6776 C   0  0  0  0  0  0  0  0  0  0  0  0
   22.0814    8.2658   54.8163 C   0  0  0  0  0  0  0  0  0  0  0  0
   21.8674    7.1352   54.1939 C   0  0  0  0  0  0  0  0  0  0  0  0
   21.1562    9.1847   55.4606 C   0  0  0  0  0  0  0  0  0  0  0  0
   19.9050    9.0776   55.5279 O   0  0  0  0  0  0  0  0  0  0  0  0
   21.8873   10.2812   56.0398 N   0  0  0  0  0  0  0  0  0  0  0  0
   21.5052   11.0911   56.5622 H   0  0  0  0  0  0  0  0  0  0  0  0
   20.5880    6.5018   53.9429 C   0  0  0  0  0  0  0  0  0  0  0  0
   19.3308    6.9392   53.9681 N   0  0  0  0  0  0  0  0  0  0  0  0
   18.4617    5.9509   53.6810 C   0  0  0  0  0  0  0  0  0  0  0  0
   19.1808    4.7974   53.4525 C   0  0  0  0  0  0  0  0  0  0  0  0
   20.5036    5.1440   53.6161 C   0  0  0  0  0  0  0  0  0  0  0  0
   18.4482    3.5882   53.1216 C   0  0  0  0  0  0  0  0  0  0  0  0
   19.0317    2.7292   52.4166 O   0  0  0  0  0  0  0  0  0  0  0  0
   17.0538    3.3442   53.5859 C   0  0  0  0  0  0  0  0  0  0  0  0
   16.5802    4.5890   54.3490 C   0  0  0  0  0  0  0  0  0  0  0  0
   16.9750    5.8460   53.5637 C   0  0  0  0  0  0  0  0  0  0  0  0
   19.0180    7.8957   54.1585 H   0  0  0  0  0  0  0  0  0  0  0  0
   21.6166    4.2076   53.4589 C   0  0  0  0  0  0  0  0  0  0  0  0
   22.9118    4.6784   54.0811 C   0  0  0  0  0  0  0  0  0  0  0  0
   23.5738    5.5595   53.0955 C   0  0  0  0  0  0  0  0  0  0  0  0
   24.7623    5.9048   53.2346 O   0  0  0  0  0  0  0  0  0  0  0  0
   22.8630    6.0084   52.0008 O   0  0  0  0  0  0  0  0  0  0  0  0
   22.0093    6.5470   52.0644 H   0  0  0  0  0  0  0  0  0  0  0  0
   27.3701    8.5647   54.4790 S   0  0  0  0  0  0  0  0  0  0  0  0
   27.7186    9.2555   53.1904 O   0  0  0  0  0  0  0  0  0  0  0  0
   27.3345    7.1002   54.2244 O   0  0  0  0  0  0  0  0  0  0  0  0
   28.0816    9.3048   56.9018 C   0  0  0  0  0  0  0  0  0  0  0  0
   28.6136    8.9170   55.6086 N   0  0  0  0  0  0  0  0  0  0  0  0
   29.3342    9.5515   55.2581 H   0  0  0  0  0  0  0  0  0  0  0  0
 33 34  1  0  0  0
 34 30  1  0  0  0
 30 31  2  0  0  0
 30 32  2  0  0  0
 30  1  1  0  0  0
  1  2  2  0  0  0
  2  3  1  0  0  0
  3  4  2  0  0  0
  4  5  1  0  0  0
  5  6  2  0  0  0
  5  7  1  0  0  0
  7  8  2  0  0  0
  8 13  1  0  0  0
 13 14  1  0  0  0
 14 15  1  0  0  0
 15 16  2  0  0  0
 16 17  1  0  0  0
 17 24  1  0  0  0
 24 25  1  0  0  0
 25 26  1  0  0  0
 26 27  2  0  0  0
 26 28  1  0  0  0
 16 18  1  0  0  0
 18 19  2  0  0  0
 18 20  1  0  0  0
 20 21  1  0  0  0
 21 22  1  0  0  0
  7  9  1  0  0  0
  9 10  2  0  0  0
  9 11  1  0  0  0
  6  1  1  0  0  0
 17 13  2  0  0  0
 11  4  1  0  0  0
 22 15  1  0  0  0
 34 35  1  0  0  0
 14 23  1  0  0  0
 28 29  1  0  0  0
 11 12  1  0  0  0
M  END
> <minimizedAffinity>
36.17001

> <CNNscore>
0.3416540027

> <CNNaffinity>
6.2694525719

> <CNN_VS>
2.1419835091

> <CNNaffinity_variance>
0.5151418447

$$$$
[H]OC(=O)C([H])([H])C([H])([H])c1c2c(n([H])c1C([H])=C1C(=O)N([H])c3c([H])c([H])c(S(=O)(=O)N([H])C([H])([H])[H])c([H])c31)C([H])([H])C([H])([H])C([H])([H])C2=O


 35 38  0  0  0  0  0  0  0  0999 V2000
   19.3016    5.4265   53.3319 C   0  0  0  0  0  0  0  0  0  0  0  0
   18.5401    6.2683   52.5500 C   0  0  0  0  0  0  0  0  0  0  0  0
   19.0492    7.4505   52.0704 C   0  0  0  0  0  0  0  0  0  0  0  0
   20.3607    7.8533   52.3525 C   0  0  0  0  0  0  0  0  0  0  0  0
   21.1258    7.0169   53.1328 C   0  0  0  0  0  0  0  0  0  0  0  0
   20.5764    5.8247   53.6026 C   0  0  0  0  0  0  0  0  0  0  0  0
   22.4757    7.5850   53.3295 C   0  0  0  0  0  0  0  0  0  0  0  0
   23.4541    7.0304   53.9977 C   0  0  0  0  0  0  0  0  0  0  0  0
   22.4218    8.8343   52.5866 C   0  0  0  0  0  0  0  0  0  0  0  0
   23.3448    9.6783   52.4548 O   0  0  0  0  0  0  0  0  0  0  0  0
   21.1198    8.9885   51.9923 N   0  0  0  0  0  0  0  0  0  0  0  0
   20.7801    9.7740   51.4071 H   0  0  0  0  0  0  0  0  0  0  0  0
   24.7844    7.5659   54.2096 C   0  0  0  0  0  0  0  0  0  0  0  0
   25.9471    7.4001   53.5825 N   0  0  0  0  0  0  0  0  0  0  0  0
   26.9297    8.1040   54.1769 C   0  0  0  0  0  0  0  0  0  0  0  0
   26.3897    8.7726   55.2547 C   0  0  0  0  0  0  0  0  0  0  0  0
   25.0545    8.4355   55.2717 C   0  0  0  0  0  0  0  0  0  0  0  0
   27.2701    9.6046   56.0552 C   0  0  0  0  0  0  0  0  0  0  0  0
   26.7613   10.5859   56.6498 O   0  0  0  0  0  0  0  0  0  0  0  0
   28.7288    9.3315   56.1877 C   0  0  0  0  0  0  0  0  0  0  0  0
   29.0727    8.1319   55.2940 C   0  0  0  0  0  0  0  0  0  0  0  0
   28.3908    8.3029   53.9308 C   0  0  0  0  0  0  0  0  0  0  0  0
   26.1171    6.8357   52.7449 H   0  0  0  0  0  0  0  0  0  0  0  0
   24.1007    8.9352   56.2621 C   0  0  0  0  0  0  0  0  0  0  0  0
   23.3187   10.1475   55.8090 C   0  0  0  0  0  0  0  0  0  0  0  0
   21.9148    9.7191   55.6317 C   0  0  0  0  0  0  0  0  0  0  0  0
   21.1115   10.4003   54.9669 O   0  0  0  0  0  0  0  0  0  0  0  0
   21.4850    8.5432   56.2128 O   0  0  0  0  0  0  0  0  0  0  0  0
   21.5256    8.3568   57.2061 H   0  0  0  0  0  0  0  0  0  0  0  0
   18.6881    3.9181   53.9470 S   0  0  0  0  0  0  0  0  0  0  0  0
   19.6018    3.4867   55.0597 O   0  0  0  0  0  0  0  0  0  0  0  0
   18.7024    2.8620   52.9004 O   0  0  0  0  0  0  0  0  0  0  0  0
   16.0978    3.5297   53.6959 C   0  0  0  0  0  0  0  0  0  0  0  0
   17.1060    4.0535   54.5987 N   0  0  0  0  0  0  0  0  0  0  0  0
   16.8799    4.9793   54.9680 H   0  0  0  0  0  0  0  0  0  0  0  0
 33 34  1  0  0  0
 34 30  1  0  0  0
 30 31  2  0  0  0
 30 32  2  0  0  0
 30  1  1  0  0  0
  1  2  2  0  0  0
  2  3  1  0  0  0
  3  4  2  0  0  0
  4  5  1  0  0  0
  5  6  2  0  0  0
  5  7  1  0  0  0
  7  8  2  0  0  0
  8 13  1  0  0  0
 13 14  1  0  0  0
 14 15  1  0  0  0
 15 16  2  0  0  0
 16 17  1  0  0  0
 17 24  1  0  0  0
 24 25  1  0  0  0
 25 26  1  0  0  0
 26 27  2  0  0  0
 26 28  1  0  0  0
 16 18  1  0  0  0
 18 19  2  0  0  0
 18 20  1  0  0  0
 20 21  1  0  0  0
 21 22  1  0  0  0
  7  9  1  0  0  0
  9 10  2  0  0  0
  9 11  1  0  0  0
  6  1  1  0  0  0
 17 13  2  0  0  0
 11  4  1  0  0  0
 22 15  1  0  0  0
 34 35  1  0  0  0
 14 23  1  0  0  0
 28 29  1  0  0  0
 11 12  1  0  0  0
M  END
> <minimizedAffinity>
26.02494

> <CNNscore>
0.3393297195

> <CNNaffinity>
6.3381624222

> <CNN_VS>
2.1507267952

> <CNNaffinity_variance>
0.3893536627

$$$$
[H]c1nc(OC([H])([H])[H])c(N([H])S(=O)(=O)c2c([H])c([H])c(F)c([H])c2F)c([H])c1-c1nc([H])c2nc(N([H])[H])c(-c3c([H])c([H])c([H])c([H])c3[H])c([H])c2c1[H]


 40 44  0  0  0  0  0  0  0  0999 V2000
   28.1177    8.8139   54.3187 C   0  0  0  0  0  0  0  0  0  0  0  0
   27.3506    8.8427   55.4177 N   0  0  0  0  0  0  0  0  0  0  0  0
   25.9874    8.7129   55.3792 C   0  0  0  0  0  0  0  0  0  0  0  0
   25.3308    8.5437   54.1862 C   0  0  0  0  0  0  0  0  0  0  0  0
   26.1166    8.5130   53.0462 C   0  0  0  0  0  0  0  0  0  0  0  0
   27.5026    8.6461   53.0997 C   0  0  0  0  0  0  0  0  0  0  0  0
   23.8748    8.3992   54.0798 C   0  0  0  0  0  0  0  0  0  0  0  0
   23.2870    7.1902   53.9158 C   0  0  0  0  0  0  0  0  0  0  0  0
   21.8951    7.0635   53.8154 C   0  0  0  0  0  0  0  0  0  0  0  0
   21.3193    5.8213   53.6485 C   0  0  0  0  0  0  0  0  0  0  0  0
   19.9267    5.7523   53.5542 C   0  0  0  0  0  0  0  0  0  0  0  0
   19.1729    6.9142   53.6295 C   0  0  0  0  0  0  0  0  0  0  0  0
   17.7630    6.7844   53.5360 N   0  0  0  0  0  0  0  0  0  0  0  0
   19.7667    8.1217   53.7935 N   0  0  0  0  0  0  0  0  0  0  0  0
   21.1055    8.1920   53.8846 C   0  0  0  0  0  0  0  0  0  0  0  0
   21.7408    9.4200   54.0535 C   0  0  0  0  0  0  0  0  0  0  0  0
   23.0722    9.4967   54.1449 N   0  0  0  0  0  0  0  0  0  0  0  0
   17.3071    6.0280   54.0817 H   0  0  0  0  0  0  0  0  0  0  0  0
   17.2009    7.4121   52.9508 H   0  0  0  0  0  0  0  0  0  0  0  0
   19.3389    4.4578   53.3726 C   0  0  0  0  0  0  0  0  0  0  0  0
   20.0411    3.4398   52.7719 C   0  0  0  0  0  0  0  0  0  0  0  0
   19.5054    2.1961   52.5770 C   0  0  0  0  0  0  0  0  0  0  0  0
   18.2221    1.9365   52.9893 C   0  0  0  0  0  0  0  0  0  0  0  0
   17.4847    2.9296   53.5954 C   0  0  0  0  0  0  0  0  0  0  0  0
   18.0560    4.1827   53.7794 C   0  0  0  0  0  0  0  0  0  0  0  0
   30.1584   10.1837   54.3437 C   0  0  0  0  0  0  0  0  0  0  0  0
   29.5136    8.9531   54.4263 O   0  0  0  0  0  0  0  0  0  0  0  0
   28.3066    8.6204   51.9343 N   0  0  0  0  0  0  0  0  0  0  0  0
   28.9637    7.7956   51.8264 H   0  0  0  0  0  0  0  0  0  0  0  0
   28.2690    9.8428   50.7110 S   0  0  0  0  0  0  0  0  0  0  0  0
   26.9345   10.5532   50.7532 O   0  0  0  0  0  0  0  0  0  0  0  0
   29.3021   10.8805   51.0373 O   0  0  0  0  0  0  0  0  0  0  0  0
   28.5699    9.2211   49.1260 C   0  0  0  0  0  0  0  0  0  0  0  0
   28.8720    7.8950   48.9242 C   0  0  0  0  0  0  0  0  0  0  0  0
   29.0995    7.4393   47.6404 C   0  0  0  0  0  0  0  0  0  0  0  0
   29.0279    8.2922   46.5644 C   0  0  0  0  0  0  0  0  0  0  0  0
   29.2503    7.8585   45.2852 F   0  0  0  0  0  0  0  0  0  0  0  0
   28.7243    9.6347   46.7462 C   0  0  0  0  0  0  0  0  0  0  0  0
   28.5026   10.0585   48.0400 C   0  0  0  0  0  0  0  0  0  0  0  0
   28.2039   11.3612   48.2566 F   0  0  0  0  0  0  0  0  0  0  0  0
 26 27  1  0  0  0
 27  1  1  0  0  0
  1  2  2  0  0  0
  2  3  1  0  0  0
  3  4  2  0  0  0
  4  7  1  0  0  0
  7  8  2  0  0  0
  8  9  1  0  0  0
  9 10  2  0  0  0
 10 11  1  0  0  0
 11 20  1  0  0  0
 20 21  2  0  0  0
 21 22  1  0  0  0
 22 23  2  0  0  0
 23 24  1  0  0  0
 24 25  2  0  0  0
 11 12  2  0  0  0
 12 13  1  0  0  0
 12 14  1  0  0  0
 14 15  2  0  0  0
 15 16  1  0  0  0
 16 17  2  0  0  0
  4  5  1  0  0  0
  5  6  2  0  0  0
  6 28  1  0  0  0
 28 30  1  0  0  0
 30 31  2  0  0  0
 30 32  2  0  0  0
 30 33  1  0  0  0
 33 34  2  0  0  0
 34 35  1  0  0  0
 35 36  2  0  0  0
 36 37  1  0  0  0
 36 38  1  0  0  0
 38 39  2  0  0  0
 39 40  1  0  0  0
  6  1  1  0  0  0
 39 33  1  0  0  0
 17  7  1  0  0  0
 15  9  1  0  0  0
 25 20  1  0  0  0
 13 18  1  0  0  0
 13 19  1  0  0  0
 28 29  1  0  0  0
M  END
> <minimizedAffinity>
45.05675

> <CNNscore>
0.6276296973

> <CNNaffinity>
6.7981820107

> <CNN_VS>
4.2667407990

> <CNNaffinity_variance>
0.2382716388

$$$$
[H]c1nc(OC([H])([H])[H])c(N([H])S(=O)(=O)c2c([H])c([H])c(F)c([H])c2F)c([H])c1-c1nc([H])c2nc(N([H])[H])c(-c3c([H])c([H])c([H])c([H])c3[H])c([H])c2c1[H]


 40 44  0  0  0  0  0  0  0  0999 V2000
   21.2344    9.3116   52.6167 C   0  0  0  0  0  0  0  0  0  0  0  0
   21.2024   10.6201   52.9066 N   0  0  0  0  0  0  0  0  0  0  0  0
   22.1241   11.2268   53.7184 C   0  0  0  0  0  0  0  0  0  0  0  0
   23.1451   10.5057   54.2843 C   0  0  0  0  0  0  0  0  0  0  0  0
   23.1849    9.1531   53.9896 C   0  0  0  0  0  0  0  0  0  0  0  0
   22.2409    8.5486   53.1620 C   0  0  0  0  0  0  0  0  0  0  0  0
   24.1616   11.0974   55.1611 C   0  0  0  0  0  0  0  0  0  0  0  0
   24.9864   10.3331   55.9159 C   0  0  0  0  0  0  0  0  0  0  0  0
   25.9541   10.9087   56.7500 C   0  0  0  0  0  0  0  0  0  0  0  0
   26.7830   10.1095   57.5096 C   0  0  0  0  0  0  0  0  0  0  0  0
   27.7303   10.7357   58.3240 C   0  0  0  0  0  0  0  0  0  0  0  0
   27.8113   12.1203   58.3469 C   0  0  0  0  0  0  0  0  0  0  0  0
   28.7969   12.7023   59.1855 N   0  0  0  0  0  0  0  0  0  0  0  0
   26.9830   12.8803   57.5894 N   0  0  0  0  0  0  0  0  0  0  0  0
   26.0707   12.2816   56.8052 C   0  0  0  0  0  0  0  0  0  0  0  0
   25.2075   13.0391   56.0169 C   0  0  0  0  0  0  0  0  0  0  0  0
   24.2979   12.4497   55.2344 N   0  0  0  0  0  0  0  0  0  0  0  0
   29.7496   12.2898   59.1749 H   0  0  0  0  0  0  0  0  0  0  0  0
   28.5869   13.5056   59.7880 H   0  0  0  0  0  0  0  0  0  0  0  0
   28.5809    9.8966   59.1155 C   0  0  0  0  0  0  0  0  0  0  0  0
   28.5034    8.5268   59.0279 C   0  0  0  0  0  0  0  0  0  0  0  0
   29.2955    7.6989   59.7755 C   0  0  0  0  0  0  0  0  0  0  0  0
   30.2063    8.2371   60.6502 C   0  0  0  0  0  0  0  0  0  0  0  0
   30.3152    9.6051   60.7679 C   0  0  0  0  0  0  0  0  0  0  0  0
   29.4969   10.4200   59.9953 C   0  0  0  0  0  0  0  0  0  0  0  0
   20.2529    7.4044   51.4164 C   0  0  0  0  0  0  0  0  0  0  0  0
   20.2571    8.7491   51.7754 O   0  0  0  0  0  0  0  0  0  0  0  0
   22.2772    7.1646   52.8643 N   0  0  0  0  0  0  0  0  0  0  0  0
   21.4511    6.7699   52.3299 H   0  0  0  0  0  0  0  0  0  0  0  0
   23.5730    6.1144   53.3229 S   0  0  0  0  0  0  0  0  0  0  0  0
   23.1186    5.2238   54.4576 O   0  0  0  0  0  0  0  0  0  0  0  0
   23.8788    5.1995   52.1740 O   0  0  0  0  0  0  0  0  0  0  0  0
   25.0094    6.9685   53.7663 C   0  0  0  0  0  0  0  0  0  0  0  0
   25.6783    6.6838   54.9333 C   0  0  0  0  0  0  0  0  0  0  0  0
   26.8255    7.3866   55.2459 C   0  0  0  0  0  0  0  0  0  0  0  0
   27.3060    8.3645   54.4073 C   0  0  0  0  0  0  0  0  0  0  0  0
   28.4411    9.0712   54.7007 F   0  0  0  0  0  0  0  0  0  0  0  0
   26.6458    8.6675   53.2242 C   0  0  0  0  0  0  0  0  0  0  0  0
   25.5035    7.9481   52.9408 C   0  0  0  0  0  0  0  0  0  0  0  0
   24.8325    8.2156   51.7956 F   0  0  0  0  0  0  0  0  0  0  0  0
 26 27  1  0  0  0
 27  1  1  0  0  0
  1  2  2  0  0  0
  2  3  1  0  0  0
  3  4  2  0  0  0
  4  7  1  0  0  0
  7  8  2  0  0  0
  8  9  1  0  0  0
  9 10  2  0  0  0
 10 11  1  0  0  0
 11 20  1  0  0  0
 20 21  2  0  0  0
 21 22  1  0  0  0
 22 23  2  0  0  0
 23 24  1  0  0  0
 24 25  2  0  0  0
 11 12  2  0  0  0
 12 13  1  0  0  0
 12 14  1  0  0  0
 14 15  2  0  0  0
 15 16  1  0  0  0
 16 17  2  0  0  0
  4  5  1  0  0  0
  5  6  2  0  0  0
  6 28  1  0  0  0
 28 30  1  0  0  0
 30 31  2  0  0  0
 30 32  2  0  0  0
 30 33  1  0  0  0
 33 34  2  0  0  0
 34 35  1  0  0  0
 35 36  2  0  0  0
 36 37  1  0  0  0
 36 38  1  0  0  0
 38 39  2  0  0  0
 39 40  1  0  0  0
  6  1  1  0  0  0
 39 33  1  0  0  0
 17  7  1  0  0  0
 15  9  1  0  0  0
 25 20  1  0  0  0
 13 18  1  0  0  0
 13 19  1  0  0  0
 28 29  1  0  0  0
M  END
> <minimizedAffinity>
44.61704

> <CNNscore>
0.6086962819

> <CNNaffinity>
6.9980573654

> <CNN_VS>
4.2596917152

> <CNNaffinity_variance>
0.6950300336

$$$$
[H]c1nc(OC([H])([H])[H])c(N([H])S(=O)(=O)c2c([H])c([H])c(F)c([H])c2F)c([H])c1-c1nc([H])c2nc(N([H])[H])c(-c3c([H])c([H])c([H])c([H])c3[H])c([H])c2c1[H]


 40 44  0  0  0  0  0  0  0  0999 V2000
   22.0338    5.2292   53.7354 C   0  0  0  0  0  0  0  0  0  0  0  0
   22.8577    5.0163   54.7713 N   0  0  0  0  0  0  0  0  0  0  0  0
   23.9774    5.7714   55.0010 C   0  0  0  0  0  0  0  0  0  0  0  0
   24.3137    6.8033   54.1614 C   0  0  0  0  0  0  0  0  0  0  0  0
   23.4674    7.0294   53.0888 C   0  0  0  0  0  0  0  0  0  0  0  0
   22.3313    6.2537   52.8670 C   0  0  0  0  0  0  0  0  0  0  0  0
   25.4984    7.6469   54.3539 C   0  0  0  0  0  0  0  0  0  0  0  0
   25.7691    8.2381   55.5418 C   0  0  0  0  0  0  0  0  0  0  0  0
   26.9037    9.0419   55.7148 C   0  0  0  0  0  0  0  0  0  0  0  0
   27.1584    9.6338   56.9344 C   0  0  0  0  0  0  0  0  0  0  0  0
   28.3041   10.4254   57.0517 C   0  0  0  0  0  0  0  0  0  0  0  0
   29.1407   10.5925   55.9580 C   0  0  0  0  0  0  0  0  0  0  0  0
   30.2939   11.3999   56.1361 N   0  0  0  0  0  0  0  0  0  0  0  0
   28.8647    9.9984   54.7712 N   0  0  0  0  0  0  0  0  0  0  0  0
   27.7640    9.2366   54.6546 C   0  0  0  0  0  0  0  0  0  0  0  0
   27.4571    8.6148   53.4465 C   0  0  0  0  0  0  0  0  0  0  0  0
   26.3638    7.8555   53.3241 N   0  0  0  0  0  0  0  0  0  0  0  0
   30.8568   11.2605   56.9972 H   0  0  0  0  0  0  0  0  0  0  0  0
   30.5729   12.1027   55.4429 H   0  0  0  0  0  0  0  0  0  0  0  0
   28.5551   11.0425   58.3206 C   0  0  0  0  0  0  0  0  0  0  0  0
   28.1223   12.3206   58.5839 C   0  0  0  0  0  0  0  0  0  0  0  0
   28.3531   12.9400   59.7817 C   0  0  0  0  0  0  0  0  0  0  0  0
   29.0399   12.2774   60.7683 C   0  0  0  0  0  0  0  0  0  0  0  0
   29.4908   10.9952   60.5445 C   0  0  0  0  0  0  0  0  0  0  0  0
   29.2412   10.3927   59.3176 C   0  0  0  0  0  0  0  0  0  0  0  0
   19.5995    4.9120   53.6129 C   0  0  0  0  0  0  0  0  0  0  0  0
   20.8991    4.4172   53.5554 O   0  0  0  0  0  0  0  0  0  0  0  0
   21.4682    6.4803   51.7675 N   0  0  0  0  0  0  0  0  0  0  0  0
   21.3497    5.6808   51.0816 H   0  0  0  0  0  0  0  0  0  0  0  0
   20.6218    7.9645   51.4973 S   0  0  0  0  0  0  0  0  0  0  0  0
   20.8688    8.4315   50.0801 O   0  0  0  0  0  0  0  0  0  0  0  0
   19.1482    7.7017   51.5967 O   0  0  0  0  0  0  0  0  0  0  0  0
   21.0547    9.2032   52.6232 C   0  0  0  0  0  0  0  0  0  0  0  0
   21.5455   10.4151   52.1982 C   0  0  0  0  0  0  0  0  0  0  0  0
   21.8734   11.3788   53.1317 C   0  0  0  0  0  0  0  0  0  0  0  0
   21.7157   11.1424   54.4770 C   0  0  0  0  0  0  0  0  0  0  0  0
   22.0352   12.0854   55.4164 F   0  0  0  0  0  0  0  0  0  0  0  0
   21.2217    9.9256   54.9272 C   0  0  0  0  0  0  0  0  0  0  0  0
   20.9037    8.9844   53.9702 C   0  0  0  0  0  0  0  0  0  0  0  0
   20.4191    7.7855   54.3714 F   0  0  0  0  0  0  0  0  0  0  0  0
 26 27  1  0  0  0
 27  1  1  0  0  0
  1  2  2  0  0  0
  2  3  1  0  0  0
  3  4  2  0  0  0
  4  7  1  0  0  0
  7  8  2  0  0  0
  8  9  1  0  0  0
  9 10  2  0  0  0
 10 11  1  0  0  0
 11 20  1  0  0  0
 20 21  2  0  0  0
 21 22  1  0  0  0
 22 23  2  0  0  0
 23 24  1  0  0  0
 24 25  2  0  0  0
 11 12  2  0  0  0
 12 13  1  0  0  0
 12 14  1  0  0  0
 14 15  2  0  0  0
 15 16  1  0  0  0
 16 17  2  0  0  0
  4  5  1  0  0  0
  5  6  2  0  0  0
  6 28  1  0  0  0
 28 30  1  0  0  0
 30 31  2  0  0  0
 30 32  2  0  0  0
 30 33  1  0  0  0
 33 34  2  0  0  0
 34 35  1  0  0  0
 35 36  2  0  0  0
 36 37  1  0  0  0
 36 38  1  0  0  0
 38 39  2  0  0  0
 39 40  1  0  0  0
  6  1  1  0  0  0
 39 33  1  0  0  0
 17  7  1  0  0  0
 15  9  1  0  0  0
 25 20  1  0  0  0
 13 18  1  0  0  0
 13 19  1  0  0  0
 28 29  1  0  0  0
M  END
> <minimizedAffinity>
23.02378

> <CNNscore>
0.5052694678

> <CNNaffinity>
6.9789514542

> <CNN_VS>
3.5262510777

> <CNNaffinity_variance>
0.8192718625

$$$$
[H]c1nc(OC([H])([H])[H])c(N([H])S(=O)(=O)c2c([H])c([H])c(F)c([H])c2F)c([H])c1-c1nc([H])c2nc(N([H])[H])c(-c3c([H])c([H])c([H])c([H])c3[H])c([H])c2c1[H]


 40 44  0  0  0  0  0  0  0  0999 V2000
   20.5897    8.1855   52.2176 C   0  0  0  0  0  0  0  0  0  0  0  0
   21.2037    9.3453   52.4919 N   0  0  0  0  0  0  0  0  0  0  0  0
   22.5018    9.4179   52.9235 C   0  0  0  0  0  0  0  0  0  0  0  0
   23.2491    8.2805   53.0985 C   0  0  0  0  0  0  0  0  0  0  0  0
   22.6216    7.0783   52.8172 C   0  0  0  0  0  0  0  0  0  0  0  0
   21.3004    7.0188   52.3786 C   0  0  0  0  0  0  0  0  0  0  0  0
   24.6424    8.2929   53.5577 C   0  0  0  0  0  0  0  0  0  0  0  0
   24.9873    8.7620   54.7804 C   0  0  0  0  0  0  0  0  0  0  0  0
   26.3214    8.7691   55.2091 C   0  0  0  0  0  0  0  0  0  0  0  0
   26.6484    9.2522   56.4591 C   0  0  0  0  0  0  0  0  0  0  0  0
   27.9941    9.2360   56.8359 C   0  0  0  0  0  0  0  0  0  0  0  0
   28.9490    8.7432   55.9589 C   0  0  0  0  0  0  0  0  0  0  0  0
   30.2987    8.7431   56.3969 N   0  0  0  0  0  0  0  0  0  0  0  0
   28.5979    8.2750   54.7362 N   0  0  0  0  0  0  0  0  0  0  0  0
   27.3050    8.2891   54.3703 C   0  0  0  0  0  0  0  0  0  0  0  0
   26.9173    7.8138   53.1196 C   0  0  0  0  0  0  0  0  0  0  0  0
   25.6328    7.8249   52.7496 N   0  0  0  0  0  0  0  0  0  0  0  0
   30.4970    8.4137   57.3612 H   0  0  0  0  0  0  0  0  0  0  0  0
   31.0633    9.0564   55.7889 H   0  0  0  0  0  0  0  0  0  0  0  0
   28.3242    9.7477   58.1333 C   0  0  0  0  0  0  0  0  0  0  0  0
   28.4620   11.0988   58.3470 C   0  0  0  0  0  0  0  0  0  0  0  0
   28.7842   11.6178   59.5712 C   0  0  0  0  0  0  0  0  0  0  0  0
   28.9810   10.7746   60.6364 C   0  0  0  0  0  0  0  0  0  0  0  0
   28.8526    9.4140   60.4641 C   0  0  0  0  0  0  0  0  0  0  0  0
   28.5246    8.9170   59.2088 C   0  0  0  0  0  0  0  0  0  0  0  0
   18.7825    9.0286   50.7806 C   0  0  0  0  0  0  0  0  0  0  0  0
   19.2534    8.1792   51.7776 O   0  0  0  0  0  0  0  0  0  0  0  0
   20.6559    5.7899   52.0960 N   0  0  0  0  0  0  0  0  0  0  0  0
   20.3801    5.6171   51.0872 H   0  0  0  0  0  0  0  0  0  0  0  0
   20.3047    4.5893   53.2907 S   0  0  0  0  0  0  0  0  0  0  0  0
   20.9174    3.2715   52.8721 O   0  0  0  0  0  0  0  0  0  0  0  0
   20.9835    4.9742   54.5720 O   0  0  0  0  0  0  0  0  0  0  0  0
   18.6106    4.4005   53.5803 C   0  0  0  0  0  0  0  0  0  0  0  0
   17.8229    5.4701   53.9349 C   0  0  0  0  0  0  0  0  0  0  0  0
   16.4727    5.2755   54.1511 C   0  0  0  0  0  0  0  0  0  0  0  0
   15.9077    4.0293   54.0167 C   0  0  0  0  0  0  0  0  0  0  0  0
   14.5717    3.8175   54.2269 F   0  0  0  0  0  0  0  0  0  0  0  0
   16.6852    2.9360   53.6594 C   0  0  0  0  0  0  0  0  0  0  0  0
   18.0296    3.1633   53.4506 C   0  0  0  0  0  0  0  0  0  0  0  0
   18.8198    2.1209   53.1008 F   0  0  0  0  0  0  0  0  0  0  0  0
 26 27  1  0  0  0
 27  1  1  0  0  0
  1  2  2  0  0  0
  2  3  1  0  0  0
  3  4  2  0  0  0
  4  7  1  0  0  0
  7  8  2  0  0  0
  8  9  1  0  0  0
  9 10  2  0  0  0
 10 11  1  0  0  0
 11 20  1  0  0  0
 20 21  2  0  0  0
 21 22  1  0  0  0
 22 23  2  0  0  0
 23 24  1  0  0  0
 24 25  2  0  0  0
 11 12  2  0  0  0
 12 13  1  0  0  0
 12 14  1  0  0  0
 14 15  2  0  0  0
 15 16  1  0  0  0
 16 17  2  0  0  0
  4  5  1  0  0  0
  5  6  2  0  0  0
  6 28  1  0  0  0
 28 30  1  0  0  0
 30 31  2  0  0  0
 30 32  2  0  0  0
 30 33  1  0  0  0
 33 34  2  0  0  0
 34 35  1  0  0  0
 35 36  2  0  0  0
 36 37  1  0  0  0
 36 38  1  0  0  0
 38 39  2  0  0  0
 39 40  1  0  0  0
  6  1  1  0  0  0
 39 33  1  0  0  0
 17  7  1  0  0  0
 15  9  1  0  0  0
 25 20  1  0  0  0
 13 18  1  0  0  0
 13 19  1  0  0  0
 28 29  1  0  0  0
M  END
> <minimizedAffinity>
40.70261

> <CNNscore>
0.4594979286

> <CNNaffinity>
6.6369466782

> <CNN_VS>
3.0496633053

> <CNNaffinity_variance>
0.2927171588

$$$$
[H]c1nc(OC([H])([H])[H])c(N([H])S(=O)(=O)c2c([H])c([H])c(F)c([H])c2F)c([H])c1-c1nc([H])c2nc(N([H])[H])c(-c3c([H])c([H])c([H])c([H])c3[H])c([H])c2c1[H]


 40 44  0  0  0  0  0  0  0  0999 V2000
   21.3902    5.5988   53.8976 C   0  0  0  0  0  0  0  0  0  0  0  0
   22.4654    5.0139   54.4446 N   0  0  0  0  0  0  0  0  0  0  0  0
   23.6602    5.6617   54.6160 C   0  0  0  0  0  0  0  0  0  0  0  0
   23.8137    6.9684   54.2265 C   0  0  0  0  0  0  0  0  0  0  0  0
   22.7073    7.5794   53.6604 C   0  0  0  0  0  0  0  0  0  0  0  0
   21.4975    6.9088   53.4920 C   0  0  0  0  0  0  0  0  0  0  0  0
   25.0665    7.7155   54.3832 C   0  0  0  0  0  0  0  0  0  0  0  0
   25.4155    8.2856   55.5610 C   0  0  0  0  0  0  0  0  0  0  0  0
   26.6147    8.9970   55.6999 C   0  0  0  0  0  0  0  0  0  0  0  0
   26.9489    9.5691   56.9097 C   0  0  0  0  0  0  0  0  0  0  0  0
   28.1566   10.2674   56.9926 C   0  0  0  0  0  0  0  0  0  0  0  0
   28.9736   10.3653   55.8760 C   0  0  0  0  0  0  0  0  0  0  0  0
   30.1917   11.0788   56.0195 N   0  0  0  0  0  0  0  0  0  0  0  0
   28.6190    9.7928   54.6996 N   0  0  0  0  0  0  0  0  0  0  0  0
   27.4584    9.1206   54.6160 C   0  0  0  0  0  0  0  0  0  0  0  0
   27.0703    8.5228   53.4192 C   0  0  0  0  0  0  0  0  0  0  0  0
   25.9172    7.8526   53.3295 N   0  0  0  0  0  0  0  0  0  0  0  0
   30.7651   10.8969   56.8656 H   0  0  0  0  0  0  0  0  0  0  0  0
   30.5066   11.7559   55.3161 H   0  0  0  0  0  0  0  0  0  0  0  0
   28.4904   10.8651   58.2518 C   0  0  0  0  0  0  0  0  0  0  0  0
   28.1487   12.1675   58.5296 C   0  0  0  0  0  0  0  0  0  0  0  0
   28.4600   12.7689   59.7184 C   0  0  0  0  0  0  0  0  0  0  0  0
   29.1377   12.0623   60.6805 C   0  0  0  0  0  0  0  0  0  0  0  0
   29.4986   10.7547   60.4415 C   0  0  0  0  0  0  0  0  0  0  0  0
   29.1685   10.1713   59.2244 C   0  0  0  0  0  0  0  0  0  0  0  0
   20.1262    3.6440   53.1085 C   0  0  0  0  0  0  0  0  0  0  0  0
   20.1912    4.8777   53.7494 O   0  0  0  0  0  0  0  0  0  0  0  0
   20.3672    7.5308   52.9082 N   0  0  0  0  0  0  0  0  0  0  0  0
   19.4501    7.4416   53.4323 H   0  0  0  0  0  0  0  0  0  0  0  0
   20.4120    8.4049   51.4162 S   0  0  0  0  0  0  0  0  0  0  0  0
   21.2977    7.6729   50.4329 O   0  0  0  0  0  0  0  0  0  0  0  0
   19.0366    8.4029   50.8172 O   0  0  0  0  0  0  0  0  0  0  0  0
   20.9457   10.0384   51.6066 C   0  0  0  0  0  0  0  0  0  0  0  0
   21.0156   10.8967   50.5348 C   0  0  0  0  0  0  0  0  0  0  0  0
   21.4420   12.1954   50.7328 C   0  0  0  0  0  0  0  0  0  0  0  0
   21.7965   12.6398   51.9847 C   0  0  0  0  0  0  0  0  0  0  0  0
   22.2213   13.9232   52.2000 F   0  0  0  0  0  0  0  0  0  0  0  0
   21.7332   11.7895   53.0803 C   0  0  0  0  0  0  0  0  0  0  0  0
   21.3035   10.4992   52.8495 C   0  0  0  0  0  0  0  0  0  0  0  0
   21.2288    9.6409   53.8940 F   0  0  0  0  0  0  0  0  0  0  0  0
 26 27  1  0  0  0
 27  1  1  0  0  0
  1  2  2  0  0  0
  2  3  1  0  0  0
  3  4  2  0  0  0
  4  7  1  0  0  0
  7  8  2  0  0  0
  8  9  1  0  0  0
  9 10  2  0  0  0
 10 11  1  0  0  0
 11 20  1  0  0  0
 20 21  2  0  0  0
 21 22  1  0  0  0
 22 23  2  0  0  0
 23 24  1  0  0  0
 24 25  2  0  0  0
 11 12  2  0  0  0
 12 13  1  0  0  0
 12 14  1  0  0  0
 14 15  2  0  0  0
 15 16  1  0  0  0
 16 17  2  0  0  0
  4  5  1  0  0  0
  5  6  2  0  0  0
  6 28  1  0  0  0
 28 30  1  0  0  0
 30 31  2  0  0  0
 30 32  2  0  0  0
 30 33  1  0  0  0
 33 34  2  0  0  0
 34 35  1  0  0  0
 35 36  2  0  0  0
 36 37  1  0  0  0
 36 38  1  0  0  0
 38 39  2  0  0  0
 39 40  1  0  0  0
  6  1  1  0  0  0
 39 33  1  0  0  0
 17  7  1  0  0  0
 15  9  1  0  0  0
 25 20  1  0  0  0
 13 18  1  0  0  0
 13 19  1  0  0  0
 28 29  1  0  0  0
M  END
> <minimizedAffinity>
23.99732

> <CNNscore>
0.4566886723

> <CNNaffinity>
6.8507833481

> <CNN_VS>
3.1286752224

> <CNNaffinity_variance>
0.3731184602

$$$$
[H]c1nc(OC([H])([H])[H])c(N([H])S(=O)(=O)c2c([H])c([H])c(F)c([H])c2F)c([H])c1-c1nc([H])c2nc(N([H])[H])c(-c3c([H])c([H])c([H])c([H])c3[H])c([H])c2c1[H]


 40 44  0  0  0  0  0  0  0  0999 V2000
   21.1310   10.0096   52.5700 C   0  0  0  0  0  0  0  0  0  0  0  0
   21.3763   11.3130   52.7659 N   0  0  0  0  0  0  0  0  0  0  0  0
   22.3701   11.7689   53.5912 C   0  0  0  0  0  0  0  0  0  0  0  0
   23.1776   10.8916   54.2702 C   0  0  0  0  0  0  0  0  0  0  0  0
   22.9303    9.5433   54.0731 C   0  0  0  0  0  0  0  0  0  0  0  0
   21.9160    9.0931   53.2304 C   0  0  0  0  0  0  0  0  0  0  0  0
   24.2573   11.3175   55.1675 C   0  0  0  0  0  0  0  0  0  0  0  0
   25.0419   10.4240   55.8156 C   0  0  0  0  0  0  0  0  0  0  0  0
   26.0706   10.8418   56.6704 C   0  0  0  0  0  0  0  0  0  0  0  0
   26.8567    9.9128   57.3198 C   0  0  0  0  0  0  0  0  0  0  0  0
   27.8684   10.3844   58.1606 C   0  0  0  0  0  0  0  0  0  0  0  0
   28.0528   11.7501   58.3176 C   0  0  0  0  0  0  0  0  0  0  0  0
   29.0999   12.1726   59.1769 N   0  0  0  0  0  0  0  0  0  0  0  0
   27.2643   12.6400   57.6664 N   0  0  0  0  0  0  0  0  0  0  0  0
   26.2904   12.1903   56.8572 C   0  0  0  0  0  0  0  0  0  0  0  0
   25.4662   13.0832   56.1762 C   0  0  0  0  0  0  0  0  0  0  0  0
   24.4956   12.6424   55.3696 N   0  0  0  0  0  0  0  0  0  0  0  0
   30.0187   11.6963   59.0944 H   0  0  0  0  0  0  0  0  0  0  0  0
   28.9656   12.9239   59.8624 H   0  0  0  0  0  0  0  0  0  0  0  0
   28.6741    9.4110   58.8370 C   0  0  0  0  0  0  0  0  0  0  0  0
   29.1766    9.6576   60.0927 C   0  0  0  0  0  0  0  0  0  0  0  0
   29.9550    8.7525   60.7610 C   0  0  0  0  0  0  0  0  0  0  0  0
   30.2561    7.5495   60.1725 C   0  0  0  0  0  0  0  0  0  0  0  0
   29.7723    7.2636   58.9149 C   0  0  0  0  0  0  0  0  0  0  0  0
   28.9843    8.2029   58.2613 C   0  0  0  0  0  0  0  0  0  0  0  0
   19.7810    8.2702   51.4777 C   0  0  0  0  0  0  0  0  0  0  0  0
   20.0943    9.6064   51.7085 O   0  0  0  0  0  0  0  0  0  0  0  0
   21.6585    7.7148   53.0323 N   0  0  0  0  0  0  0  0  0  0  0  0
   20.6944    7.4563   52.6751 H   0  0  0  0  0  0  0  0  0  0  0  0
   22.8139    6.4649   53.3406 S   0  0  0  0  0  0  0  0  0  0  0  0
   22.3412    5.6211   54.5033 O   0  0  0  0  0  0  0  0  0  0  0  0
   22.8580    5.5486   52.1537 O   0  0  0  0  0  0  0  0  0  0  0  0
   24.4026    7.0748   53.6462 C   0  0  0  0  0  0  0  0  0  0  0  0
   24.8902    8.1686   52.9707 C   0  0  0  0  0  0  0  0  0  0  0  0
   26.1630    8.6261   53.2504 C   0  0  0  0  0  0  0  0  0  0  0  0
   26.9467    8.0035   54.1931 C   0  0  0  0  0  0  0  0  0  0  0  0
   28.2103    8.4428   54.4834 F   0  0  0  0  0  0  0  0  0  0  0  0
   26.4736    6.8977   54.8864 C   0  0  0  0  0  0  0  0  0  0  0  0
   25.1989    6.4656   54.5842 C   0  0  0  0  0  0  0  0  0  0  0  0
   24.7033    5.3898   55.2401 F   0  0  0  0  0  0  0  0  0  0  0  0
 26 27  1  0  0  0
 27  1  1  0  0  0
  1  2  2  0  0  0
  2  3  1  0  0  0
  3  4  2  0  0  0
  4  7  1  0  0  0
  7  8  2  0  0  0
  8  9  1  0  0  0
  9 10  2  0  0  0
 10 11  1  0  0  0
 11 20  1  0  0  0
 20 21  2  0  0  0
 21 22  1  0  0  0
 22 23  2  0  0  0
 23 24  1  0  0  0
 24 25  2  0  0  0
 11 12  2  0  0  0
 12 13  1  0  0  0
 12 14  1  0  0  0
 14 15  2  0  0  0
 15 16  1  0  0  0
 16 17  2  0  0  0
  4  5  1  0  0  0
  5  6  2  0  0  0
  6 28  1  0  0  0
 28 30  1  0  0  0
 30 31  2  0  0  0
 30 32  2  0  0  0
 30 33  1  0  0  0
 33 34  2  0  0  0
 34 35  1  0  0  0
 35 36  2  0  0  0
 36 37  1  0  0  0
 36 38  1  0  0  0
 38 39  2  0  0  0
 39 40  1  0  0  0
  6  1  1  0  0  0
 39 33  1  0  0  0
 17  7  1  0  0  0
 15  9  1  0  0  0
 25 20  1  0  0  0
 13 18  1  0  0  0
 13 19  1  0  0  0
 28 29  1  0  0  0
M  END
> <minimizedAffinity>
50.04047

> <CNNscore>
0.4533192217

> <CNNaffinity>
6.6213388443

> <CNN_VS>
3.0015802383

> <CNNaffinity_variance>
0.9866922498

$$$$
[H]c1nc(OC([H])([H])[H])c(N([H])S(=O)(=O)c2c([H])c([H])c(F)c([H])c2F)c([H])c1-c1nc([H])c2nc(N([H])[H])c(-c3c([H])c([H])c([H])c([H])c3[H])c([H])c2c1[H]


 40 44  0  0  0  0  0  0  0  0999 V2000
   20.2277    6.6920   53.3461 C   0  0  0  0  0  0  0  0  0  0  0  0
   20.5826    7.9744   53.1824 N   0  0  0  0  0  0  0  0  0  0  0  0
   21.8695    8.4176   53.3377 C   0  0  0  0  0  0  0  0  0  0  0  0
   22.8763    7.5487   53.6756 C   0  0  0  0  0  0  0  0  0  0  0  0
   22.5175    6.2221   53.8465 C   0  0  0  0  0  0  0  0  0  0  0  0
   21.2044    5.7845   53.6853 C   0  0  0  0  0  0  0  0  0  0  0  0
   24.2723    7.9620   53.8562 C   0  0  0  0  0  0  0  0  0  0  0  0
   24.7578    8.3292   55.0659 C   0  0  0  0  0  0  0  0  0  0  0  0
   26.0931    8.7221   55.2273 C   0  0  0  0  0  0  0  0  0  0  0  0
   26.5648    9.0920   56.4696 C   0  0  0  0  0  0  0  0  0  0  0  0
   27.9047    9.4751   56.5739 C   0  0  0  0  0  0  0  0  0  0  0  0
   28.7114    9.4733   55.4455 C   0  0  0  0  0  0  0  0  0  0  0  0
   30.0656    9.8635   55.6112 N   0  0  0  0  0  0  0  0  0  0  0  0
   28.2200    9.1050   54.2371 N   0  0  0  0  0  0  0  0  0  0  0  0
   26.9320    8.7361   54.1329 C   0  0  0  0  0  0  0  0  0  0  0  0
   26.4019    8.3530   52.9031 C   0  0  0  0  0  0  0  0  0  0  0  0
   25.1216    7.9848   52.7927 N   0  0  0  0  0  0  0  0  0  0  0  0
   30.5868    9.4785   56.4222 H   0  0  0  0  0  0  0  0  0  0  0  0
   30.5261   10.5053   54.9566 H   0  0  0  0  0  0  0  0  0  0  0  0
   28.3826    9.8655   57.8675 C   0  0  0  0  0  0  0  0  0  0  0  0
   28.7274    8.9241   58.8082 C   0  0  0  0  0  0  0  0  0  0  0  0
   29.1790    9.2645   60.0540 C   0  0  0  0  0  0  0  0  0  0  0  0
   29.2986   10.5887   60.3951 C   0  0  0  0  0  0  0  0  0  0  0  0
   28.9633   11.5632   59.4811 C   0  0  0  0  0  0  0  0  0  0  0  0
   28.5075   11.1863   58.2239 C   0  0  0  0  0  0  0  0  0  0  0  0
   17.8272    7.2018   53.2082 C   0  0  0  0  0  0  0  0  0  0  0  0
   18.8876    6.3010   53.1718 O   0  0  0  0  0  0  0  0  0  0  0  0
   20.8352    4.4293   53.8652 N   0  0  0  0  0  0  0  0  0  0  0  0
   21.4961    3.8266   54.4340 H   0  0  0  0  0  0  0  0  0  0  0  0
   19.3937    3.7291   53.2141 S   0  0  0  0  0  0  0  0  0  0  0  0
   18.9564    4.5193   52.0010 O   0  0  0  0  0  0  0  0  0  0  0  0
   19.7119    2.3495   52.7181 O   0  0  0  0  0  0  0  0  0  0  0  0
   18.1085    3.6355   54.3668 C   0  0  0  0  0  0  0  0  0  0  0  0
   16.8195    3.9738   54.0286 C   0  0  0  0  0  0  0  0  0  0  0  0
   15.8220    3.8787   54.9792 C   0  0  0  0  0  0  0  0  0  0  0  0
   16.1006    3.4512   56.2559 C   0  0  0  0  0  0  0  0  0  0  0  0
   15.1251    3.3507   57.2110 F   0  0  0  0  0  0  0  0  0  0  0  0
   17.3953    3.1048   56.6180 C   0  0  0  0  0  0  0  0  0  0  0  0
   18.3686    3.2106   55.6462 C   0  0  0  0  0  0  0  0  0  0  0  0
   19.6433    2.8815   55.9624 F   0  0  0  0  0  0  0  0  0  0  0  0
 26 27  1  0  0  0
 27  1  1  0  0  0
  1  2  2  0  0  0
  2  3  1  0  0  0
  3  4  2  0  0  0
  4  7  1  0  0  0
  7  8  2  0  0  0
  8  9  1  0  0  0
  9 10  2  0  0  0
 10 11  1  0  0  0
 11 20  1  0  0  0
 20 21  2  0  0  0
 21 22  1  0  0  0
 22 23  2  0  0  0
 23 24  1  0  0  0
 24 25  2  0  0  0
 11 12  2  0  0  0
 12 13  1  0  0  0
 12 14  1  0  0  0
 14 15  2  0  0  0
 15 16  1  0  0  0
 16 17  2  0  0  0
  4  5  1  0  0  0
  5  6  2  0  0  0
  6 28  1  0  0  0
 28 30  1  0  0  0
 30 31  2  0  0  0
 30 32  2  0  0  0
 30 33  1  0  0  0
 33 34  2  0  0  0
 34 35  1  0  0  0
 35 36  2  0  0  0
 36 37  1  0  0  0
 36 38  1  0  0  0
 38 39  2  0  0  0
 39 40  1  0  0  0
  6  1  1  0  0  0
 39 33  1  0  0  0
 17  7  1  0  0  0
 15  9  1  0  0  0
 25 20  1  0  0  0
 13 18  1  0  0  0
 13 19  1  0  0  0
 28 29  1  0  0  0
M  END
> <minimizedAffinity>
35.88123

> <CNNscore>
0.4266096056

> <CNNaffinity>
6.7116637230

> <CNN_VS>
2.8632602692

> <CNNaffinity_variance>
0.1244029999

$$$$
[H]c1nc(OC([H])([H])[H])c(N([H])S(=O)(=O)c2c([H])c([H])c(F)c([H])c2F)c([H])c1-c1nc([H])c2nc(N([H])[H])c(-c3c([H])c([H])c([H])c([H])c3[H])c([H])c2c1[H]


 40 44  0  0  0  0  0  0  0  0999 V2000
   23.3662    6.2495   55.3674 C   0  0  0  0  0  0  0  0  0  0  0  0
   24.4947    6.6648   55.9601 N   0  0  0  0  0  0  0  0  0  0  0  0
   25.4604    7.3825   55.3051 C   0  0  0  0  0  0  0  0  0  0  0  0
   25.3124    7.7163   53.9824 C   0  0  0  0  0  0  0  0  0  0  0  0
   24.1491    7.2907   53.3631 C   0  0  0  0  0  0  0  0  0  0  0  0
   23.1746    6.5613   54.0413 C   0  0  0  0  0  0  0  0  0  0  0  0
   26.3098    8.4822   53.2269 C   0  0  0  0  0  0  0  0  0  0  0  0
   26.4876    8.3060   51.8960 C   0  0  0  0  0  0  0  0  0  0  0  0
   27.4432    9.0430   51.1839 C   0  0  0  0  0  0  0  0  0  0  0  0
   27.6061    8.8460   49.8284 C   0  0  0  0  0  0  0  0  0  0  0  0
   28.5735    9.6078   49.1675 C   0  0  0  0  0  0  0  0  0  0  0  0
   29.3313   10.5262   49.8790 C   0  0  0  0  0  0  0  0  0  0  0  0
   30.2931   11.2781   49.1558 N   0  0  0  0  0  0  0  0  0  0  0  0
   29.1491   10.6982   51.2112 N   0  0  0  0  0  0  0  0  0  0  0  0
   28.2199    9.9674   51.8501 C   0  0  0  0  0  0  0  0  0  0  0  0
   28.0124   10.1246   53.2185 C   0  0  0  0  0  0  0  0  0  0  0  0
   27.0896    9.4008   53.8600 N   0  0  0  0  0  0  0  0  0  0  0  0
   30.0081   11.6823   48.2430 H   0  0  0  0  0  0  0  0  0  0  0  0
   31.2435   11.4245   49.5132 H   0  0  0  0  0  0  0  0  0  0  0  0
   28.7406    9.3894   47.7609 C   0  0  0  0  0  0  0  0  0  0  0  0
   28.9133    8.1219   47.2572 C   0  0  0  0  0  0  0  0  0  0  0  0
   29.0833    7.8815   45.9211 C   0  0  0  0  0  0  0  0  0  0  0  0
   29.0844    8.9310   45.0364 C   0  0  0  0  0  0  0  0  0  0  0  0
   28.9145   10.2167   45.5007 C   0  0  0  0  0  0  0  0  0  0  0  0
   28.7443   10.4292   46.8631 C   0  0  0  0  0  0  0  0  0  0  0  0
   21.2161    6.0667   56.5444 C   0  0  0  0  0  0  0  0  0  0  0  0
   22.4129    5.5152   56.0965 O   0  0  0  0  0  0  0  0  0  0  0  0
   21.9873    6.1208   53.4077 N   0  0  0  0  0  0  0  0  0  0  0  0
   21.8156    5.0749   53.3908 H   0  0  0  0  0  0  0  0  0  0  0  0
   20.8346    7.1833   52.6765 S   0  0  0  0  0  0  0  0  0  0  0  0
   20.7577    6.8954   51.1938 O   0  0  0  0  0  0  0  0  0  0  0  0
   19.4757    6.8720   53.2307 O   0  0  0  0  0  0  0  0  0  0  0  0
   21.1891    8.8537   52.9477 C   0  0  0  0  0  0  0  0  0  0  0  0
   21.3991    9.7186   51.8998 C   0  0  0  0  0  0  0  0  0  0  0  0
   21.6738   11.0467   52.1616 C   0  0  0  0  0  0  0  0  0  0  0  0
   21.7398   11.5136   53.4531 C   0  0  0  0  0  0  0  0  0  0  0  0
   22.0109   12.8262   53.7316 F   0  0  0  0  0  0  0  0  0  0  0  0
   21.5309   10.6570   54.5255 C   0  0  0  0  0  0  0  0  0  0  0  0
   21.2588    9.3372   54.2308 C   0  0  0  0  0  0  0  0  0  0  0  0
   21.0494    8.4718   55.2509 F   0  0  0  0  0  0  0  0  0  0  0  0
 26 27  1  0  0  0
 27  1  1  0  0  0
  1  2  2  0  0  0
  2  3  1  0  0  0
  3  4  2  0  0  0
  4  7  1  0  0  0
  7  8  2  0  0  0
  8  9  1  0  0  0
  9 10  2  0  0  0
 10 11  1  0  0  0
 11 20  1  0  0  0
 20 21  2  0  0  0
 21 22  1  0  0  0
 22 23  2  0  0  0
 23 24  1  0  0  0
 24 25  2  0  0  0
 11 12  2  0  0  0
 12 13  1  0  0  0
 12 14  1  0  0  0
 14 15  2  0  0  0
 15 16  1  0  0  0
 16 17  2  0  0  0
  4  5  1  0  0  0
  5  6  2  0  0  0
  6 28  1  0  0  0
 28 30  1  0  0  0
 30 31  2  0  0  0
 30 32  2  0  0  0
 30 33  1  0  0  0
 33 34  2  0  0  0
 34 35  1  0  0  0
 35 36  2  0  0  0
 36 37  1  0  0  0
 36 38  1  0  0  0
 38 39  2  0  0  0
 39 40  1  0  0  0
  6  1  1  0  0  0
 39 33  1  0  0  0
 17  7  1  0  0  0
 15  9  1  0  0  0
 25 20  1  0  0  0
 13 18  1  0  0  0
 13 19  1  0  0  0
 28 29  1  0  0  0
M  END
> <minimizedAffinity>
48.47366

> <CNNscore>
0.4250138104

> <CNNaffinity>
6.6896162033

> <CNN_VS>
2.8431792259

> <CNNaffinity_variance>
0.3543519378

$$$$
[H]c1nc(OC([H])([H])[H])c(N([H])S(=O)(=O)c2c([H])c([H])c(F)c([H])c2F)c([H])c1-c1nc([H])c2nc(N([H])[H])c(-c3c([H])c([H])c([H])c([H])c3[H])c([H])c2c1[H]


 40 44  0  0  0  0  0  0  0  0999 V2000
   21.2257    5.1742   54.4571 C   0  0  0  0  0  0  0  0  0  0  0  0
   22.2493    4.9696   55.2982 N   0  0  0  0  0  0  0  0  0  0  0  0
   23.4354    5.6493   55.2086 C   0  0  0  0  0  0  0  0  0  0  0  0
   23.6333    6.5917   54.2311 C   0  0  0  0  0  0  0  0  0  0  0  0
   22.5803    6.8086   53.3582 C   0  0  0  0  0  0  0  0  0  0  0  0
   21.3790    6.1102   53.4607 C   0  0  0  0  0  0  0  0  0  0  0  0
   24.8794    7.3518   54.0835 C   0  0  0  0  0  0  0  0  0  0  0  0
   25.2725    7.8539   52.8887 C   0  0  0  0  0  0  0  0  0  0  0  0
   26.4647    8.5787   52.7588 C   0  0  0  0  0  0  0  0  0  0  0  0
   26.8444    9.0804   51.5313 C   0  0  0  0  0  0  0  0  0  0  0  0
   28.0427    9.7957   51.4584 C   0  0  0  0  0  0  0  0  0  0  0  0
   28.8058    9.9795   52.6020 C   0  0  0  0  0  0  0  0  0  0  0  0
   30.0088   10.7205   52.4714 N   0  0  0  0  0  0  0  0  0  0  0  0
   28.4074    9.4745   53.7952 N   0  0  0  0  0  0  0  0  0  0  0  0
   27.2558    8.7860   53.8692 C   0  0  0  0  0  0  0  0  0  0  0  0
   26.8234    8.2565   55.0829 C   0  0  0  0  0  0  0  0  0  0  0  0
   25.6787    7.5709   55.1633 N   0  0  0  0  0  0  0  0  0  0  0  0
   29.9819   11.5974   51.9164 H   0  0  0  0  0  0  0  0  0  0  0  0
   30.8840   10.4098   52.9071 H   0  0  0  0  0  0  0  0  0  0  0  0
   28.4322   10.3056   50.1768 C   0  0  0  0  0  0  0  0  0  0  0  0
   28.5627    9.4701   49.0928 C   0  0  0  0  0  0  0  0  0  0  0  0
   28.9404    9.9247   47.8589 C   0  0  0  0  0  0  0  0  0  0  0  0
   29.2028   11.2598   47.6774 C   0  0  0  0  0  0  0  0  0  0  0  0
   29.0839   12.1302   48.7383 C   0  0  0  0  0  0  0  0  0  0  0  0
   28.6985   11.6387   49.9795 C   0  0  0  0  0  0  0  0  0  0  0  0
   19.6379    3.4552   53.7051 C   0  0  0  0  0  0  0  0  0  0  0  0
   20.0329    4.4425   54.6030 O   0  0  0  0  0  0  0  0  0  0  0  0
   20.3036    6.3271   52.5654 N   0  0  0  0  0  0  0  0  0  0  0  0
   19.5956    5.5438   52.4718 H   0  0  0  0  0  0  0  0  0  0  0  0
   20.0983    7.7734   51.6388 S   0  0  0  0  0  0  0  0  0  0  0  0
   20.7005    7.5784   50.2653 O   0  0  0  0  0  0  0  0  0  0  0  0
   18.6314    7.9995   51.4206 O   0  0  0  0  0  0  0  0  0  0  0  0
   20.7799    9.1668   52.4025 C   0  0  0  0  0  0  0  0  0  0  0  0
   21.2558   10.2248   51.6647 C   0  0  0  0  0  0  0  0  0  0  0  0
   21.7870   11.3210   52.3158 C   0  0  0  0  0  0  0  0  0  0  0  0
   21.8459   11.3676   53.6887 C   0  0  0  0  0  0  0  0  0  0  0  0
   22.3688   12.4454   54.3511 F   0  0  0  0  0  0  0  0  0  0  0  0
   21.3709   10.3100   54.4524 C   0  0  0  0  0  0  0  0  0  0  0  0
   20.8467    9.2304   53.7724 C   0  0  0  0  0  0  0  0  0  0  0  0
   20.3737    8.1799   54.4836 F   0  0  0  0  0  0  0  0  0  0  0  0
 26 27  1  0  0  0
 27  1  1  0  0  0
  1  2  2  0  0  0
  2  3  1  0  0  0
  3  4  2  0  0  0
  4  7  1  0  0  0
  7  8  2  0  0  0
  8  9  1  0  0  0
  9 10  2  0  0  0
 10 11  1  0  0  0
 11 20  1  0  0  0
 20 21  2  0  0  0
 21 22  1  0  0  0
 22 23  2  0  0  0
 23 24  1  0  0  0
 24 25  2  0  0  0
 11 12  2  0  0  0
 12 13  1  0  0  0
 12 14  1  0  0  0
 14 15  2  0  0  0
 15 16  1  0  0  0
 16 17  2  0  0  0
  4  5  1  0  0  0
  5  6  2  0  0  0
  6 28  1  0  0  0
 28 30  1  0  0  0
 30 31  2  0  0  0
 30 32  2  0  0  0
 30 33  1  0  0  0
 33 34  2  0  0  0
 34 35  1  0  0  0
 35 36  2  0  0  0
 36 37  1  0  0  0
 36 38  1  0  0  0
 38 39  2  0  0  0
 39 40  1  0  0  0
  6  1  1  0  0  0
 39 33  1  0  0  0
 17  7  1  0  0  0
 15  9  1  0  0  0
 25 20  1  0  0  0
 13 18  1  0  0  0
 13 19  1  0  0  0
 28 29  1  0  0  0
M  END
> <minimizedAffinity>
42.38810

> <CNNscore>
0.4226838052

> <CNNaffinity>
6.8053359985

> <CNN_VS>
2.8765053749

> <CNNaffinity_variance>
0.5260294080

$$$$
[H]c1c([H])c(S(=O)(=O)C([H])([H])C([H])([H])C([H])([H])C([H])([H])C([H])([H])C([H])([H])[H])c(Cl)c(Cl)c1C(=O)C([H])([H])C([H])([H])N1C([H])([H])C1([H])C([H])([H])[H]


 25 26  0  0  0  0  0  0  0  0999 V2000
   25.3138    8.2799   54.6385 C   0  0  0  0  0  0  0  0  0  0  0  0
   24.8594    8.8914   55.7944 C   0  0  0  0  0  0  0  0  0  0  0  0
   25.7342    9.4435   56.6914 C   0  0  0  0  0  0  0  0  0  0  0  0
   27.0825    9.4202   56.4883 C   0  0  0  0  0  0  0  0  0  0  0  0
   27.5660    8.8036   55.3267 C   0  0  0  0  0  0  0  0  0  0  0  0
   29.3084    8.7635   55.0601 Cl  0  0  0  0  0  0  0  0  0  0  0  0
   26.6754    8.2495   54.4355 C   0  0  0  0  0  0  0  0  0  0  0  0
   27.2817    7.4700   52.9949 Cl  0  0  0  0  0  0  0  0  0  0  0  0
   24.1693    7.6586   53.4701 S   0  0  0  0  0  0  0  0  0  0  0  0
   24.7417    6.3275   52.9786 O   0  0  0  0  0  0  0  0  0  0  0  0
   23.9549    8.5953   52.3499 O   0  0  0  0  0  0  0  0  0  0  0  0
   22.6751    7.3283   54.3757 C   0  0  0  0  0  0  0  0  0  0  0  0
   21.5051    7.0835   53.4891 C   0  0  0  0  0  0  0  0  0  0  0  0
   20.6387    8.3520   53.5473 C   0  0  0  0  0  0  0  0  0  0  0  0
   21.1150    9.2276   54.6722 C   0  0  0  0  0  0  0  0  0  0  0  0
   21.5558   10.6516   52.7665 C   0  0  0  0  0  0  0  0  0  0  0  0
   21.5927   10.5806   54.2880 C   0  0  0  0  0  0  0  0  0  0  0  0
   28.0423   10.1267   57.3790 C   0  0  0  0  0  0  0  0  0  0  0  0
   28.4698   11.2027   57.0740 O   0  0  0  0  0  0  0  0  0  0  0  0
   28.3914    9.3975   58.5957 C   0  0  0  0  0  0  0  0  0  0  0  0
   29.0872   10.1263   59.6763 C   0  0  0  0  0  0  0  0  0  0  0  0
   28.5044   11.1959   60.3420 N   0  0  0  0  0  0  0  0  0  0  0  0
   28.5483   12.5737   60.2304 C   0  0  0  0  0  0  0  0  0  0  0  0
   29.3775   11.8829   61.3150 C   0  0  0  0  0  0  0  0  0  0  0  0
   30.8530   11.8393   61.0610 C   0  0  0  0  0  0  0  0  0  0  0  0
 16 17  1  0  0  0
 17 15  1  0  0  0
 15 14  1  0  0  0
 14 13  1  0  0  0
 13 12  1  0  0  0
 12  9  1  0  0  0
  9 10  2  0  0  0
  9 11  2  0  0  0
  9  1  1  0  0  0
  1  2  2  0  0  0
  2  3  1  0  0  0
  3  4  2  0  0  0
  4 18  1  0  0  0
 18 19  2  0  0  0
 18 20  1  0  0  0
 20 21  1  0  0  0
 21 22  1  0  0  0
 22 23  1  0  0  0
 23 24  1  0  0  0
 24 25  1  0  0  0
  4  5  1  0  0  0
  5  6  1  0  0  0
  5  7  2  0  0  0
  7  8  1  0  0  0
  7  1  1  0  0  0
 24 22  1  0  0  0
M  END
> <minimizedAffinity>
2.81548

> <CNNscore>
0.7879843116

> <CNNaffinity>
6.1475305557

> <CNN_VS>
4.8441576958

> <CNNaffinity_variance>
0.4058373868

$$$$
[H]c1c([H])c(S(=O)(=O)C([H])([H])C([H])([H])C([H])([H])C([H])([H])C([H])([H])C([H])([H])[H])c(Cl)c(Cl)c1C(=O)C([H])([H])C([H])([H])N1C([H])([H])C1([H])C([H])([H])[H]


 25 26  0  0  0  0  0  0  0  0999 V2000
   23.7699    9.2450   54.9651 C   0  0  0  0  0  0  0  0  0  0  0  0
   24.1166    9.9614   56.0978 C   0  0  0  0  0  0  0  0  0  0  0  0
   25.3976    9.9414   56.5808 C   0  0  0  0  0  0  0  0  0  0  0  0
   26.3846    9.2238   55.9719 C   0  0  0  0  0  0  0  0  0  0  0  0
   26.0564    8.4882   54.8254 C   0  0  0  0  0  0  0  0  0  0  0  0
   27.3253    7.5525   54.0359 Cl  0  0  0  0  0  0  0  0  0  0  0  0
   24.7639    8.5145   54.3531 C   0  0  0  0  0  0  0  0  0  0  0  0
   24.3547    7.5861   52.9313 Cl  0  0  0  0  0  0  0  0  0  0  0  0
   22.1464    9.3570   54.3226 S   0  0  0  0  0  0  0  0  0  0  0  0
   21.7355   10.8248   54.4554 O   0  0  0  0  0  0  0  0  0  0  0  0
   21.2048    8.4712   55.0344 O   0  0  0  0  0  0  0  0  0  0  0  0
   22.2754    8.9631   52.5935 C   0  0  0  0  0  0  0  0  0  0  0  0
   20.9817    9.1034   51.8715 C   0  0  0  0  0  0  0  0  0  0  0  0
   20.4254    7.6819   51.6898 C   0  0  0  0  0  0  0  0  0  0  0  0
   20.2780    7.0304   53.0362 C   0  0  0  0  0  0  0  0  0  0  0  0
   22.1497    5.7772   53.9192 C   0  0  0  0  0  0  0  0  0  0  0  0
   20.8335    5.6585   53.1611 C   0  0  0  0  0  0  0  0  0  0  0  0
   27.8082    9.2910   56.3988 C   0  0  0  0  0  0  0  0  0  0  0  0
   28.6835    9.3121   55.5821 O   0  0  0  0  0  0  0  0  0  0  0  0
   28.0077    9.3186   57.8457 C   0  0  0  0  0  0  0  0  0  0  0  0
   28.6219   10.5202   58.4474 C   0  0  0  0  0  0  0  0  0  0  0  0
   29.2834   10.4812   59.6670 N   0  0  0  0  0  0  0  0  0  0  0  0
   28.9060   10.4643   60.9975 C   0  0  0  0  0  0  0  0  0  0  0  0
   29.3832   11.7759   60.3706 C   0  0  0  0  0  0  0  0  0  0  0  0
   28.3088   12.7849   60.1036 C   0  0  0  0  0  0  0  0  0  0  0  0
 16 17  1  0  0  0
 17 15  1  0  0  0
 15 14  1  0  0  0
 14 13  1  0  0  0
 13 12  1  0  0  0
 12  9  1  0  0  0
  9 10  2  0  0  0
  9 11  2  0  0  0
  9  1  1  0  0  0
  1  2  2  0  0  0
  2  3  1  0  0  0
  3  4  2  0  0  0
  4 18  1  0  0  0
 18 19  2  0  0  0
 18 20  1  0  0  0
 20 21  1  0  0  0
 21 22  1  0  0  0
 22 23  1  0  0  0
 23 24  1  0  0  0
 24 25  1  0  0  0
  4  5  1  0  0  0
  5  6  1  0  0  0
  5  7  2  0  0  0
  7  8  1  0  0  0
  7  1  1  0  0  0
 24 22  1  0  0  0
M  END
> <minimizedAffinity>
3.41061

> <CNNscore>
0.7709602714

> <CNNaffinity>
6.2243471146

> <CNN_VS>
4.7987241745

> <CNNaffinity_variance>
0.3586235642

$$$$
[H]c1c([H])c(S(=O)(=O)C([H])([H])C([H])([H])C([H])([H])C([H])([H])C([H])([H])C([H])([H])[H])c(Cl)c(Cl)c1C(=O)C([H])([H])C([H])([H])N1C([H])([H])C1([H])C([H])([H])[H]


 25 26  0  0  0  0  0  0  0  0999 V2000
   25.3826    8.3165   54.7284 C   0  0  0  0  0  0  0  0  0  0  0  0
   24.9793    8.6398   56.0127 C   0  0  0  0  0  0  0  0  0  0  0  0
   25.8745    9.1081   56.9367 C   0  0  0  0  0  0  0  0  0  0  0  0
   27.1937    9.2800   56.6368 C   0  0  0  0  0  0  0  0  0  0  0  0
   27.6259    8.9563   55.3438 C   0  0  0  0  0  0  0  0  0  0  0  0
   29.3313    9.1695   54.9501 Cl  0  0  0  0  0  0  0  0  0  0  0  0
   26.7157    8.4831   54.4262 C   0  0  0  0  0  0  0  0  0  0  0  0
   27.2596    8.0681   52.8192 Cl  0  0  0  0  0  0  0  0  0  0  0  0
   24.2017    7.8014   53.5447 S   0  0  0  0  0  0  0  0  0  0  0  0
   24.7164    6.4770   52.9772 O   0  0  0  0  0  0  0  0  0  0  0  0
   24.0112    8.8029   52.4776 O   0  0  0  0  0  0  0  0  0  0  0  0
   22.7061    7.4815   54.4517 C   0  0  0  0  0  0  0  0  0  0  0  0
   22.0638    8.7231   54.9620 C   0  0  0  0  0  0  0  0  0  0  0  0
   20.9568    9.0872   53.9593 C   0  0  0  0  0  0  0  0  0  0  0  0
   20.5657    7.8603   53.1843 C   0  0  0  0  0  0  0  0  0  0  0  0
   21.0712    9.3865   51.3763 C   0  0  0  0  0  0  0  0  0  0  0  0
   20.7337    7.9389   51.7106 C   0  0  0  0  0  0  0  0  0  0  0  0
   28.1573    9.9098   57.5794 C   0  0  0  0  0  0  0  0  0  0  0  0
   28.8496    9.2292   58.2801 O   0  0  0  0  0  0  0  0  0  0  0  0
   28.1582   11.3705   57.5609 C   0  0  0  0  0  0  0  0  0  0  0  0
   28.1885   12.0893   58.8515 C   0  0  0  0  0  0  0  0  0  0  0  0
   29.0851   11.7627   59.8595 N   0  0  0  0  0  0  0  0  0  0  0  0
   28.9984   11.1795   61.1106 C   0  0  0  0  0  0  0  0  0  0  0  0
   29.1193   12.7007   60.9998 C   0  0  0  0  0  0  0  0  0  0  0  0
   27.8655   13.4649   61.2956 C   0  0  0  0  0  0  0  0  0  0  0  0
 16 17  1  0  0  0
 17 15  1  0  0  0
 15 14  1  0  0  0
 14 13  1  0  0  0
 13 12  1  0  0  0
 12  9  1  0  0  0
  9 10  2  0  0  0
  9 11  2  0  0  0
  9  1  1  0  0  0
  1  2  2  0  0  0
  2  3  1  0  0  0
  3  4  2  0  0  0
  4 18  1  0  0  0
 18 19  2  0  0  0
 18 20  1  0  0  0
 20 21  1  0  0  0
 21 22  1  0  0  0
 22 23  1  0  0  0
 23 24  1  0  0  0
 24 25  1  0  0  0
  4  5  1  0  0  0
  5  6  1  0  0  0
  5  7  2  0  0  0
  7  8  1  0  0  0
  7  1  1  0  0  0
 24 22  1  0  0  0
M  END
> <minimizedAffinity>
5.12014

> <CNNscore>
0.7707356811

> <CNNaffinity>
6.1275644302

> <CNN_VS>
4.7227325439

> <CNNaffinity_variance>
0.3338077664

$$$$
[H]c1c([H])c(S(=O)(=O)C([H])([H])C([H])([H])C([H])([H])C([H])([H])C([H])([H])C([H])([H])[H])c(Cl)c(Cl)c1C(=O)C([H])([H])C([H])([H])N1C([H])([H])C1([H])C([H])([H])[H]


 25 26  0  0  0  0  0  0  0  0999 V2000
   25.0916    7.3661   54.1027 C   0  0  0  0  0  0  0  0  0  0  0  0
   26.4301    7.1558   53.8185 C   0  0  0  0  0  0  0  0  0  0  0  0
   27.4030    7.9327   54.3881 C   0  0  0  0  0  0  0  0  0  0  0  0
   27.1020    8.9393   55.2575 C   0  0  0  0  0  0  0  0  0  0  0  0
   25.7535    9.1729   55.5579 C   0  0  0  0  0  0  0  0  0  0  0  0
   25.3556   10.4769   56.6760 Cl  0  0  0  0  0  0  0  0  0  0  0  0
   24.7858    8.3866   54.9751 C   0  0  0  0  0  0  0  0  0  0  0  0
   23.1048    8.6885   55.3412 Cl  0  0  0  0  0  0  0  0  0  0  0  0
   23.8769    6.3039   53.4265 S   0  0  0  0  0  0  0  0  0  0  0  0
   23.1801    5.6408   54.6163 O   0  0  0  0  0  0  0  0  0  0  0  0
   24.4617    5.2971   52.5196 O   0  0  0  0  0  0  0  0  0  0  0  0
   22.7053    7.3597   52.6052 C   0  0  0  0  0  0  0  0  0  0  0  0
   21.3031    7.1128   53.0385 C   0  0  0  0  0  0  0  0  0  0  0  0
   20.5609    8.4522   52.9036 C   0  0  0  0  0  0  0  0  0  0  0  0
   21.4077    9.4120   52.1160 C   0  0  0  0  0  0  0  0  0  0  0  0
   21.5236   10.6478   54.1928 C   0  0  0  0  0  0  0  0  0  0  0  0
   21.5318   10.7825   52.6752 C   0  0  0  0  0  0  0  0  0  0  0  0
   28.1443    9.7087   55.9891 C   0  0  0  0  0  0  0  0  0  0  0  0
   28.9090   10.4096   55.3912 O   0  0  0  0  0  0  0  0  0  0  0  0
   28.1360    9.5173   57.4374 C   0  0  0  0  0  0  0  0  0  0  0  0
   28.5206   10.6547   58.2985 C   0  0  0  0  0  0  0  0  0  0  0  0
   29.2172   10.4810   59.4864 N   0  0  0  0  0  0  0  0  0  0  0  0
   28.8850   10.4090   60.8271 C   0  0  0  0  0  0  0  0  0  0  0  0
   29.4519   11.7141   60.2646 C   0  0  0  0  0  0  0  0  0  0  0  0
   28.4600   12.8249   60.1031 C   0  0  0  0  0  0  0  0  0  0  0  0
 16 17  1  0  0  0
 17 15  1  0  0  0
 15 14  1  0  0  0
 14 13  1  0  0  0
 13 12  1  0  0  0
 12  9  1  0  0  0
  9 10  2  0  0  0
  9 11  2  0  0  0
  9  1  1  0  0  0
  1  2  2  0  0  0
  2  3  1  0  0  0
  3  4  2  0  0  0
  4 18  1  0  0  0
 18 19  2  0  0  0
 18 20  1  0  0  0
 20 21  1  0  0  0
 21 22  1  0  0  0
 22 23  1  0  0  0
 23 24  1  0  0  0
 24 25  1  0  0  0
  4  5  1  0  0  0
  5  6  1  0  0  0
  5  7  2  0  0  0
  7  8  1  0  0  0
  7  1  1  0  0  0
 24 22  1  0  0  0
M  END
> <minimizedAffinity>
3.88833

> <CNNscore>
0.7547771335

> <CNNaffinity>
6.5149598122

> <CNN_VS>
4.9173426628

> <CNNaffinity_variance>
0.1958840787

$$$$
[H]c1c([H])c(S(=O)(=O)C([H])([H])C([H])([H])C([H])([H])C([H])([H])C([H])([H])C([H])([H])[H])c(Cl)c(Cl)c1C(=O)C([H])([H])C([H])([H])N1C([H])([H])C1([H])C([H])([H])[H]


 25 26  0  0  0  0  0  0  0  0999 V2000
   23.4338    9.3192   54.4880 C   0  0  0  0  0  0  0  0  0  0  0  0
   23.6415    9.9402   55.7077 C   0  0  0  0  0  0  0  0  0  0  0  0
   24.8527    9.8636   56.3414 C   0  0  0  0  0  0  0  0  0  0  0  0
   25.9036    9.1808   55.8038 C   0  0  0  0  0  0  0  0  0  0  0  0
   25.7160    8.5414   54.5712 C   0  0  0  0  0  0  0  0  0  0  0  0
   27.0679    7.6510   53.8724 Cl  0  0  0  0  0  0  0  0  0  0  0  0
   24.4920    8.6236   53.9471 C   0  0  0  0  0  0  0  0  0  0  0  0
   24.2570    7.8147   52.4170 Cl  0  0  0  0  0  0  0  0  0  0  0  0
   21.9029    9.5051   53.6617 S   0  0  0  0  0  0  0  0  0  0  0  0
   22.0702    8.8329   52.2975 O   0  0  0  0  0  0  0  0  0  0  0  0
   21.5184   10.9225   53.5163 O   0  0  0  0  0  0  0  0  0  0  0  0
   20.7197    8.5732   54.6068 C   0  0  0  0  0  0  0  0  0  0  0  0
   21.0173    7.1152   54.6276 C   0  0  0  0  0  0  0  0  0  0  0  0
   21.8341    6.8533   55.9033 C   0  0  0  0  0  0  0  0  0  0  0  0
   22.6647    5.6148   55.7156 C   0  0  0  0  0  0  0  0  0  0  0  0
   23.1588    5.4914   53.3504 C   0  0  0  0  0  0  0  0  0  0  0  0
   23.7698    5.7143   54.7282 C   0  0  0  0  0  0  0  0  0  0  0  0
   27.2639    9.1933   56.4065 C   0  0  0  0  0  0  0  0  0  0  0  0
   28.2322    9.2983   55.7102 O   0  0  0  0  0  0  0  0  0  0  0  0
   27.2847    9.0623   57.8613 C   0  0  0  0  0  0  0  0  0  0  0  0
   28.5628    9.2851   58.5684 C   0  0  0  0  0  0  0  0  0  0  0  0
   28.7300   10.3098   59.4896 N   0  0  0  0  0  0  0  0  0  0  0  0
   29.7978   11.0496   59.9643 C   0  0  0  0  0  0  0  0  0  0  0  0
   29.2540    9.8935   60.8061 C   0  0  0  0  0  0  0  0  0  0  0  0
   30.1163    8.6692   60.8437 C   0  0  0  0  0  0  0  0  0  0  0  0
 16 17  1  0  0  0
 17 15  1  0  0  0
 15 14  1  0  0  0
 14 13  1  0  0  0
 13 12  1  0  0  0
 12  9  1  0  0  0
  9 10  2  0  0  0
  9 11  2  0  0  0
  9  1  1  0  0  0
  1  2  2  0  0  0
  2  3  1  0  0  0
  3  4  2  0  0  0
  4 18  1  0  0  0
 18 19  2  0  0  0
 18 20  1  0  0  0
 20 21  1  0  0  0
 21 22  1  0  0  0
 22 23  1  0  0  0
 23 24  1  0  0  0
 24 25  1  0  0  0
  4  5  1  0  0  0
  5  6  1  0  0  0
  5  7  2  0  0  0
  7  8  1  0  0  0
  7  1  1  0  0  0
 24 22  1  0  0  0
M  END
> <minimizedAffinity>
5.84223

> <CNNscore>
0.7454514503

> <CNNaffinity>
6.3659515381

> <CNN_VS>
4.7455077171

> <CNNaffinity_variance>
0.2953567207

$$$$
[H]c1c([H])c(S(=O)(=O)C([H])([H])C([H])([H])C([H])([H])C([H])([H])C([H])([H])C([H])([H])[H])c(Cl)c(Cl)c1C(=O)C([H])([H])C([H])([H])N1C([H])([H])C1([H])C([H])([H])[H]


 25 26  0  0  0  0  0  0  0  0999 V2000
   25.4443    8.3813   54.4258 C   0  0  0  0  0  0  0  0  0  0  0  0
   24.9277    8.9785   55.5629 C   0  0  0  0  0  0  0  0  0  0  0  0
   25.7526    9.4594   56.5442 C   0  0  0  0  0  0  0  0  0  0  0  0
   27.1103    9.3766   56.4467 C   0  0  0  0  0  0  0  0  0  0  0  0
   27.6561    8.7731   55.3060 C   0  0  0  0  0  0  0  0  0  0  0  0
   29.4106    8.6562   55.1754 Cl  0  0  0  0  0  0  0  0  0  0  0  0
   26.8149    8.2908   54.3292 C   0  0  0  0  0  0  0  0  0  0  0  0
   27.4977    7.5273   52.9143 Cl  0  0  0  0  0  0  0  0  0  0  0  0
   24.3693    7.8528   53.1506 S   0  0  0  0  0  0  0  0  0  0  0  0
   24.2030    6.3427   53.3315 O   0  0  0  0  0  0  0  0  0  0  0  0
   24.8957    8.1765   51.8103 O   0  0  0  0  0  0  0  0  0  0  0  0
   22.8049    8.6339   53.4734 C   0  0  0  0  0  0  0  0  0  0  0  0
   22.8763    9.6378   54.5697 C   0  0  0  0  0  0  0  0  0  0  0  0
   22.2937    8.9615   55.8212 C   0  0  0  0  0  0  0  0  0  0  0  0
   21.4907    7.7601   55.4082 C   0  0  0  0  0  0  0  0  0  0  0  0
   21.5938    5.8528   56.8931 C   0  0  0  0  0  0  0  0  0  0  0  0
   22.1454    6.4407   55.6003 C   0  0  0  0  0  0  0  0  0  0  0  0
   28.0275   10.0076   57.4337 C   0  0  0  0  0  0  0  0  0  0  0  0
   28.4826   11.0954   57.2260 O   0  0  0  0  0  0  0  0  0  0  0  0
   28.3018    9.1932   58.6150 C   0  0  0  0  0  0  0  0  0  0  0  0
   29.1445    9.7677   59.6841 C   0  0  0  0  0  0  0  0  0  0  0  0
   28.6202   10.1655   60.9062 N   0  0  0  0  0  0  0  0  0  0  0  0
   27.4647   10.7969   61.3291 C   0  0  0  0  0  0  0  0  0  0  0  0
   28.7597   11.6033   61.2131 C   0  0  0  0  0  0  0  0  0  0  0  0
   28.8227   12.5481   60.0524 C   0  0  0  0  0  0  0  0  0  0  0  0
 16 17  1  0  0  0
 17 15  1  0  0  0
 15 14  1  0  0  0
 14 13  1  0  0  0
 13 12  1  0  0  0
 12  9  1  0  0  0
  9 10  2  0  0  0
  9 11  2  0  0  0
  9  1  1  0  0  0
  1  2  2  0  0  0
  2  3  1  0  0  0
  3  4  2  0  0  0
  4 18  1  0  0  0
 18 19  2  0  0  0
 18 20  1  0  0  0
 20 21  1  0  0  0
 21 22  1  0  0  0
 22 23  1  0  0  0
 23 24  1  0  0  0
 24 25  1  0  0  0
  4  5  1  0  0  0
  5  6  1  0  0  0
  5  7  2  0  0  0
  7  8  1  0  0  0
  7  1  1  0  0  0
 24 22  1  0  0  0
M  END
> <minimizedAffinity>
10.08148

> <CNNscore>
0.7349495292

> <CNNaffinity>
6.1347942352

> <CNN_VS>
4.5087642670

> <CNNaffinity_variance>
0.5267787576

$$$$
[H]c1c([H])c(S(=O)(=O)C([H])([H])C([H])([H])C([H])([H])C([H])([H])C([H])([H])C([H])([H])[H])c(Cl)c(Cl)c1C(=O)C([H])([H])C([H])([H])N1C([H])([H])C1([H])C([H])([H])[H]


 25 26  0  0  0  0  0  0  0  0999 V2000
   23.1223    9.0331   53.5008 C   0  0  0  0  0  0  0  0  0  0  0  0
   23.9985    8.4617   52.5941 C   0  0  0  0  0  0  0  0  0  0  0  0
   25.3040    8.2213   52.9296 C   0  0  0  0  0  0  0  0  0  0  0  0
   25.7973    8.5276   54.1635 C   0  0  0  0  0  0  0  0  0  0  0  0
   24.9297    9.1098   55.0971 C   0  0  0  0  0  0  0  0  0  0  0  0
   25.5615    9.5149   56.6925 Cl  0  0  0  0  0  0  0  0  0  0  0  0
   23.6208    9.3492   54.7449 C   0  0  0  0  0  0  0  0  0  0  0  0
   22.5449   10.0871   55.9062 Cl  0  0  0  0  0  0  0  0  0  0  0  0
   21.4398    9.2503   53.0730 S   0  0  0  0  0  0  0  0  0  0  0  0
   21.3692    9.1366   51.5489 O   0  0  0  0  0  0  0  0  0  0  0  0
   20.9112   10.5475   53.5380 O   0  0  0  0  0  0  0  0  0  0  0  0
   20.5719    7.8693   53.7811 C   0  0  0  0  0  0  0  0  0  0  0  0
   20.5436    6.6833   52.8826 C   0  0  0  0  0  0  0  0  0  0  0  0
   21.2581    5.5481   53.6335 C   0  0  0  0  0  0  0  0  0  0  0  0
   22.7416    5.6728   53.4270 C   0  0  0  0  0  0  0  0  0  0  0  0
   22.6496    6.0764   55.8108 C   0  0  0  0  0  0  0  0  0  0  0  0
   23.5715    5.6972   54.6587 C   0  0  0  0  0  0  0  0  0  0  0  0
   27.1720    8.1563   54.5950 C   0  0  0  0  0  0  0  0  0  0  0  0
   27.6027    7.0631   54.3651 O   0  0  0  0  0  0  0  0  0  0  0  0
   27.8940    9.2135   55.2986 C   0  0  0  0  0  0  0  0  0  0  0  0
   28.2593    8.9932   56.7132 C   0  0  0  0  0  0  0  0  0  0  0  0
   28.0817    9.9693   57.6839 N   0  0  0  0  0  0  0  0  0  0  0  0
   28.9131   10.7402   58.4761 C   0  0  0  0  0  0  0  0  0  0  0  0
   28.2370    9.5066   59.0778 C   0  0  0  0  0  0  0  0  0  0  0  0
   29.1392    8.3343   59.3135 C   0  0  0  0  0  0  0  0  0  0  0  0
 16 17  1  0  0  0
 17 15  1  0  0  0
 15 14  1  0  0  0
 14 13  1  0  0  0
 13 12  1  0  0  0
 12  9  1  0  0  0
  9 10  2  0  0  0
  9 11  2  0  0  0
  9  1  1  0  0  0
  1  2  2  0  0  0
  2  3  1  0  0  0
  3  4  2  0  0  0
  4 18  1  0  0  0
 18 19  2  0  0  0
 18 20  1  0  0  0
 20 21  1  0  0  0
 21 22  1  0  0  0
 22 23  1  0  0  0
 23 24  1  0  0  0
 24 25  1  0  0  0
  4  5  1  0  0  0
  5  6  1  0  0  0
  5  7  2  0  0  0
  7  8  1  0  0  0
  7  1  1  0  0  0
 24 22  1  0  0  0
M  END
> <minimizedAffinity>
5.95594

> <CNNscore>
0.7090108395

> <CNNaffinity>
6.5568323135

> <CNN_VS>
4.6488652229

> <CNNaffinity_variance>
0.5179268122

$$$$
[H]c1c([H])c(S(=O)(=O)C([H])([H])C([H])([H])C([H])([H])C([H])([H])C([H])([H])C([H])([H])[H])c(Cl)c(Cl)c1C(=O)C([H])([H])C([H])([H])N1C([H])([H])C1([H])C([H])([H])[H]


 25 26  0  0  0  0  0  0  0  0999 V2000
   25.2418    7.9232   54.3363 C   0  0  0  0  0  0  0  0  0  0  0  0
   26.5787    7.5674   54.2863 C   0  0  0  0  0  0  0  0  0  0  0  0
   27.5063    8.1969   55.0723 C   0  0  0  0  0  0  0  0  0  0  0  0
   27.1593    9.1931   55.9366 C   0  0  0  0  0  0  0  0  0  0  0  0
   25.8121    9.5725   56.0021 C   0  0  0  0  0  0  0  0  0  0  0  0
   25.3563   10.8643   57.1123 Cl  0  0  0  0  0  0  0  0  0  0  0  0
   24.8909    8.9337   55.2035 C   0  0  0  0  0  0  0  0  0  0  0  0
   23.2143    9.4177   55.2777 Cl  0  0  0  0  0  0  0  0  0  0  0  0
   24.0669    7.0444   53.3833 S   0  0  0  0  0  0  0  0  0  0  0  0
   24.6477    5.6443   53.1752 O   0  0  0  0  0  0  0  0  0  0  0  0
   23.7906    7.7063   52.0934 O   0  0  0  0  0  0  0  0  0  0  0  0
   22.6154    6.9059   54.4009 C   0  0  0  0  0  0  0  0  0  0  0  0
   21.4038    6.5180   53.6286 C   0  0  0  0  0  0  0  0  0  0  0  0
   20.6362    7.8176   53.3366 C   0  0  0  0  0  0  0  0  0  0  0  0
   20.9643    8.2866   51.9470 C   0  0  0  0  0  0  0  0  0  0  0  0
   21.7545   10.3434   52.9464 C   0  0  0  0  0  0  0  0  0  0  0  0
   21.0144    9.7580   51.7502 C   0  0  0  0  0  0  0  0  0  0  0  0
   28.1236    9.7997   56.8936 C   0  0  0  0  0  0  0  0  0  0  0  0
   28.4647   10.9403   56.7662 O   0  0  0  0  0  0  0  0  0  0  0  0
   28.5879    8.8956   57.9429 C   0  0  0  0  0  0  0  0  0  0  0  0
   28.2729    9.2290   59.3475 C   0  0  0  0  0  0  0  0  0  0  0  0
   28.9566   10.2151   60.0451 N   0  0  0  0  0  0  0  0  0  0  0  0
   30.2607   10.6737   60.0881 C   0  0  0  0  0  0  0  0  0  0  0  0
   29.7595    9.7359   61.1882 C   0  0  0  0  0  0  0  0  0  0  0  0
   30.2803    8.3332   61.1188 C   0  0  0  0  0  0  0  0  0  0  0  0
 16 17  1  0  0  0
 17 15  1  0  0  0
 15 14  1  0  0  0
 14 13  1  0  0  0
 13 12  1  0  0  0
 12  9  1  0  0  0
  9 10  2  0  0  0
  9 11  2  0  0  0
  9  1  1  0  0  0
  1  2  2  0  0  0
  2  3  1  0  0  0
  3  4  2  0  0  0
  4 18  1  0  0  0
 18 19  2  0  0  0
 18 20  1  0  0  0
 20 21  1  0  0  0
 21 22  1  0  0  0
 22 23  1  0  0  0
 23 24  1  0  0  0
 24 25  1  0  0  0
  4  5  1  0  0  0
  5  6  1  0  0  0
  5  7  2  0  0  0
  7  8  1  0  0  0
  7  1  1  0  0  0
 24 22  1  0  0  0
M  END
> <minimizedAffinity>
6.37958

> <CNNscore>
0.6755099893

> <CNNaffinity>
6.3226842880

> <CNN_VS>
4.2710366249

> <CNNaffinity_variance>
0.2737009823

$$$$
[H]c1c([H])c(S(=O)(=O)C([H])([H])C([H])([H])C([H])([H])C([H])([H])C([H])([H])C([H])([H])[H])c(Cl)c(Cl)c1C(=O)C([H])([H])C([H])([H])N1C([H])([H])C1([H])C([H])([H])[H]


 25 26  0  0  0  0  0  0  0  0999 V2000
   25.4060    8.3529   54.9316 C   0  0  0  0  0  0  0  0  0  0  0  0
   25.0162    9.0604   56.0559 C   0  0  0  0  0  0  0  0  0  0  0  0
   25.9411    9.6593   56.8686 C   0  0  0  0  0  0  0  0  0  0  0  0
   27.2781    9.5904   56.6092 C   0  0  0  0  0  0  0  0  0  0  0  0
   27.6966    8.8768   55.4783 C   0  0  0  0  0  0  0  0  0  0  0  0
   29.4241    8.7775   55.1395 Cl  0  0  0  0  0  0  0  0  0  0  0  0
   26.7562    8.2767   54.6722 C   0  0  0  0  0  0  0  0  0  0  0  0
   27.2816    7.3768   53.2704 Cl  0  0  0  0  0  0  0  0  0  0  0  0
   24.1981    7.6705   53.8656 S   0  0  0  0  0  0  0  0  0  0  0  0
   24.6648    6.2487   53.5469 O   0  0  0  0  0  0  0  0  0  0  0  0
   24.0296    8.4670   52.6347 O   0  0  0  0  0  0  0  0  0  0  0  0
   22.7017    7.5706   54.8209 C   0  0  0  0  0  0  0  0  0  0  0  0
   21.5166    8.1023   54.0945 C   0  0  0  0  0  0  0  0  0  0  0  0
   21.7653    9.6057   53.8922 C   0  0  0  0  0  0  0  0  0  0  0  0
   21.3878    9.9871   52.4883 C   0  0  0  0  0  0  0  0  0  0  0  0
   21.4160    7.8806   51.2985 C   0  0  0  0  0  0  0  0  0  0  0  0
   20.5216    9.0238   51.7616 C   0  0  0  0  0  0  0  0  0  0  0  0
   28.2905   10.3408   57.4001 C   0  0  0  0  0  0  0  0  0  0  0  0
   28.9394   11.2055   56.8855 O   0  0  0  0  0  0  0  0  0  0  0  0
   28.4037    9.9220   58.7950 C   0  0  0  0  0  0  0  0  0  0  0  0
   28.7722    8.5197   59.0798 C   0  0  0  0  0  0  0  0  0  0  0  0
   29.8750    8.1871   59.8543 N   0  0  0  0  0  0  0  0  0  0  0  0
   30.0784    7.7483   61.1500 C   0  0  0  0  0  0  0  0  0  0  0  0
   30.3058    9.2235   60.8140 C   0  0  0  0  0  0  0  0  0  0  0  0
   29.2569   10.1641   61.3227 C   0  0  0  0  0  0  0  0  0  0  0  0
 16 17  1  0  0  0
 17 15  1  0  0  0
 15 14  1  0  0  0
 14 13  1  0  0  0
 13 12  1  0  0  0
 12  9  1  0  0  0
  9 10  2  0  0  0
  9 11  2  0  0  0
  9  1  1  0  0  0
  1  2  2  0  0  0
  2  3  1  0  0  0
  3  4  2  0  0  0
  4 18  1  0  0  0
 18 19  2  0  0  0
 18 20  1  0  0  0
 20 21  1  0  0  0
 21 22  1  0  0  0
 22 23  1  0  0  0
 23 24  1  0  0  0
 24 25  1  0  0  0
  4  5  1  0  0  0
  5  6  1  0  0  0
  5  7  2  0  0  0
  7  8  1  0  0  0
  7  1  1  0  0  0
 24 22  1  0  0  0
M  END
> <minimizedAffinity>
6.16376

> <CNNscore>
0.6505817175

> <CNNaffinity>
6.0716094971

> <CNN_VS>
3.9500782490

> <CNNaffinity_variance>
0.4060970843

$$$$
[H]OC([H])([H])C([H])([H])N1C([H])([H])C([H])([H])N(c2c(Cl)c([H])c3nc(SC(C([H])([H])[H])(C([H])([H])[H])C([H])([H])[H])n([H])c3c2[H])[C@]([H])(C([H])([H])[H])C1([H])[H]


 27 29  0  0  0  0  0  0  0  0999 V2000
   25.2851    8.6563   54.8922 C   0  0  0  0  0  0  0  0  0  0  0  0
   25.4158    8.9141   56.2678 C   0  0  0  0  0  0  0  0  0  0  0  0
   26.6355    9.1220   56.8651 C   0  0  0  0  0  0  0  0  0  0  0  0
   26.9681    9.3789   58.1435 N   0  0  0  0  0  0  0  0  0  0  0  0
   28.3078    9.4938   58.1659 C   0  0  0  0  0  0  0  0  0  0  0  0
   28.8007    9.3127   56.9301 N   0  0  0  0  0  0  0  0  0  0  0  0
   27.7939    9.0766   56.0784 C   0  0  0  0  0  0  0  0  0  0  0  0
   27.6832    8.8247   54.7269 C   0  0  0  0  0  0  0  0  0  0  0  0
   26.4396    8.6158   54.1378 C   0  0  0  0  0  0  0  0  0  0  0  0
   26.4152    8.2784   52.4170 Cl  0  0  0  0  0  0  0  0  0  0  0  0
   26.2858    9.4638   58.9308 H   0  0  0  0  0  0  0  0  0  0  0  0
   22.6538   10.0719   55.7256 C   0  0  0  0  0  0  0  0  0  0  0  0
   22.8514    9.3133   54.4858 C   0  0  0  0  0  0  0  0  0  0  0  0
   21.6372    8.3806   54.3862 C   0  0  0  0  0  0  0  0  0  0  0  0
   21.4136    8.0925   53.0010 N   0  0  0  0  0  0  0  0  0  0  0  0
   22.6550    7.7599   52.4102 C   0  0  0  0  0  0  0  0  0  0  0  0
   23.7196    7.3754   53.4715 C   0  0  0  0  0  0  0  0  0  0  0  0
   24.0058    8.4886   54.3497 N   0  0  0  0  0  0  0  0  0  0  0  0
   20.3613    7.1368   52.9041 C   0  0  0  0  0  0  0  0  0  0  0  0
   20.5538    5.8611   53.6482 C   0  0  0  0  0  0  0  0  0  0  0  0
   19.6051    4.9391   53.1627 O   0  0  0  0  0  0  0  0  0  0  0  0
   19.1616    5.2574   52.3461 H   0  0  0  0  0  0  0  0  0  0  0  0
   29.2519    9.8364   59.6387 S   0  0  0  0  0  0  0  0  0  0  0  0
   28.8807   11.5521   60.1292 C   0  0  0  0  0  0  0  0  0  0  0  0
   28.5993   12.3324   58.8702 C   0  0  0  0  0  0  0  0  0  0  0  0
   27.6099   11.5556   60.9565 C   0  0  0  0  0  0  0  0  0  0  0  0
   30.0554   12.0711   60.9007 C   0  0  0  0  0  0  0  0  0  0  0  0
 12 13  1  0  0  0
 13 14  1  0  0  0
 14 15  1  0  0  0
 15 19  1  0  0  0
 19 20  1  0  0  0
 20 21  1  0  0  0
 15 16  1  0  0  0
 16 17  1  0  0  0
 17 18  1  0  0  0
 18  1  1  0  0  0
  1  2  2  0  0  0
  2  3  1  0  0  0
  3  4  1  0  0  0
  4  5  1  0  0  0
  5 23  1  0  0  0
 23 24  1  0  0  0
 24 25  1  0  0  0
 24 26  1  0  0  0
 24 27  1  0  0  0
  5  6  2  0  0  0
  6  7  1  0  0  0
  7  8  1  0  0  0
  8  9  2  0  0  0
  9 10  1  0  0  0
 18 13  1  0  0  0
  9  1  1  0  0  0
  7  3  2  0  0  0
 21 22  1  0  0  0
  4 11  1  0  0  0
M  END
> <minimizedAffinity>
9.00640

> <CNNscore>
0.6446931362

> <CNNaffinity>
6.2429933548

> <CNN_VS>
4.0248150826

> <CNNaffinity_variance>
0.7546325326

$$$$
[H]OC([H])([H])C([H])([H])N1C([H])([H])C([H])([H])N(c2c(Cl)c([H])c3nc(SC(C([H])([H])[H])(C([H])([H])[H])C([H])([H])[H])n([H])c3c2[H])[C@]([H])(C([H])([H])[H])C1([H])[H]


 27 29  0  0  0  0  0  0  0  0999 V2000
   27.2165    9.3474   56.2197 C   0  0  0  0  0  0  0  0  0  0  0  0
   25.8396    9.0646   56.2058 C   0  0  0  0  0  0  0  0  0  0  0  0
   25.2275    8.4384   55.1470 C   0  0  0  0  0  0  0  0  0  0  0  0
   23.9454    8.0843   54.9428 N   0  0  0  0  0  0  0  0  0  0  0  0
   23.9065    7.5005   53.7320 C   0  0  0  0  0  0  0  0  0  0  0  0
   25.1360    7.4902   53.1922 N   0  0  0  0  0  0  0  0  0  0  0  0
   25.9998    8.0661   54.0389 C   0  0  0  0  0  0  0  0  0  0  0  0
   27.3523    8.3363   54.0366 C   0  0  0  0  0  0  0  0  0  0  0  0
   27.9564    8.9720   55.1174 C   0  0  0  0  0  0  0  0  0  0  0  0
   29.6771    9.2902   54.9997 Cl  0  0  0  0  0  0  0  0  0  0  0  0
   23.1667    8.2504   55.6200 H   0  0  0  0  0  0  0  0  0  0  0  0
   28.4648    7.9828   58.7101 C   0  0  0  0  0  0  0  0  0  0  0  0
   28.6141    9.3984   58.3560 C   0  0  0  0  0  0  0  0  0  0  0  0
   28.3161   10.1705   59.6479 C   0  0  0  0  0  0  0  0  0  0  0  0
   29.0173   11.4181   59.5889 N   0  0  0  0  0  0  0  0  0  0  0  0
   28.7980   11.9914   58.3146 C   0  0  0  0  0  0  0  0  0  0  0  0
   27.5705   11.3673   57.5997 C   0  0  0  0  0  0  0  0  0  0  0  0
   27.7745    9.9574   57.3491 N   0  0  0  0  0  0  0  0  0  0  0  0
   28.6567   12.1916   60.7299 C   0  0  0  0  0  0  0  0  0  0  0  0
   29.0097   13.6380   60.6886 C   0  0  0  0  0  0  0  0  0  0  0  0
   30.3890   13.7461   60.9561 O   0  0  0  0  0  0  0  0  0  0  0  0
   30.8421   12.8749   60.9304 H   0  0  0  0  0  0  0  0  0  0  0  0
   22.4225    6.8494   52.9892 S   0  0  0  0  0  0  0  0  0  0  0  0
   21.2816    8.2503   52.7487 C   0  0  0  0  0  0  0  0  0  0  0  0
   20.4306    8.3595   53.9884 C   0  0  0  0  0  0  0  0  0  0  0  0
   22.0951    9.5257   52.6452 C   0  0  0  0  0  0  0  0  0  0  0  0
   20.4895    7.9860   51.5048 C   0  0  0  0  0  0  0  0  0  0  0  0
 12 13  1  0  0  0
 13 14  1  0  0  0
 14 15  1  0  0  0
 15 19  1  0  0  0
 19 20  1  0  0  0
 20 21  1  0  0  0
 15 16  1  0  0  0
 16 17  1  0  0  0
 17 18  1  0  0  0
 18  1  1  0  0  0
  1  2  2  0  0  0
  2  3  1  0  0  0
  3  4  1  0  0  0
  4  5  1  0  0  0
  5 23  1  0  0  0
 23 24  1  0  0  0
 24 25  1  0  0  0
 24 26  1  0  0  0
 24 27  1  0  0  0
  5  6  2  0  0  0
  6  7  1  0  0  0
  7  8  1  0  0  0
  8  9  2  0  0  0
  9 10  1  0  0  0
 18 13  1  0  0  0
  9  1  1  0  0  0
  7  3  2  0  0  0
 21 22  1  0  0  0
  4 11  1  0  0  0
M  END
> <minimizedAffinity>
6.24074

> <CNNscore>
0.6347402334

> <CNNaffinity>
6.1041083336

> <CNN_VS>
3.8745231628

> <CNNaffinity_variance>
0.8686450124

$$$$
[H]OC([H])([H])C([H])([H])N1C([H])([H])C([H])([H])N(c2c(Cl)c([H])c3nc(SC(C([H])([H])[H])(C([H])([H])[H])C([H])([H])[H])n([H])c3c2[H])[C@]([H])(C([H])([H])[H])C1([H])[H]


 27 29  0  0  0  0  0  0  0  0999 V2000
   24.8052    8.5192   54.6437 C   0  0  0  0  0  0  0  0  0  0  0  0
   25.0305    9.3011   55.7900 C   0  0  0  0  0  0  0  0  0  0  0  0
   26.2921    9.5562   56.2706 C   0  0  0  0  0  0  0  0  0  0  0  0
   26.7127   10.2673   57.3327 N   0  0  0  0  0  0  0  0  0  0  0  0
   28.0549   10.1835   57.3316 C   0  0  0  0  0  0  0  0  0  0  0  0
   28.4632    9.4371   56.2928 N   0  0  0  0  0  0  0  0  0  0  0  0
   27.3972    9.0201   55.5967 C   0  0  0  0  0  0  0  0  0  0  0  0
   27.1936    8.2506   54.4703 C   0  0  0  0  0  0  0  0  0  0  0  0
   25.9086    8.0014   53.9972 C   0  0  0  0  0  0  0  0  0  0  0  0
   25.7621    6.9897   52.5721 Cl  0  0  0  0  0  0  0  0  0  0  0  0
   26.0840   10.7694   58.0000 H   0  0  0  0  0  0  0  0  0  0  0  0
   22.2495   10.0465   55.5147 C   0  0  0  0  0  0  0  0  0  0  0  0
   22.3601    9.1859   54.3321 C   0  0  0  0  0  0  0  0  0  0  0  0
   21.1296    8.2708   54.3831 C   0  0  0  0  0  0  0  0  0  0  0  0
   20.8172    7.8750   53.0424 N   0  0  0  0  0  0  0  0  0  0  0  0
   22.0153    7.4725   52.4073 C   0  0  0  0  0  0  0  0  0  0  0  0
   23.1379    7.1561   53.4305 C   0  0  0  0  0  0  0  0  0  0  0  0
   23.4927    8.3316   54.1951 N   0  0  0  0  0  0  0  0  0  0  0  0
   19.7481    6.9343   53.0883 C   0  0  0  0  0  0  0  0  0  0  0  0
   19.9669    5.7225   53.9262 C   0  0  0  0  0  0  0  0  0  0  0  0
   19.4934    4.6123   53.1989 O   0  0  0  0  0  0  0  0  0  0  0  0
   19.2990    4.8368   52.2625 H   0  0  0  0  0  0  0  0  0  0  0  0
   29.1009   10.9624   58.5470 S   0  0  0  0  0  0  0  0  0  0  0  0
   29.1205    9.8802   60.0133 C   0  0  0  0  0  0  0  0  0  0  0  0
   28.8915    8.4681   59.5374 C   0  0  0  0  0  0  0  0  0  0  0  0
   30.5034    9.9293   60.6335 C   0  0  0  0  0  0  0  0  0  0  0  0
   28.0638   10.3689   60.9562 C   0  0  0  0  0  0  0  0  0  0  0  0
 12 13  1  0  0  0
 13 14  1  0  0  0
 14 15  1  0  0  0
 15 19  1  0  0  0
 19 20  1  0  0  0
 20 21  1  0  0  0
 15 16  1  0  0  0
 16 17  1  0  0  0
 17 18  1  0  0  0
 18  1  1  0  0  0
  1  2  2  0  0  0
  2  3  1  0  0  0
  3  4  1  0  0  0
  4  5  1  0  0  0
  5 23  1  0  0  0
 23 24  1  0  0  0
 24 25  1  0  0  0
 24 26  1  0  0  0
 24 27  1  0  0  0
  5  6  2  0  0  0
  6  7  1  0  0  0
  7  8  1  0  0  0
  8  9  2  0  0  0
  9 10  1  0  0  0
 18 13  1  0  0  0
  9  1  1  0  0  0
  7  3  2  0  0  0
 21 22  1  0  0  0
  4 11  1  0  0  0
M  END
> <minimizedAffinity>
9.34131

> <CNNscore>
0.5951036215

> <CNNaffinity>
6.2820138931

> <CNN_VS>
3.7384493351

> <CNNaffinity_variance>
0.7936683297

$$$$
[H]OC([H])([H])C([H])([H])N1C([H])([H])C([H])([H])N(c2c(Cl)c([H])c3nc(SC(C([H])([H])[H])(C([H])([H])[H])C([H])([H])[H])n([H])c3c2[H])[C@]([H])(C([H])([H])[H])C1([H])[H]


 27 29  0  0  0  0  0  0  0  0999 V2000
   24.1964    7.9613   54.5107 C   0  0  0  0  0  0  0  0  0  0  0  0
   24.4761    8.7691   55.6266 C   0  0  0  0  0  0  0  0  0  0  0  0
   25.7593    9.0739   56.0116 C   0  0  0  0  0  0  0  0  0  0  0  0
   26.2301    9.8160   57.0306 N   0  0  0  0  0  0  0  0  0  0  0  0
   27.5709    9.7767   56.9341 C   0  0  0  0  0  0  0  0  0  0  0  0
   27.9293    9.0272   55.8792 N   0  0  0  0  0  0  0  0  0  0  0  0
   26.8312    8.5636   55.2676 C   0  0  0  0  0  0  0  0  0  0  0  0
   26.5742    7.7693   54.1698 C   0  0  0  0  0  0  0  0  0  0  0  0
   25.2679    7.4698   53.7939 C   0  0  0  0  0  0  0  0  0  0  0  0
   25.0549    6.4303   52.3975 Cl  0  0  0  0  0  0  0  0  0  0  0  0
   25.6338   10.3080   57.7341 H   0  0  0  0  0  0  0  0  0  0  0  0
   21.9760   10.0420   53.9081 C   0  0  0  0  0  0  0  0  0  0  0  0
   21.9051    8.6117   53.5905 C   0  0  0  0  0  0  0  0  0  0  0  0
   20.5315    8.1539   54.0980 C   0  0  0  0  0  0  0  0  0  0  0  0
   20.1249    7.0252   53.3153 N   0  0  0  0  0  0  0  0  0  0  0  0
   21.2174    6.1315   53.2231 C   0  0  0  0  0  0  0  0  0  0  0  0
   22.2861    6.4052   54.3142 C   0  0  0  0  0  0  0  0  0  0  0  0
   22.8624    7.7229   54.1603 N   0  0  0  0  0  0  0  0  0  0  0  0
   18.9052    6.5210   53.8522 C   0  0  0  0  0  0  0  0  0  0  0  0
   18.7236    5.0432   53.8109 C   0  0  0  0  0  0  0  0  0  0  0  0
   19.7032    4.5193   52.9440 O   0  0  0  0  0  0  0  0  0  0  0  0
   20.3844    5.1860   52.7064 H   0  0  0  0  0  0  0  0  0  0  0  0
   28.6736   10.6099   58.0599 S   0  0  0  0  0  0  0  0  0  0  0  0
   28.8320    9.5552   59.5379 C   0  0  0  0  0  0  0  0  0  0  0  0
   27.5911    8.7029   59.6213 C   0  0  0  0  0  0  0  0  0  0  0  0
   30.0099    8.6205   59.3424 C   0  0  0  0  0  0  0  0  0  0  0  0
   29.0174   10.4535   60.7225 C   0  0  0  0  0  0  0  0  0  0  0  0
 12 13  1  0  0  0
 13 14  1  0  0  0
 14 15  1  0  0  0
 15 19  1  0  0  0
 19 20  1  0  0  0
 20 21  1  0  0  0
 15 16  1  0  0  0
 16 17  1  0  0  0
 17 18  1  0  0  0
 18  1  1  0  0  0
  1  2  2  0  0  0
  2  3  1  0  0  0
  3  4  1  0  0  0
  4  5  1  0  0  0
  5 23  1  0  0  0
 23 24  1  0  0  0
 24 25  1  0  0  0
 24 26  1  0  0  0
 24 27  1  0  0  0
  5  6  2  0  0  0
  6  7  1  0  0  0
  7  8  1  0  0  0
  8  9  2  0  0  0
  9 10  1  0  0  0
 18 13  1  0  0  0
  9  1  1  0  0  0
  7  3  2  0  0  0
 21 22  1  0  0  0
  4 11  1  0  0  0
M  END
> <minimizedAffinity>
16.54037

> <CNNscore>
0.5586310625

> <CNNaffinity>
6.1970462799

> <CNN_VS>
3.4618625641

> <CNNaffinity_variance>
1.0451245308

$$$$
[H]OC([H])([H])C([H])([H])N1C([H])([H])C([H])([H])N(c2c(Cl)c([H])c3nc(SC(C([H])([H])[H])(C([H])([H])[H])C([H])([H])[H])n([H])c3c2[H])[C@]([H])(C([H])([H])[H])C1([H])[H]


 27 29  0  0  0  0  0  0  0  0999 V2000
   23.4197    8.6590   54.8301 C   0  0  0  0  0  0  0  0  0  0  0  0
   24.7484    8.2374   55.0111 C   0  0  0  0  0  0  0  0  0  0  0  0
   25.6688    8.9828   55.7076 C   0  0  0  0  0  0  0  0  0  0  0  0
   26.9659    8.7596   55.9877 N   0  0  0  0  0  0  0  0  0  0  0  0
   27.3826    9.8204   56.7017 C   0  0  0  0  0  0  0  0  0  0  0  0
   26.3690   10.6862   56.8637 N   0  0  0  0  0  0  0  0  0  0  0  0
   25.2730   10.2081   56.2597 C   0  0  0  0  0  0  0  0  0  0  0  0
   23.9728   10.6365   56.0914 C   0  0  0  0  0  0  0  0  0  0  0  0
   23.0532    9.8692   55.3823 C   0  0  0  0  0  0  0  0  0  0  0  0
   21.4340   10.5196   55.2066 Cl  0  0  0  0  0  0  0  0  0  0  0  0
   27.5028    7.9141   55.6888 H   0  0  0  0  0  0  0  0  0  0  0  0
   21.7502    9.3304   52.3033 C   0  0  0  0  0  0  0  0  0  0  0  0
   21.9840    7.9815   52.8303 C   0  0  0  0  0  0  0  0  0  0  0  0
   20.6027    7.3142   52.8566 C   0  0  0  0  0  0  0  0  0  0  0  0
   20.7931    5.8993   52.7404 N   0  0  0  0  0  0  0  0  0  0  0  0
   21.8202    5.5142   53.6334 C   0  0  0  0  0  0  0  0  0  0  0  0
   22.0749    6.5878   54.7242 C   0  0  0  0  0  0  0  0  0  0  0  0
   22.5306    7.8290   54.1376 N   0  0  0  0  0  0  0  0  0  0  0  0
   19.5265    5.2617   52.8793 C   0  0  0  0  0  0  0  0  0  0  0  0
   19.5384    3.8751   53.4230 C   0  0  0  0  0  0  0  0  0  0  0  0
   18.3982    3.7289   54.2380 O   0  0  0  0  0  0  0  0  0  0  0  0
   17.7678    4.4748   54.1326 H   0  0  0  0  0  0  0  0  0  0  0  0
   29.0426   10.0109   57.3229 S   0  0  0  0  0  0  0  0  0  0  0  0
   28.9094   10.5757   59.0506 C   0  0  0  0  0  0  0  0  0  0  0  0
   28.1428    9.5249   59.8130 C   0  0  0  0  0  0  0  0  0  0  0  0
   30.3016   10.6416   59.6477 C   0  0  0  0  0  0  0  0  0  0  0  0
   28.2367   11.9144   59.0431 C   0  0  0  0  0  0  0  0  0  0  0  0
 12 13  1  0  0  0
 13 14  1  0  0  0
 14 15  1  0  0  0
 15 19  1  0  0  0
 19 20  1  0  0  0
 20 21  1  0  0  0
 15 16  1  0  0  0
 16 17  1  0  0  0
 17 18  1  0  0  0
 18  1  1  0  0  0
  1  2  2  0  0  0
  2  3  1  0  0  0
  3  4  1  0  0  0
  4  5  1  0  0  0
  5 23  1  0  0  0
 23 24  1  0  0  0
 24 25  1  0  0  0
 24 26  1  0  0  0
 24 27  1  0  0  0
  5  6  2  0  0  0
  6  7  1  0  0  0
  7  8  1  0  0  0
  8  9  2  0  0  0
  9 10  1  0  0  0
 18 13  1  0  0  0
  9  1  1  0  0  0
  7  3  2  0  0  0
 21 22  1  0  0  0
  4 11  1  0  0  0
M  END
> <minimizedAffinity>
18.53944

> <CNNscore>
0.5445439816

> <CNNaffinity>
6.3905324936

> <CNN_VS>
3.4799261093

> <CNNaffinity_variance>
0.6971567869

$$$$
[H]OC([H])([H])C([H])([H])N1C([H])([H])C([H])([H])N(c2c(Cl)c([H])c3nc(SC(C([H])([H])[H])(C([H])([H])[H])C([H])([H])[H])n([H])c3c2[H])[C@]([H])(C([H])([H])[H])C1([H])[H]


 27 29  0  0  0  0  0  0  0  0999 V2000
   24.1329    8.9786   55.2033 C   0  0  0  0  0  0  0  0  0  0  0  0
   25.4050    8.5380   55.6078 C   0  0  0  0  0  0  0  0  0  0  0  0
   26.2784    9.3442   56.2970 C   0  0  0  0  0  0  0  0  0  0  0  0
   27.5189    9.1158   56.7660 N   0  0  0  0  0  0  0  0  0  0  0  0
   27.9089   10.2556   57.3636 C   0  0  0  0  0  0  0  0  0  0  0  0
   26.9345   11.1748   57.2699 N   0  0  0  0  0  0  0  0  0  0  0  0
   25.8913   10.6536   56.6106 C   0  0  0  0  0  0  0  0  0  0  0  0
   24.6465   11.1017   56.2210 C   0  0  0  0  0  0  0  0  0  0  0  0
   23.7740   10.2720   55.5227 C   0  0  0  0  0  0  0  0  0  0  0  0
   22.2263   10.9507   55.0538 Cl  0  0  0  0  0  0  0  0  0  0  0  0
   28.0379    8.2144   56.6629 H   0  0  0  0  0  0  0  0  0  0  0  0
   24.9177    6.6031   53.3693 C   0  0  0  0  0  0  0  0  0  0  0  0
   23.5856    6.8277   53.9408 C   0  0  0  0  0  0  0  0  0  0  0  0
   22.6102    6.6560   52.7690 C   0  0  0  0  0  0  0  0  0  0  0  0
   21.3483    6.2375   53.3020 N   0  0  0  0  0  0  0  0  0  0  0  0
   21.0391    7.0604   54.4102 C   0  0  0  0  0  0  0  0  0  0  0  0
   21.8716    8.3697   54.4125 C   0  0  0  0  0  0  0  0  0  0  0  0
   23.2852    8.0882   54.5342 N   0  0  0  0  0  0  0  0  0  0  0  0
   20.4041    6.1862   52.2362 C   0  0  0  0  0  0  0  0  0  0  0  0
   19.8763    7.4932   51.7548 C   0  0  0  0  0  0  0  0  0  0  0  0
   20.9159    8.1398   51.0571 O   0  0  0  0  0  0  0  0  0  0  0  0
   21.6753    7.5414   50.8833 H   0  0  0  0  0  0  0  0  0  0  0  0
   29.4928   10.4735   58.1520 S   0  0  0  0  0  0  0  0  0  0  0  0
   29.1724   10.9894   59.8704 C   0  0  0  0  0  0  0  0  0  0  0  0
   28.3434    9.9107   60.5202 C   0  0  0  0  0  0  0  0  0  0  0  0
   30.4935   11.0523   60.6120 C   0  0  0  0  0  0  0  0  0  0  0  0
   28.4876   12.3212   59.8276 C   0  0  0  0  0  0  0  0  0  0  0  0
 12 13  1  0  0  0
 13 14  1  0  0  0
 14 15  1  0  0  0
 15 19  1  0  0  0
 19 20  1  0  0  0
 20 21  1  0  0  0
 15 16  1  0  0  0
 16 17  1  0  0  0
 17 18  1  0  0  0
 18  1  1  0  0  0
  1  2  2  0  0  0
  2  3  1  0  0  0
  3  4  1  0  0  0
  4  5  1  0  0  0
  5 23  1  0  0  0
 23 24  1  0  0  0
 24 25  1  0  0  0
 24 26  1  0  0  0
 24 27  1  0  0  0
  5  6  2  0  0  0
  6  7  1  0  0  0
  7  8  1  0  0  0
  8  9  2  0  0  0
  9 10  1  0  0  0
 18 13  1  0  0  0
  9  1  1  0  0  0
  7  3  2  0  0  0
 21 22  1  0  0  0
  4 11  1  0  0  0
M  END
> <minimizedAffinity>
21.08718

> <CNNscore>
0.5356844068

> <CNNaffinity>
6.0053672791

> <CNN_VS>
3.2169816494

> <CNNaffinity_variance>
1.0322873592

$$$$
[H]OC([H])([H])C([H])([H])N1C([H])([H])C([H])([H])N(c2c(Cl)c([H])c3nc(SC(C([H])([H])[H])(C([H])([H])[H])C([H])([H])[H])n([H])c3c2[H])[C@]([H])(C([H])([H])[H])C1([H])[H]


 27 29  0  0  0  0  0  0  0  0999 V2000
   23.5003    7.2544   53.5216 C   0  0  0  0  0  0  0  0  0  0  0  0
   24.1052    8.0438   52.5281 C   0  0  0  0  0  0  0  0  0  0  0  0
   25.4303    8.4032   52.5790 C   0  0  0  0  0  0  0  0  0  0  0  0
   26.1852    9.1399   51.7434 N   0  0  0  0  0  0  0  0  0  0  0  0
   27.4172    9.1718   52.2816 C   0  0  0  0  0  0  0  0  0  0  0  0
   27.4314    8.4712   53.4271 N   0  0  0  0  0  0  0  0  0  0  0  0
   26.2111    7.9693   53.6582 C   0  0  0  0  0  0  0  0  0  0  0  0
   25.6330    7.1940   54.6417 C   0  0  0  0  0  0  0  0  0  0  0  0
   24.2888    6.8393   54.5749 C   0  0  0  0  0  0  0  0  0  0  0  0
   23.6494    5.8725   55.8911 Cl  0  0  0  0  0  0  0  0  0  0  0  0
   25.8396    9.5810   50.8610 H   0  0  0  0  0  0  0  0  0  0  0  0
   21.1720    8.9833   52.4206 C   0  0  0  0  0  0  0  0  0  0  0  0
   21.1270    7.5310   52.6212 C   0  0  0  0  0  0  0  0  0  0  0  0
   19.8106    7.2674   53.3640 C   0  0  0  0  0  0  0  0  0  0  0  0
   19.3867    5.9350   53.0528 N   0  0  0  0  0  0  0  0  0  0  0  0
   20.4994    5.0720   53.1862 C   0  0  0  0  0  0  0  0  0  0  0  0
   21.6350    5.7132   54.0268 C   0  0  0  0  0  0  0  0  0  0  0  0
   22.1532    6.9004   53.3831 N   0  0  0  0  0  0  0  0  0  0  0  0
   18.2274    5.6392   53.8266 C   0  0  0  0  0  0  0  0  0  0  0  0
   17.9179    4.1968   54.0320 C   0  0  0  0  0  0  0  0  0  0  0  0
   16.7789    4.1205   54.8582 O   0  0  0  0  0  0  0  0  0  0  0  0
   16.3396    4.9923   54.9671 H   0  0  0  0  0  0  0  0  0  0  0  0
   28.7995   10.0283   51.5513 S   0  0  0  0  0  0  0  0  0  0  0  0
   28.4581   10.1786   49.7673 C   0  0  0  0  0  0  0  0  0  0  0  0
   28.9673    8.9254   49.1014 C   0  0  0  0  0  0  0  0  0  0  0  0
   26.9562   10.2205   49.5630 C   0  0  0  0  0  0  0  0  0  0  0  0
   29.1273   11.4264   49.2775 C   0  0  0  0  0  0  0  0  0  0  0  0
 12 13  1  0  0  0
 13 14  1  0  0  0
 14 15  1  0  0  0
 15 19  1  0  0  0
 19 20  1  0  0  0
 20 21  1  0  0  0
 15 16  1  0  0  0
 16 17  1  0  0  0
 17 18  1  0  0  0
 18  1  1  0  0  0
  1  2  2  0  0  0
  2  3  1  0  0  0
  3  4  1  0  0  0
  4  5  1  0  0  0
  5 23  1  0  0  0
 23 24  1  0  0  0
 24 25  1  0  0  0
 24 26  1  0  0  0
 24 27  1  0  0  0
  5  6  2  0  0  0
  6  7  1  0  0  0
  7  8  1  0  0  0
  8  9  2  0  0  0
  9 10  1  0  0  0
 18 13  1  0  0  0
  9  1  1  0  0  0
  7  3  2  0  0  0
 21 22  1  0  0  0
  4 11  1  0  0  0
M  END
> <minimizedAffinity>
32.36036

> <CNNscore>
0.4279345274

> <CNNaffinity>
6.1100125313

> <CNN_VS>
2.6146852970

> <CNNaffinity_variance>
1.0907560587

$$$$
[H]OC([H])([H])C([H])([H])N1C([H])([H])C([H])([H])N(c2c(Cl)c([H])c3nc(SC(C([H])([H])[H])(C([H])([H])[H])C([H])([H])[H])n([H])c3c2[H])[C@]([H])(C([H])([H])[H])C1([H])[H]


 27 29  0  0  0  0  0  0  0  0999 V2000
   25.3351    8.6150   54.7355 C   0  0  0  0  0  0  0  0  0  0  0  0
   24.0435    8.3542   55.2252 C   0  0  0  0  0  0  0  0  0  0  0  0
   23.0575    7.8023   54.4436 C   0  0  0  0  0  0  0  0  0  0  0  0
   21.7801    7.4804   54.7181 N   0  0  0  0  0  0  0  0  0  0  0  0
   21.2700    6.9712   53.5827 C   0  0  0  0  0  0  0  0  0  0  0  0
   22.2073    6.9751   52.6211 N   0  0  0  0  0  0  0  0  0  0  0  0
   23.3454    7.4859   53.1095 C   0  0  0  0  0  0  0  0  0  0  0  0
   24.6078    7.7355   52.6132 C   0  0  0  0  0  0  0  0  0  0  0  0
   25.5950    8.2957   53.4187 C   0  0  0  0  0  0  0  0  0  0  0  0
   27.1572    8.5946   52.6799 Cl  0  0  0  0  0  0  0  0  0  0  0  0
   21.3177    7.6169   55.6455 H   0  0  0  0  0  0  0  0  0  0  0  0
   28.3607    7.9458   54.8780 C   0  0  0  0  0  0  0  0  0  0  0  0
   27.7184    9.1024   55.5114 C   0  0  0  0  0  0  0  0  0  0  0  0
   28.2460    9.1175   56.9520 C   0  0  0  0  0  0  0  0  0  0  0  0
   28.2007   10.4688   57.4252 N   0  0  0  0  0  0  0  0  0  0  0  0
   26.9392   11.0145   57.0914 C   0  0  0  0  0  0  0  0  0  0  0  0
   25.8975    9.9125   56.7628 C   0  0  0  0  0  0  0  0  0  0  0  0
   26.2968    9.1474   55.6020 N   0  0  0  0  0  0  0  0  0  0  0  0
   28.5794   10.4778   58.7987 C   0  0  0  0  0  0  0  0  0  0  0  0
   28.7341    9.1484   59.4523 C   0  0  0  0  0  0  0  0  0  0  0  0
   28.7983    9.3642   60.8434 O   0  0  0  0  0  0  0  0  0  0  0  0
   28.5524   10.2830   61.0888 H   0  0  0  0  0  0  0  0  0  0  0  0
   19.5933    6.3885   53.4195 S   0  0  0  0  0  0  0  0  0  0  0  0
   19.6342    4.5748   53.5949 C   0  0  0  0  0  0  0  0  0  0  0  0
   18.3709    4.1597   54.3056 C   0  0  0  0  0  0  0  0  0  0  0  0
   19.5999    3.9532   52.2123 C   0  0  0  0  0  0  0  0  0  0  0  0
   20.8823    4.2160   54.3420 C   0  0  0  0  0  0  0  0  0  0  0  0
 12 13  1  0  0  0
 13 14  1  0  0  0
 14 15  1  0  0  0
 15 19  1  0  0  0
 19 20  1  0  0  0
 20 21  1  0  0  0
 15 16  1  0  0  0
 16 17  1  0  0  0
 17 18  1  0  0  0
 18  1  1  0  0  0
  1  2  2  0  0  0
  2  3  1  0  0  0
  3  4  1  0  0  0
  4  5  1  0  0  0
  5 23  1  0  0  0
 23 24  1  0  0  0
 24 25  1  0  0  0
 24 26  1  0  0  0
 24 27  1  0  0  0
  5  6  2  0  0  0
  6  7  1  0  0  0
  7  8  1  0  0  0
  8  9  2  0  0  0
  9 10  1  0  0  0
 18 13  1  0  0  0
  9  1  1  0  0  0
  7  3  2  0  0  0
 21 22  1  0  0  0
  4 11  1  0  0  0
M  END
> <minimizedAffinity>
21.28330

> <CNNscore>
0.4253429770

> <CNNaffinity>
5.9365472794

> <CNN_VS>
2.5250687599

> <CNNaffinity_variance>
0.5985493660

$$$$
[H]OC([H])([H])C([H])([H])N1C([H])([H])C([H])([H])N(c2c(Cl)c([H])c3nc(SC(C([H])([H])[H])(C([H])([H])[H])C([H])([H])[H])n([H])c3c2[H])[C@]([H])(C([H])([H])[H])C1([H])[H]


 27 29  0  0  0  0  0  0  0  0999 V2000
   22.9590    7.9931   54.3478 C   0  0  0  0  0  0  0  0  0  0  0  0
   22.6385    6.6256   54.2913 C   0  0  0  0  0  0  0  0  0  0  0  0
   21.3899    6.1763   53.9348 C   0  0  0  0  0  0  0  0  0  0  0  0
   20.8906    4.9318   53.8222 N   0  0  0  0  0  0  0  0  0  0  0  0
   19.6096    5.0757   53.4391 C   0  0  0  0  0  0  0  0  0  0  0  0
   19.3154    6.3800   53.3155 N   0  0  0  0  0  0  0  0  0  0  0  0
   20.3971    7.1116   53.6148 C   0  0  0  0  0  0  0  0  0  0  0  0
   20.6951    8.4573   53.6653 C   0  0  0  0  0  0  0  0  0  0  0  0
   21.9651    8.8953   54.0291 C   0  0  0  0  0  0  0  0  0  0  0  0
   22.2288   10.6283   54.0854 Cl  0  0  0  0  0  0  0  0  0  0  0  0
   21.4293    4.0552   54.0062 H   0  0  0  0  0  0  0  0  0  0  0  0
   25.5530    7.6154   52.6892 C   0  0  0  0  0  0  0  0  0  0  0  0
   25.4133    8.4955   53.8543 C   0  0  0  0  0  0  0  0  0  0  0  0
   26.6261    8.1852   54.7415 C   0  0  0  0  0  0  0  0  0  0  0  0
   26.9168    9.3537   55.5172 N   0  0  0  0  0  0  0  0  0  0  0  0
   25.7045    9.8391   56.0610 C   0  0  0  0  0  0  0  0  0  0  0  0
   24.5865    8.7634   56.0412 C   0  0  0  0  0  0  0  0  0  0  0  0
   24.2628    8.3730   54.6865 N   0  0  0  0  0  0  0  0  0  0  0  0
   27.9676    9.0402   56.4269 C   0  0  0  0  0  0  0  0  0  0  0  0
   28.0359    9.8598   57.6687 C   0  0  0  0  0  0  0  0  0  0  0  0
   28.3338    8.9892   58.7360 O   0  0  0  0  0  0  0  0  0  0  0  0
   28.6045    8.0979   58.4243 H   0  0  0  0  0  0  0  0  0  0  0  0
   18.4993    3.7115   53.1489 S   0  0  0  0  0  0  0  0  0  0  0  0
   16.9834    4.0379   54.1067 C   0  0  0  0  0  0  0  0  0  0  0  0
   15.8768    3.2147   53.4978 C   0  0  0  0  0  0  0  0  0  0  0  0
   17.1892    3.5405   55.5242 C   0  0  0  0  0  0  0  0  0  0  0  0
   16.7224    5.5125   54.0605 C   0  0  0  0  0  0  0  0  0  0  0  0
 12 13  1  0  0  0
 13 14  1  0  0  0
 14 15  1  0  0  0
 15 19  1  0  0  0
 19 20  1  0  0  0
 20 21  1  0  0  0
 15 16  1  0  0  0
 16 17  1  0  0  0
 17 18  1  0  0  0
 18  1  1  0  0  0
  1  2  2  0  0  0
  2  3  1  0  0  0
  3  4  1  0  0  0
  4  5  1  0  0  0
  5 23  1  0  0  0
 23 24  1  0  0  0
 24 25  1  0  0  0
 24 26  1  0  0  0
 24 27  1  0  0  0
  5  6  2  0  0  0
  6  7  1  0  0  0
  7  8  1  0  0  0
  8  9  2  0  0  0
  9 10  1  0  0  0
 18 13  1  0  0  0
  9  1  1  0  0  0
  7  3  2  0  0  0
 21 22  1  0  0  0
  4 11  1  0  0  0
M  END
> <minimizedAffinity>
17.68856

> <CNNscore>
0.3954206705

> <CNNaffinity>
6.2247362137

> <CNN_VS>
2.4613893032

> <CNNaffinity_variance>
0.3470856547

$$$$
[H]c1nc(N([H])S(=O)(=O)c2c([H])c(Cl)c(N(C([H])([H])[H])[C@]3([H])C([H])([H])N(C([H])([H])c4c([H])c([H])c(Cl)c([H])c4[H])C([H])([H])C3([H])[H])c([H])c2F)c([H])s1


 33 36  0  0  0  0  0  0  0  0999 V2000
   26.5372    9.1680   55.7436 C   0  0  0  0  0  0  0  0  0  0  0  0
   25.2982    9.6519   56.1053 C   0  0  0  0  0  0  0  0  0  0  0  0
   24.1742    9.3933   55.3542 C   0  0  0  0  0  0  0  0  0  0  0  0
   22.9512    9.8795   55.7243 F   0  0  0  0  0  0  0  0  0  0  0  0
   24.2300    8.6271   54.1864 C   0  0  0  0  0  0  0  0  0  0  0  0
   25.4710    8.1478   53.8335 C   0  0  0  0  0  0  0  0  0  0  0  0
   26.5921    8.4117   54.5914 C   0  0  0  0  0  0  0  0  0  0  0  0
   28.1709    7.7767   54.1021 Cl  0  0  0  0  0  0  0  0  0  0  0  0
   22.7672    8.3059   53.2809 S   0  0  0  0  0  0  0  0  0  0  0  0
   23.2098    7.6393   51.9911 O   0  0  0  0  0  0  0  0  0  0  0  0
   22.0629    9.5636   52.9000 O   0  0  0  0  0  0  0  0  0  0  0  0
   21.7049    7.2230   54.0630 N   0  0  0  0  0  0  0  0  0  0  0  0
   20.7217    7.1896   53.7203 H   0  0  0  0  0  0  0  0  0  0  0  0
   22.1208    6.3666   55.1672 C   0  0  0  0  0  0  0  0  0  0  0  0
   21.4294    6.3606   56.3575 C   0  0  0  0  0  0  0  0  0  0  0  0
   22.3165    5.2186   57.2637 S   0  0  0  0  0  0  0  0  0  0  0  0
   23.4959    4.8214   56.0960 C   0  0  0  0  0  0  0  0  0  0  0  0
   23.1479    5.5837   55.0750 N   0  0  0  0  0  0  0  0  0  0  0  0
   28.9334    9.8078   55.8163 C   0  0  0  0  0  0  0  0  0  0  0  0
   27.7122    9.4161   56.4937 N   0  0  0  0  0  0  0  0  0  0  0  0
   27.7337    9.2914   57.9140 C   0  0  0  0  0  0  0  0  0  0  0  0
   28.7153    8.2545   58.4203 C   0  0  0  0  0  0  0  0  0  0  0  0
   28.8260    8.6706   59.8832 C   0  0  0  0  0  0  0  0  0  0  0  0
   28.7988   10.0983   59.8642 N   0  0  0  0  0  0  0  0  0  0  0  0
   28.2913   10.5451   58.6031 C   0  0  0  0  0  0  0  0  0  0  0  0
   30.0895   10.6129   60.2110 C   0  0  0  0  0  0  0  0  0  0  0  0
   29.9719   12.0621   60.5035 C   0  0  0  0  0  0  0  0  0  0  0  0
   28.7141   12.6733   60.4711 C   0  0  0  0  0  0  0  0  0  0  0  0
   28.5375   14.0131   60.7390 C   0  0  0  0  0  0  0  0  0  0  0  0
   29.6215   14.7995   61.0524 C   0  0  0  0  0  0  0  0  0  0  0  0
   29.3724   16.4979   61.3887 Cl  0  0  0  0  0  0  0  0  0  0  0  0
   30.8697   14.2378   61.0943 C   0  0  0  0  0  0  0  0  0  0  0  0
   31.0259   12.8830   60.8205 C   0  0  0  0  0  0  0  0  0  0  0  0
 19 20  1  0  0  0
 20  1  1  0  0  0
  1  2  2  0  0  0
  2  3  1  0  0  0
  3  4  1  0  0  0
  3  5  2  0  0  0
  5  9  1  0  0  0
  9 10  2  0  0  0
  9 11  2  0  0  0
  9 12  1  0  0  0
 12 14  1  0  0  0
 14 15  2  0  0  0
 15 16  1  0  0  0
 16 17  1  0  0  0
 17 18  2  0  0  0
  5  6  1  0  0  0
  6  7  2  0  0  0
  7  8  1  0  0  0
 20 21  1  0  0  0
 21 22  1  0  0  0
 22 23  1  0  0  0
 23 24  1  0  0  0
 24 26  1  0  0  0
 26 27  1  0  0  0
 27 28  2  0  0  0
 28 29  1  0  0  0
 29 30  2  0  0  0
 30 31  1  0  0  0
 30 32  1  0  0  0
 32 33  2  0  0  0
 24 25  1  0  0  0
  7  1  1  0  0  0
 25 21  1  0  0  0
 18 14  1  0  0  0
 33 27  1  0  0  0
 12 13  1  0  0  0
M  END
> <minimizedAffinity>
12.78730

> <CNNscore>
0.6649327874

> <CNNaffinity>
6.8724508286

> <CNN_VS>
4.5697178841

> <CNNaffinity_variance>
0.4380396903

$$$$
[H]c1nc(N([H])S(=O)(=O)c2c([H])c(Cl)c(N(C([H])([H])[H])[C@]3([H])C([H])([H])N(C([H])([H])c4c([H])c([H])c(Cl)c([H])c4[H])C([H])([H])C3([H])[H])c([H])c2F)c([H])s1


 33 36  0  0  0  0  0  0  0  0999 V2000
   23.2298    9.0392   54.4506 C   0  0  0  0  0  0  0  0  0  0  0  0
   24.2035    9.1602   55.4188 C   0  0  0  0  0  0  0  0  0  0  0  0
   25.5344    8.9542   55.1346 C   0  0  0  0  0  0  0  0  0  0  0  0
   26.4901    9.0774   56.1043 F   0  0  0  0  0  0  0  0  0  0  0  0
   25.9680    8.6119   53.8505 C   0  0  0  0  0  0  0  0  0  0  0  0
   24.9888    8.4939   52.8904 C   0  0  0  0  0  0  0  0  0  0  0  0
   23.6578    8.7017   53.1836 C   0  0  0  0  0  0  0  0  0  0  0  0
   22.4287    8.5393   51.9193 Cl  0  0  0  0  0  0  0  0  0  0  0  0
   27.6745    8.3857   53.5355 S   0  0  0  0  0  0  0  0  0  0  0  0
   28.0777    7.1307   54.2879 O   0  0  0  0  0  0  0  0  0  0  0  0
   28.4933    9.5036   54.0858 O   0  0  0  0  0  0  0  0  0  0  0  0
   28.0344    8.1172   51.8888 N   0  0  0  0  0  0  0  0  0  0  0  0
   28.1642    7.1294   51.5847 H   0  0  0  0  0  0  0  0  0  0  0  0
   28.1626    9.2001   50.9210 C   0  0  0  0  0  0  0  0  0  0  0  0
   28.4751   10.4780   51.3260 C   0  0  0  0  0  0  0  0  0  0  0  0
   28.4969   11.3137   49.8382 S   0  0  0  0  0  0  0  0  0  0  0  0
   28.1138   10.0113   48.8042 C   0  0  0  0  0  0  0  0  0  0  0  0
   27.9896    9.0065   49.6525 N   0  0  0  0  0  0  0  0  0  0  0  0
   21.4435   10.1214   55.7902 C   0  0  0  0  0  0  0  0  0  0  0  0
   21.8530    9.2441   54.7103 N   0  0  0  0  0  0  0  0  0  0  0  0
   20.8418    8.6064   53.9331 C   0  0  0  0  0  0  0  0  0  0  0  0
   21.3531    8.0120   52.6368 C   0  0  0  0  0  0  0  0  0  0  0  0
   20.2057    7.0675   52.2950 C   0  0  0  0  0  0  0  0  0  0  0  0
   19.7873    6.5258   53.5483 N   0  0  0  0  0  0  0  0  0  0  0  0
   20.2952    7.3408   54.6092 C   0  0  0  0  0  0  0  0  0  0  0  0
   20.1501    5.1425   53.6245 C   0  0  0  0  0  0  0  0  0  0  0  0
   18.9231    4.3134   53.5422 C   0  0  0  0  0  0  0  0  0  0  0  0
   18.9228    3.1566   52.7559 C   0  0  0  0  0  0  0  0  0  0  0  0
   17.8179    2.3414   52.6428 C   0  0  0  0  0  0  0  0  0  0  0  0
   16.6613    2.6548   53.3177 C   0  0  0  0  0  0  0  0  0  0  0  0
   15.2715    1.6046   53.1586 Cl  0  0  0  0  0  0  0  0  0  0  0  0
   16.6220    3.7796   54.0979 C   0  0  0  0  0  0  0  0  0  0  0  0
   17.7489    4.5889   54.1983 C   0  0  0  0  0  0  0  0  0  0  0  0
 19 20  1  0  0  0
 20  1  1  0  0  0
  1  2  2  0  0  0
  2  3  1  0  0  0
  3  4  1  0  0  0
  3  5  2  0  0  0
  5  9  1  0  0  0
  9 10  2  0  0  0
  9 11  2  0  0  0
  9 12  1  0  0  0
 12 14  1  0  0  0
 14 15  2  0  0  0
 15 16  1  0  0  0
 16 17  1  0  0  0
 17 18  2  0  0  0
  5  6  1  0  0  0
  6  7  2  0  0  0
  7  8  1  0  0  0
 20 21  1  0  0  0
 21 22  1  0  0  0
 22 23  1  0  0  0
 23 24  1  0  0  0
 24 26  1  0  0  0
 26 27  1  0  0  0
 27 28  2  0  0  0
 28 29  1  0  0  0
 29 30  2  0  0  0
 30 31  1  0  0  0
 30 32  1  0  0  0
 32 33  2  0  0  0
 24 25  1  0  0  0
  7  1  1  0  0  0
 25 21  1  0  0  0
 18 14  1  0  0  0
 33 27  1  0  0  0
 12 13  1  0  0  0
M  END
> <minimizedAffinity>
32.40589

> <CNNscore>
0.6080545783

> <CNNaffinity>
6.8686523438

> <CNN_VS>
4.1765155792

> <CNNaffinity_variance>
0.3737280965

$$$$
[H]c1nc(N([H])S(=O)(=O)c2c([H])c(Cl)c(N(C([H])([H])[H])[C@]3([H])C([H])([H])N(C([H])([H])c4c([H])c([H])c(Cl)c([H])c4[H])C([H])([H])C3([H])[H])c([H])c2F)c([H])s1


 33 36  0  0  0  0  0  0  0  0999 V2000
   21.4080    8.9624   53.5546 C   0  0  0  0  0  0  0  0  0  0  0  0
   21.0520    8.9540   52.2230 C   0  0  0  0  0  0  0  0  0  0  0  0
   21.1170   10.0913   51.4505 C   0  0  0  0  0  0  0  0  0  0  0  0
   20.7609   10.0691   50.1308 F   0  0  0  0  0  0  0  0  0  0  0  0
   21.5471   11.3135   51.9753 C   0  0  0  0  0  0  0  0  0  0  0  0
   21.9010   11.3121   53.3055 C   0  0  0  0  0  0  0  0  0  0  0  0
   21.8327   10.1683   54.0723 C   0  0  0  0  0  0  0  0  0  0  0  0
   22.2965   10.2092   55.7806 Cl  0  0  0  0  0  0  0  0  0  0  0  0
   21.6360   12.7248   50.9444 S   0  0  0  0  0  0  0  0  0  0  0  0
   20.4072   12.6729   50.0549 O   0  0  0  0  0  0  0  0  0  0  0  0
   22.8247   12.6814   50.0455 O   0  0  0  0  0  0  0  0  0  0  0  0
   21.5702   14.1999   51.8004 N   0  0  0  0  0  0  0  0  0  0  0  0
   22.4739   14.6840   51.9849 H   0  0  0  0  0  0  0  0  0  0  0  0
   20.3205   14.7868   52.2690 C   0  0  0  0  0  0  0  0  0  0  0  0
   19.6838   15.7683   51.5438 C   0  0  0  0  0  0  0  0  0  0  0  0
   18.3181   16.0829   52.5175 S   0  0  0  0  0  0  0  0  0  0  0  0
   18.6306   14.9667   53.7700 C   0  0  0  0  0  0  0  0  0  0  0  0
   19.7631   14.4128   53.3762 N   0  0  0  0  0  0  0  0  0  0  0  0
   20.2328    7.6193   55.2783 C   0  0  0  0  0  0  0  0  0  0  0  0
   21.3522    7.8105   54.3762 N   0  0  0  0  0  0  0  0  0  0  0  0
   22.3759    6.8184   54.3446 C   0  0  0  0  0  0  0  0  0  0  0  0
   22.7329    6.3548   52.9472 C   0  0  0  0  0  0  0  0  0  0  0  0
   24.0809    5.6930   53.2120 C   0  0  0  0  0  0  0  0  0  0  0  0
   24.7161    6.5246   54.1838 N   0  0  0  0  0  0  0  0  0  0  0  0
   23.7362    7.3665   54.7991 C   0  0  0  0  0  0  0  0  0  0  0  0
   25.8159    7.2187   53.5840 C   0  0  0  0  0  0  0  0  0  0  0  0
   26.4590    8.0827   54.6035 C   0  0  0  0  0  0  0  0  0  0  0  0
   27.8490    8.2384   54.5993 C   0  0  0  0  0  0  0  0  0  0  0  0
   28.5056    9.0312   55.5150 C   0  0  0  0  0  0  0  0  0  0  0  0
   27.7908    9.7044   56.4780 C   0  0  0  0  0  0  0  0  0  0  0  0
   28.6465   10.7049   57.6298 Cl  0  0  0  0  0  0  0  0  0  0  0  0
   26.4278    9.5774   56.5150 C   0  0  0  0  0  0  0  0  0  0  0  0
   25.7846    8.7719   55.5810 C   0  0  0  0  0  0  0  0  0  0  0  0
 19 20  1  0  0  0
 20  1  1  0  0  0
  1  2  2  0  0  0
  2  3  1  0  0  0
  3  4  1  0  0  0
  3  5  2  0  0  0
  5  9  1  0  0  0
  9 10  2  0  0  0
  9 11  2  0  0  0
  9 12  1  0  0  0
 12 14  1  0  0  0
 14 15  2  0  0  0
 15 16  1  0  0  0
 16 17  1  0  0  0
 17 18  2  0  0  0
  5  6  1  0  0  0
  6  7  2  0  0  0
  7  8  1  0  0  0
 20 21  1  0  0  0
 21 22  1  0  0  0
 22 23  1  0  0  0
 23 24  1  0  0  0
 24 26  1  0  0  0
 26 27  1  0  0  0
 27 28  2  0  0  0
 28 29  1  0  0  0
 29 30  2  0  0  0
 30 31  1  0  0  0
 30 32  1  0  0  0
 32 33  2  0  0  0
 24 25  1  0  0  0
  7  1  1  0  0  0
 25 21  1  0  0  0
 18 14  1  0  0  0
 33 27  1  0  0  0
 12 13  1  0  0  0
M  END
> <minimizedAffinity>
24.81210

> <CNNscore>
0.6078184843

> <CNNaffinity>
6.7865447998

> <CNN_VS>
4.1249876022

> <CNNaffinity_variance>
0.5102358460

$$$$
[H]c1nc(N([H])S(=O)(=O)c2c([H])c(Cl)c(N(C([H])([H])[H])[C@]3([H])C([H])([H])N(C([H])([H])c4c([H])c([H])c(Cl)c([H])c4[H])C([H])([H])C3([H])[H])c([H])c2F)c([H])s1


 33 36  0  0  0  0  0  0  0  0999 V2000
   27.0223    9.2066   56.2385 C   0  0  0  0  0  0  0  0  0  0  0  0
   25.6563    9.3592   56.3423 C   0  0  0  0  0  0  0  0  0  0  0  0
   24.7909    8.7239   55.4809 C   0  0  0  0  0  0  0  0  0  0  0  0
   23.4380    8.8838   55.5949 F   0  0  0  0  0  0  0  0  0  0  0  0
   25.2514    7.8913   54.4568 C   0  0  0  0  0  0  0  0  0  0  0  0
   26.6166    7.7446   54.3613 C   0  0  0  0  0  0  0  0  0  0  0  0
   27.4766    8.3849   55.2281 C   0  0  0  0  0  0  0  0  0  0  0  0
   29.2271    8.1702   55.0707 Cl  0  0  0  0  0  0  0  0  0  0  0  0
   24.1084    7.0864   53.4041 S   0  0  0  0  0  0  0  0  0  0  0  0
   23.2421    6.2253   54.3051 O   0  0  0  0  0  0  0  0  0  0  0  0
   24.7878    6.1667   52.4472 O   0  0  0  0  0  0  0  0  0  0  0  0
   23.0637    8.1588   52.5844 N   0  0  0  0  0  0  0  0  0  0  0  0
   23.4855    9.0254   52.1893 H   0  0  0  0  0  0  0  0  0  0  0  0
   21.6368    7.9053   52.4255 C   0  0  0  0  0  0  0  0  0  0  0  0
   20.9472    7.1427   53.3407 C   0  0  0  0  0  0  0  0  0  0  0  0
   19.3698    7.1690   52.6900 S   0  0  0  0  0  0  0  0  0  0  0  0
   19.6733    8.1322   51.3144 C   0  0  0  0  0  0  0  0  0  0  0  0
   20.9654    8.3824   51.4265 N   0  0  0  0  0  0  0  0  0  0  0  0
   28.7296   10.9640   56.6297 C   0  0  0  0  0  0  0  0  0  0  0  0
   27.9390    9.8461   57.1078 N   0  0  0  0  0  0  0  0  0  0  0  0
   28.1122    9.4201   58.4576 C   0  0  0  0  0  0  0  0  0  0  0  0
   29.2699    8.4624   58.6510 C   0  0  0  0  0  0  0  0  0  0  0  0
   29.4612    8.5620   60.1605 C   0  0  0  0  0  0  0  0  0  0  0  0
   29.2374    9.9379   60.4712 N   0  0  0  0  0  0  0  0  0  0  0  0
   28.5561   10.5645   59.3800 C   0  0  0  0  0  0  0  0  0  0  0  0
   30.4727   10.5578   60.8463 C   0  0  0  0  0  0  0  0  0  0  0  0
   30.2666   12.0222   60.9585 C   0  0  0  0  0  0  0  0  0  0  0  0
   28.9970   12.5608   60.7254 C   0  0  0  0  0  0  0  0  0  0  0  0
   28.7393   13.9109   60.8195 C   0  0  0  0  0  0  0  0  0  0  0  0
   29.7505   14.7813   61.1535 C   0  0  0  0  0  0  0  0  0  0  0  0
   29.3992   16.4912   61.2669 Cl  0  0  0  0  0  0  0  0  0  0  0  0
   31.0077   14.2924   61.3894 C   0  0  0  0  0  0  0  0  0  0  0  0
   31.2462   12.9257   61.2890 C   0  0  0  0  0  0  0  0  0  0  0  0
 19 20  1  0  0  0
 20  1  1  0  0  0
  1  2  2  0  0  0
  2  3  1  0  0  0
  3  4  1  0  0  0
  3  5  2  0  0  0
  5  9  1  0  0  0
  9 10  2  0  0  0
  9 11  2  0  0  0
  9 12  1  0  0  0
 12 14  1  0  0  0
 14 15  2  0  0  0
 15 16  1  0  0  0
 16 17  1  0  0  0
 17 18  2  0  0  0
  5  6  1  0  0  0
  6  7  2  0  0  0
  7  8  1  0  0  0
 20 21  1  0  0  0
 21 22  1  0  0  0
 22 23  1  0  0  0
 23 24  1  0  0  0
 24 26  1  0  0  0
 26 27  1  0  0  0
 27 28  2  0  0  0
 28 29  1  0  0  0
 29 30  2  0  0  0
 30 31  1  0  0  0
 30 32  1  0  0  0
 32 33  2  0  0  0
 24 25  1  0  0  0
  7  1  1  0  0  0
 25 21  1  0  0  0
 18 14  1  0  0  0
 33 27  1  0  0  0
 12 13  1  0  0  0
M  END
> <minimizedAffinity>
7.84234

> <CNNscore>
0.5591372252

> <CNNaffinity>
6.6737580299

> <CNN_VS>
3.7315466404

> <CNNaffinity_variance>
0.5593590736

$$$$
[H]c1nc(N([H])S(=O)(=O)c2c([H])c(Cl)c(N(C([H])([H])[H])[C@]3([H])C([H])([H])N(C([H])([H])c4c([H])c([H])c(Cl)c([H])c4[H])C([H])([H])C3([H])[H])c([H])c2F)c([H])s1


 33 36  0  0  0  0  0  0  0  0999 V2000
   24.0248    8.5979   54.0665 C   0  0  0  0  0  0  0  0  0  0  0  0
   25.2378    8.0709   53.6779 C   0  0  0  0  0  0  0  0  0  0  0  0
   26.3813    8.2673   54.4182 C   0  0  0  0  0  0  0  0  0  0  0  0
   27.5782    7.7390   54.0215 F   0  0  0  0  0  0  0  0  0  0  0  0
   26.3727    9.0109   55.6020 C   0  0  0  0  0  0  0  0  0  0  0  0
   25.1571    9.5326   55.9822 C   0  0  0  0  0  0  0  0  0  0  0  0
   24.0164    9.3313   55.2346 C   0  0  0  0  0  0  0  0  0  0  0  0
   22.4718   10.0207   55.7585 Cl  0  0  0  0  0  0  0  0  0  0  0  0
   27.8492    9.2098   56.5201 S   0  0  0  0  0  0  0  0  0  0  0  0
   28.1881   10.6879   56.4550 O   0  0  0  0  0  0  0  0  0  0  0  0
   28.9901    8.4753   55.9023 O   0  0  0  0  0  0  0  0  0  0  0  0
   27.6852    8.8080   58.1708 N   0  0  0  0  0  0  0  0  0  0  0  0
   26.8787    8.2045   58.4361 H   0  0  0  0  0  0  0  0  0  0  0  0
   28.6150    9.2721   59.1934 C   0  0  0  0  0  0  0  0  0  0  0  0
   29.3177    8.3782   59.9693 C   0  0  0  0  0  0  0  0  0  0  0  0
   30.2242    9.4267   60.9649 S   0  0  0  0  0  0  0  0  0  0  0  0
   29.6664   10.9166   60.3473 C   0  0  0  0  0  0  0  0  0  0  0  0
   28.8164   10.5323   59.4122 N   0  0  0  0  0  0  0  0  0  0  0  0
   22.7405    8.9059   51.9660 C   0  0  0  0  0  0  0  0  0  0  0  0
   22.8309    8.4146   53.3276 N   0  0  0  0  0  0  0  0  0  0  0  0
   21.6986    7.7529   53.8872 C   0  0  0  0  0  0  0  0  0  0  0  0
   20.5205    7.6536   52.9398 C   0  0  0  0  0  0  0  0  0  0  0  0
   19.7063    6.5618   53.6256 C   0  0  0  0  0  0  0  0  0  0  0  0
   20.6738    5.6353   54.1206 N   0  0  0  0  0  0  0  0  0  0  0  0
   21.9600    6.2619   54.1444 C   0  0  0  0  0  0  0  0  0  0  0  0
   20.6100    4.4186   53.3680 C   0  0  0  0  0  0  0  0  0  0  0  0
   19.2160    3.9124   53.3804 C   0  0  0  0  0  0  0  0  0  0  0  0
   18.8377    2.9087   52.4827 C   0  0  0  0  0  0  0  0  0  0  0  0
   17.5609    2.3922   52.4482 C   0  0  0  0  0  0  0  0  0  0  0  0
   16.6056    2.8640   53.3178 C   0  0  0  0  0  0  0  0  0  0  0  0
   14.9914    2.1929   53.2552 Cl  0  0  0  0  0  0  0  0  0  0  0  0
   16.9372    3.8468   54.2120 C   0  0  0  0  0  0  0  0  0  0  0  0
   18.2321    4.3543   54.2301 C   0  0  0  0  0  0  0  0  0  0  0  0
 19 20  1  0  0  0
 20  1  1  0  0  0
  1  2  2  0  0  0
  2  3  1  0  0  0
  3  4  1  0  0  0
  3  5  2  0  0  0
  5  9  1  0  0  0
  9 10  2  0  0  0
  9 11  2  0  0  0
  9 12  1  0  0  0
 12 14  1  0  0  0
 14 15  2  0  0  0
 15 16  1  0  0  0
 16 17  1  0  0  0
 17 18  2  0  0  0
  5  6  1  0  0  0
  6  7  2  0  0  0
  7  8  1  0  0  0
 20 21  1  0  0  0
 21 22  1  0  0  0
 22 23  1  0  0  0
 23 24  1  0  0  0
 24 26  1  0  0  0
 26 27  1  0  0  0
 27 28  2  0  0  0
 28 29  1  0  0  0
 29 30  2  0  0  0
 30 31  1  0  0  0
 30 32  1  0  0  0
 32 33  2  0  0  0
 24 25  1  0  0  0
  7  1  1  0  0  0
 25 21  1  0  0  0
 18 14  1  0  0  0
 33 27  1  0  0  0
 12 13  1  0  0  0
M  END
> <minimizedAffinity>
18.66108

> <CNNscore>
0.5459206700

> <CNNaffinity>
6.8224229813

> <CNN_VS>
3.7245016098

> <CNNaffinity_variance>
0.1371649206

$$$$
[H]c1nc(N([H])S(=O)(=O)c2c([H])c(Cl)c(N(C([H])([H])[H])[C@]3([H])C([H])([H])N(C([H])([H])c4c([H])c([H])c(Cl)c([H])c4[H])C([H])([H])C3([H])[H])c([H])c2F)c([H])s1


 33 36  0  0  0  0  0  0  0  0999 V2000
   23.8205    9.0833   54.3266 C   0  0  0  0  0  0  0  0  0  0  0  0
   24.9687    8.5658   53.7666 C   0  0  0  0  0  0  0  0  0  0  0  0
   26.1728    8.5919   54.4330 C   0  0  0  0  0  0  0  0  0  0  0  0
   27.3043    8.0750   53.8660 F   0  0  0  0  0  0  0  0  0  0  0  0
   26.2942    9.1442   55.7114 C   0  0  0  0  0  0  0  0  0  0  0  0
   25.1424    9.6580   56.2626 C   0  0  0  0  0  0  0  0  0  0  0  0
   23.9403    9.6280   55.5882 C   0  0  0  0  0  0  0  0  0  0  0  0
   22.4813   10.3006   56.3327 Cl  0  0  0  0  0  0  0  0  0  0  0  0
   27.8428    9.1298   56.5264 S   0  0  0  0  0  0  0  0  0  0  0  0
   28.3756   10.5485   56.4406 O   0  0  0  0  0  0  0  0  0  0  0  0
   28.8280    8.2534   55.8305 O   0  0  0  0  0  0  0  0  0  0  0  0
   27.7377    8.7359   58.1838 N   0  0  0  0  0  0  0  0  0  0  0  0
   26.9858    8.0739   58.4690 H   0  0  0  0  0  0  0  0  0  0  0  0
   28.6441    9.2840   59.1855 C   0  0  0  0  0  0  0  0  0  0  0  0
   29.4113    8.4568   59.9740 C   0  0  0  0  0  0  0  0  0  0  0  0
   30.2557    9.5857   60.9357 S   0  0  0  0  0  0  0  0  0  0  0  0
   29.5953   11.0207   60.2903 C   0  0  0  0  0  0  0  0  0  0  0  0
   28.7640   10.5595   59.3734 N   0  0  0  0  0  0  0  0  0  0  0  0
   21.6734   10.2075   53.7946 C   0  0  0  0  0  0  0  0  0  0  0  0
   22.5672    9.0722   53.6678 N   0  0  0  0  0  0  0  0  0  0  0  0
   22.1496    7.9650   52.8722 C   0  0  0  0  0  0  0  0  0  0  0  0
   22.3939    6.6194   53.5239 C   0  0  0  0  0  0  0  0  0  0  0  0
   21.4763    5.7361   52.6854 C   0  0  0  0  0  0  0  0  0  0  0  0
   20.3177    6.5344   52.4407 N   0  0  0  0  0  0  0  0  0  0  0  0
   20.6245    7.9069   52.7046 C   0  0  0  0  0  0  0  0  0  0  0  0
   19.2050    6.0133   53.1766 C   0  0  0  0  0  0  0  0  0  0  0  0
   19.4024    4.5591   53.3903 C   0  0  0  0  0  0  0  0  0  0  0  0
   19.9912    3.7868   52.3835 C   0  0  0  0  0  0  0  0  0  0  0  0
   20.2074    2.4333   52.5228 C   0  0  0  0  0  0  0  0  0  0  0  0
   19.8399    1.7951   53.6844 C   0  0  0  0  0  0  0  0  0  0  0  0
   20.1245    0.0760   53.8380 Cl  0  0  0  0  0  0  0  0  0  0  0  0
   19.2604    2.5170   54.6935 C   0  0  0  0  0  0  0  0  0  0  0  0
   19.0512    3.8827   54.5323 C   0  0  0  0  0  0  0  0  0  0  0  0
 19 20  1  0  0  0
 20  1  1  0  0  0
  1  2  2  0  0  0
  2  3  1  0  0  0
  3  4  1  0  0  0
  3  5  2  0  0  0
  5  9  1  0  0  0
  9 10  2  0  0  0
  9 11  2  0  0  0
  9 12  1  0  0  0
 12 14  1  0  0  0
 14 15  2  0  0  0
 15 16  1  0  0  0
 16 17  1  0  0  0
 17 18  2  0  0  0
  5  6  1  0  0  0
  6  7  2  0  0  0
  7  8  1  0  0  0
 20 21  1  0  0  0
 21 22  1  0  0  0
 22 23  1  0  0  0
 23 24  1  0  0  0
 24 26  1  0  0  0
 26 27  1  0  0  0
 27 28  2  0  0  0
 28 29  1  0  0  0
 29 30  2  0  0  0
 30 31  1  0  0  0
 30 32  1  0  0  0
 32 33  2  0  0  0
 24 25  1  0  0  0
  7  1  1  0  0  0
 25 21  1  0  0  0
 18 14  1  0  0  0
 33 27  1  0  0  0
 12 13  1  0  0  0
M  END
> <minimizedAffinity>
27.31327

> <CNNscore>
0.5241271853

> <CNNaffinity>
6.9167356491

> <CNN_VS>
3.6252491474

> <CNNaffinity_variance>
0.2052874118

$$$$
[H]c1nc(N([H])S(=O)(=O)c2c([H])c(Cl)c(N(C([H])([H])[H])[C@]3([H])C([H])([H])N(C([H])([H])c4c([H])c([H])c(Cl)c([H])c4[H])C([H])([H])C3([H])[H])c([H])c2F)c([H])s1


 33 36  0  0  0  0  0  0  0  0999 V2000
   22.8118    8.4577   53.8552 C   0  0  0  0  0  0  0  0  0  0  0  0
   22.4080    8.1873   52.5653 C   0  0  0  0  0  0  0  0  0  0  0  0
   21.8741    9.1639   51.7556 C   0  0  0  0  0  0  0  0  0  0  0  0
   21.4776    8.8822   50.4780 F   0  0  0  0  0  0  0  0  0  0  0  0
   21.7135   10.4800   52.1984 C   0  0  0  0  0  0  0  0  0  0  0  0
   22.1199   10.7407   53.4874 C   0  0  0  0  0  0  0  0  0  0  0  0
   22.6535    9.7565   54.2920 C   0  0  0  0  0  0  0  0  0  0  0  0
   23.1636   10.1332   55.9452 Cl  0  0  0  0  0  0  0  0  0  0  0  0
   21.0531   11.6905   51.1209 S   0  0  0  0  0  0  0  0  0  0  0  0
   19.7492   11.1182   50.5954 O   0  0  0  0  0  0  0  0  0  0  0  0
   21.9330   11.9213   49.9396 O   0  0  0  0  0  0  0  0  0  0  0  0
   20.6745   13.1621   51.8983 N   0  0  0  0  0  0  0  0  0  0  0  0
   20.1895   13.1035   52.8183 H   0  0  0  0  0  0  0  0  0  0  0  0
   21.0003   14.4638   51.3282 C   0  0  0  0  0  0  0  0  0  0  0  0
   22.2587   15.0035   51.4697 C   0  0  0  0  0  0  0  0  0  0  0  0
   22.0917   16.4853   50.6399 S   0  0  0  0  0  0  0  0  0  0  0  0
   20.4584   16.3355   50.1687 C   0  0  0  0  0  0  0  0  0  0  0  0
   20.1280   15.1596   50.6715 N   0  0  0  0  0  0  0  0  0  0  0  0
   22.4892    6.5789   55.4434 C   0  0  0  0  0  0  0  0  0  0  0  0
   23.3641    7.4761   54.7133 N   0  0  0  0  0  0  0  0  0  0  0  0
   24.7731    7.3395   54.8851 C   0  0  0  0  0  0  0  0  0  0  0  0
   25.5857    7.9286   53.7504 C   0  0  0  0  0  0  0  0  0  0  0  0
   26.9541    8.0313   54.4154 C   0  0  0  0  0  0  0  0  0  0  0  0
   26.6822    8.4241   55.7612 N   0  0  0  0  0  0  0  0  0  0  0  0
   25.3038    8.1784   56.0564 C   0  0  0  0  0  0  0  0  0  0  0  0
   27.1116    9.7745   55.9688 C   0  0  0  0  0  0  0  0  0  0  0  0
   27.8368    9.8605   57.2595 C   0  0  0  0  0  0  0  0  0  0  0  0
   28.0710    8.6964   57.9989 C   0  0  0  0  0  0  0  0  0  0  0  0
   28.7435    8.7086   59.2013 C   0  0  0  0  0  0  0  0  0  0  0  0
   29.2115    9.8958   59.7144 C   0  0  0  0  0  0  0  0  0  0  0  0
   30.0623    9.8862   61.2428 Cl  0  0  0  0  0  0  0  0  0  0  0  0
   29.0019   11.0573   59.0199 C   0  0  0  0  0  0  0  0  0  0  0  0
   28.3207   11.0227   57.8077 C   0  0  0  0  0  0  0  0  0  0  0  0
 19 20  1  0  0  0
 20  1  1  0  0  0
  1  2  2  0  0  0
  2  3  1  0  0  0
  3  4  1  0  0  0
  3  5  2  0  0  0
  5  9  1  0  0  0
  9 10  2  0  0  0
  9 11  2  0  0  0
  9 12  1  0  0  0
 12 14  1  0  0  0
 14 15  2  0  0  0
 15 16  1  0  0  0
 16 17  1  0  0  0
 17 18  2  0  0  0
  5  6  1  0  0  0
  6  7  2  0  0  0
  7  8  1  0  0  0
 20 21  1  0  0  0
 21 22  1  0  0  0
 22 23  1  0  0  0
 23 24  1  0  0  0
 24 26  1  0  0  0
 26 27  1  0  0  0
 27 28  2  0  0  0
 28 29  1  0  0  0
 29 30  2  0  0  0
 30 31  1  0  0  0
 30 32  1  0  0  0
 32 33  2  0  0  0
 24 25  1  0  0  0
  7  1  1  0  0  0
 25 21  1  0  0  0
 18 14  1  0  0  0
 33 27  1  0  0  0
 12 13  1  0  0  0
M  END
> <minimizedAffinity>
26.91125

> <CNNscore>
0.5150088668

> <CNNaffinity>
6.4953513145

> <CNN_VS>
3.3451635838

> <CNNaffinity_variance>
0.0957383364

$$$$
[H]c1nc(N([H])S(=O)(=O)c2c([H])c(Cl)c(N(C([H])([H])[H])[C@]3([H])C([H])([H])N(C([H])([H])c4c([H])c([H])c(Cl)c([H])c4[H])C([H])([H])C3([H])[H])c([H])c2F)c([H])s1


 33 36  0  0  0  0  0  0  0  0999 V2000
   21.2765   10.3752   51.8858 C   0  0  0  0  0  0  0  0  0  0  0  0
   20.9153   10.8264   50.6345 C   0  0  0  0  0  0  0  0  0  0  0  0
   20.9322   12.1655   50.3166 C   0  0  0  0  0  0  0  0  0  0  0  0
   20.5715   12.5996   49.0714 F   0  0  0  0  0  0  0  0  0  0  0  0
   21.3162   13.1372   51.2452 C   0  0  0  0  0  0  0  0  0  0  0  0
   21.6757   12.6773   52.4917 C   0  0  0  0  0  0  0  0  0  0  0  0
   21.6556   11.3341   52.8019 C   0  0  0  0  0  0  0  0  0  0  0  0
   22.1250   10.7836   54.4181 Cl  0  0  0  0  0  0  0  0  0  0  0  0
   21.3451   14.8249   50.7831 S   0  0  0  0  0  0  0  0  0  0  0  0
   20.4238   14.9474   49.5831 O   0  0  0  0  0  0  0  0  0  0  0  0
   22.7007   15.2546   50.3352 O   0  0  0  0  0  0  0  0  0  0  0  0
   20.7383   15.8720   51.9867 N   0  0  0  0  0  0  0  0  0  0  0  0
   21.2527   16.7639   52.1452 H   0  0  0  0  0  0  0  0  0  0  0  0
   19.5538   15.5637   52.7787 C   0  0  0  0  0  0  0  0  0  0  0  0
   19.6239   14.7043   53.8517 C   0  0  0  0  0  0  0  0  0  0  0  0
   18.0067   14.7035   54.3968 S   0  0  0  0  0  0  0  0  0  0  0  0
   17.3458   15.7782   53.2478 C   0  0  0  0  0  0  0  0  0  0  0  0
   18.3977   16.0803   52.5084 N   0  0  0  0  0  0  0  0  0  0  0  0
   20.8473    8.0076   51.2804 C   0  0  0  0  0  0  0  0  0  0  0  0
   21.2696    9.0055   52.2445 N   0  0  0  0  0  0  0  0  0  0  0  0
   21.6702    8.5695   53.5417 C   0  0  0  0  0  0  0  0  0  0  0  0
   21.4546    7.0891   53.7810 C   0  0  0  0  0  0  0  0  0  0  0  0
   22.3523    6.8723   54.9945 C   0  0  0  0  0  0  0  0  0  0  0  0
   23.4976    7.6919   54.7578 N   0  0  0  0  0  0  0  0  0  0  0  0
   23.1898    8.6536   53.7440 C   0  0  0  0  0  0  0  0  0  0  0  0
   24.6355    6.8675   54.4810 C   0  0  0  0  0  0  0  0  0  0  0  0
   25.8458    7.7210   54.4018 C   0  0  0  0  0  0  0  0  0  0  0  0
   26.4679    8.1480   55.5796 C   0  0  0  0  0  0  0  0  0  0  0  0
   27.5976    8.9366   55.5734 C   0  0  0  0  0  0  0  0  0  0  0  0
   28.1530    9.3315   54.3787 C   0  0  0  0  0  0  0  0  0  0  0  0
   29.5873   10.3326   54.3962 Cl  0  0  0  0  0  0  0  0  0  0  0  0
   27.5728    8.9338   53.2038 C   0  0  0  0  0  0  0  0  0  0  0  0
   26.4326    8.1376   53.2325 C   0  0  0  0  0  0  0  0  0  0  0  0
 19 20  1  0  0  0
 20  1  1  0  0  0
  1  2  2  0  0  0
  2  3  1  0  0  0
  3  4  1  0  0  0
  3  5  2  0  0  0
  5  9  1  0  0  0
  9 10  2  0  0  0
  9 11  2  0  0  0
  9 12  1  0  0  0
 12 14  1  0  0  0
 14 15  2  0  0  0
 15 16  1  0  0  0
 16 17  1  0  0  0
 17 18  2  0  0  0
  5  6  1  0  0  0
  6  7  2  0  0  0
  7  8  1  0  0  0
 20 21  1  0  0  0
 21 22  1  0  0  0
 22 23  1  0  0  0
 23 24  1  0  0  0
 24 26  1  0  0  0
 26 27  1  0  0  0
 27 28  2  0  0  0
 28 29  1  0  0  0
 29 30  2  0  0  0
 30 31  1  0  0  0
 30 32  1  0  0  0
 32 33  2  0  0  0
 24 25  1  0  0  0
  7  1  1  0  0  0
 25 21  1  0  0  0
 18 14  1  0  0  0
 33 27  1  0  0  0
 12 13  1  0  0  0
M  END
> <minimizedAffinity>
35.01934

> <CNNscore>
0.5030723214

> <CNNaffinity>
6.7286787033

> <CNN_VS>
3.3850119114

> <CNNaffinity_variance>
0.3119452894

$$$$
[H]c1nc(N([H])S(=O)(=O)c2c([H])c(Cl)c(N(C([H])([H])[H])[C@]3([H])C([H])([H])N(C([H])([H])c4c([H])c([H])c(Cl)c([H])c4[H])C([H])([H])C3([H])[H])c([H])c2F)c([H])s1


 33 36  0  0  0  0  0  0  0  0999 V2000
   23.0470    9.9064   55.6145 C   0  0  0  0  0  0  0  0  0  0  0  0
   23.8953   10.9928   55.6139 C   0  0  0  0  0  0  0  0  0  0  0  0
   25.1873   10.9009   56.0796 C   0  0  0  0  0  0  0  0  0  0  0  0
   26.0184   11.9864   56.0735 F   0  0  0  0  0  0  0  0  0  0  0  0
   25.7064    9.7021   56.5770 C   0  0  0  0  0  0  0  0  0  0  0  0
   24.8523    8.6227   56.5731 C   0  0  0  0  0  0  0  0  0  0  0  0
   23.5594    8.7235   56.1051 C   0  0  0  0  0  0  0  0  0  0  0  0
   22.4921    7.3107   56.1180 Cl  0  0  0  0  0  0  0  0  0  0  0  0
   27.3640    9.6316   57.1337 S   0  0  0  0  0  0  0  0  0  0  0  0
   27.9357   11.0224   56.9275 O   0  0  0  0  0  0  0  0  0  0  0  0
   28.1862    8.6981   56.3118 O   0  0  0  0  0  0  0  0  0  0  0  0
   27.5106    9.2736   58.7961 N   0  0  0  0  0  0  0  0  0  0  0  0
   26.9497    8.4759   59.1626 H   0  0  0  0  0  0  0  0  0  0  0  0
   28.3736   10.0308   59.6947 C   0  0  0  0  0  0  0  0  0  0  0  0
   29.5927   10.5082   59.2698 C   0  0  0  0  0  0  0  0  0  0  0  0
   30.1627   11.2919   60.6745 S   0  0  0  0  0  0  0  0  0  0  0  0
   28.8397   10.9726   61.7039 C   0  0  0  0  0  0  0  0  0  0  0  0
   28.0324   10.2833   60.9179 N   0  0  0  0  0  0  0  0  0  0  0  0
   20.9758   11.2144   55.2199 C   0  0  0  0  0  0  0  0  0  0  0  0
   21.7132    9.9679   55.1430 N   0  0  0  0  0  0  0  0  0  0  0  0
   21.0626    8.8273   54.5872 C   0  0  0  0  0  0  0  0  0  0  0  0
   20.9422    8.8694   53.0776 C   0  0  0  0  0  0  0  0  0  0  0  0
   20.6481    7.4023   52.7833 C   0  0  0  0  0  0  0  0  0  0  0  0
   21.4600    6.6711   53.7030 N   0  0  0  0  0  0  0  0  0  0  0  0
   21.8886    7.5437   54.7529 C   0  0  0  0  0  0  0  0  0  0  0  0
   22.5177    6.0113   52.9981 C   0  0  0  0  0  0  0  0  0  0  0  0
   23.7772    6.7701   53.1912 C   0  0  0  0  0  0  0  0  0  0  0  0
   24.8014    6.2216   53.9699 C   0  0  0  0  0  0  0  0  0  0  0  0
   25.9967    6.8730   54.1824 C   0  0  0  0  0  0  0  0  0  0  0  0
   26.2150    8.1085   53.6190 C   0  0  0  0  0  0  0  0  0  0  0  0
   27.7404    8.9162   53.9028 Cl  0  0  0  0  0  0  0  0  0  0  0  0
   25.2361    8.6790   52.8498 C   0  0  0  0  0  0  0  0  0  0  0  0
   24.0367    8.0042   52.6479 C   0  0  0  0  0  0  0  0  0  0  0  0
 19 20  1  0  0  0
 20  1  1  0  0  0
  1  2  2  0  0  0
  2  3  1  0  0  0
  3  4  1  0  0  0
  3  5  2  0  0  0
  5  9  1  0  0  0
  9 10  2  0  0  0
  9 11  2  0  0  0
  9 12  1  0  0  0
 12 14  1  0  0  0
 14 15  2  0  0  0
 15 16  1  0  0  0
 16 17  1  0  0  0
 17 18  2  0  0  0
  5  6  1  0  0  0
  6  7  2  0  0  0
  7  8  1  0  0  0
 20 21  1  0  0  0
 21 22  1  0  0  0
 22 23  1  0  0  0
 23 24  1  0  0  0
 24 26  1  0  0  0
 26 27  1  0  0  0
 27 28  2  0  0  0
 28 29  1  0  0  0
 29 30  2  0  0  0
 30 31  1  0  0  0
 30 32  1  0  0  0
 32 33  2  0  0  0
 24 25  1  0  0  0
  7  1  1  0  0  0
 25 21  1  0  0  0
 18 14  1  0  0  0
 33 27  1  0  0  0
 12 13  1  0  0  0
M  END
> <minimizedAffinity>
25.08434

> <CNNscore>
0.5009484887

> <CNNaffinity>
6.9025993347

> <CNN_VS>
3.4578466415

> <CNNaffinity_variance>
0.3792273402

$$$$
[H]OC1([H])C([H])([H])OC([H])([H])C([H])([H])C1(c1c([H])c([H])c(C(F)(F)F)c([H])c1F)N([H])C(=O)c1c([H])nn2c([H])c(C([H])([H])[H])c([H])nc12


 33 36  0  0  0  0  0  0  0  0999 V2000
   22.5626    8.5611   53.7000 C   0  0  0  0  0  0  0  0  0  0  0  0
   22.9008    9.2297   52.4971 C   0  0  0  0  0  0  0  0  0  0  0  0
   21.9610   10.2865   51.9366 C   0  0  0  0  0  0  0  0  0  0  0  0
   20.8503   10.5943   52.6321 O   0  0  0  0  0  0  0  0  0  0  0  0
   20.9394   10.5126   53.9689 C   0  0  0  0  0  0  0  0  0  0  0  0
   21.8053    9.5442   54.6284 C   0  0  0  0  0  0  0  0  0  0  0  0
   22.7171   10.2526   55.4374 O   0  0  0  0  0  0  0  0  0  0  0  0
   22.4249   10.2977   56.3554 H   0  0  0  0  0  0  0  0  0  0  0  0
   21.8377    7.3079   53.8250 C   0  0  0  0  0  0  0  0  0  0  0  0
   20.4505    7.3802   53.6083 C   0  0  0  0  0  0  0  0  0  0  0  0
   19.6447    6.2665   53.5527 C   0  0  0  0  0  0  0  0  0  0  0  0
   20.1371    5.0128   53.7061 C   0  0  0  0  0  0  0  0  0  0  0  0
   21.5118    4.8994   53.9223 C   0  0  0  0  0  0  0  0  0  0  0  0
   22.2928    6.0407   53.9709 C   0  0  0  0  0  0  0  0  0  0  0  0
   23.5904    5.8545   54.2200 F   0  0  0  0  0  0  0  0  0  0  0  0
   19.2795    3.8094   53.6068 C   0  0  0  0  0  0  0  0  0  0  0  0
   19.6145    3.0602   52.4726 F   0  0  0  0  0  0  0  0  0  0  0  0
   19.4402    3.0650   54.7520 F   0  0  0  0  0  0  0  0  0  0  0  0
   17.9201    4.1124   53.5837 F   0  0  0  0  0  0  0  0  0  0  0  0
   25.0266    8.4824   53.7840 C   0  0  0  0  0  0  0  0  0  0  0  0
   25.0044    8.8461   52.5726 O   0  0  0  0  0  0  0  0  0  0  0  0
   23.7957    8.3094   54.5151 N   0  0  0  0  0  0  0  0  0  0  0  0
   23.8229    8.0280   55.4797 H   0  0  0  0  0  0  0  0  0  0  0  0
   29.0146   10.0134   58.9469 C   0  0  0  0  0  0  0  0  0  0  0  0
   28.2357    9.5675   57.7372 C   0  0  0  0  0  0  0  0  0  0  0  0
   26.9116    9.9039   57.5612 C   0  0  0  0  0  0  0  0  0  0  0  0
   26.2339    9.4988   56.4706 N   0  0  0  0  0  0  0  0  0  0  0  0
   26.8414    8.7608   55.5373 C   0  0  0  0  0  0  0  0  0  0  0  0
   26.3435    8.2610   54.3232 C   0  0  0  0  0  0  0  0  0  0  0  0
   27.4064    7.6023   53.7829 C   0  0  0  0  0  0  0  0  0  0  0  0
   28.4608    7.7095   54.6196 N   0  0  0  0  0  0  0  0  0  0  0  0
   28.1141    8.4198   55.6844 N   0  0  0  0  0  0  0  0  0  0  0  0
   28.8535    8.7938   56.7588 C   0  0  0  0  0  0  0  0  0  0  0  0
 24 25  1  0  0  0
 25 26  1  0  0  0
 26 27  2  0  0  0
 27 28  1  0  0  0
 28 29  2  0  0  0
 29 20  1  0  0  0
 20 21  2  0  0  0
 20 22  1  0  0  0
 22  1  1  0  0  0
  1  9  1  0  0  0
  9 10  2  0  0  0
 10 11  1  0  0  0
 11 12  2  0  0  0
 12 16  1  0  0  0
 16 17  1  0  0  0
 16 18  1  0  0  0
 16 19  1  0  0  0
 12 13  1  0  0  0
 13 14  2  0  0  0
 14 15  1  0  0  0
  1  2  1  0  0  0
  2  3  1  0  0  0
  3  4  1  0  0  0
  4  5  1  0  0  0
  5  6  1  0  0  0
  6  7  1  0  0  0
 29 30  1  0  0  0
 30 31  2  0  0  0
 31 32  1  0  0  0
 32 33  1  0  0  0
 33 25  2  0  0  0
 32 28  1  0  0  0
  6  1  1  0  0  0
 14  9  1  0  0  0
 22 23  1  0  0  0
  7  8  1  0  0  0
M  END
> <minimizedAffinity>
17.38946

> <CNNscore>
0.5211942196

> <CNNaffinity>
6.4495773315

> <CNN_VS>
3.3614823818

> <CNNaffinity_variance>
0.3629285693

$$$$
[H]OC1([H])C([H])([H])OC([H])([H])C([H])([H])C1(c1c([H])c([H])c(C(F)(F)F)c([H])c1F)N([H])C(=O)c1c([H])nn2c([H])c(C([H])([H])[H])c([H])nc12


 33 36  0  0  0  0  0  0  0  0999 V2000
   22.5877    8.6025   54.0569 C   0  0  0  0  0  0  0  0  0  0  0  0
   21.6177    9.0424   54.9916 C   0  0  0  0  0  0  0  0  0  0  0  0
   21.0586   10.4531   54.8848 C   0  0  0  0  0  0  0  0  0  0  0  0
   21.4679   11.2323   53.8664 O   0  0  0  0  0  0  0  0  0  0  0  0
   21.7571   10.6081   52.7138 C   0  0  0  0  0  0  0  0  0  0  0  0
   22.2957    9.2548   52.6816 C   0  0  0  0  0  0  0  0  0  0  0  0
   21.4101    8.4493   51.9371 O   0  0  0  0  0  0  0  0  0  0  0  0
   21.6927    8.3555   51.0198 H   0  0  0  0  0  0  0  0  0  0  0  0
   24.0318    8.6801   54.1994 C   0  0  0  0  0  0  0  0  0  0  0  0
   24.4975    9.3196   55.3616 C   0  0  0  0  0  0  0  0  0  0  0  0
   25.8272    9.3534   55.7130 C   0  0  0  0  0  0  0  0  0  0  0  0
   26.7875    8.7689   54.9554 C   0  0  0  0  0  0  0  0  0  0  0  0
   26.3642    8.1222   53.7927 C   0  0  0  0  0  0  0  0  0  0  0  0
   25.0185    8.1064   53.4705 C   0  0  0  0  0  0  0  0  0  0  0  0
   24.6957    7.5031   52.3249 F   0  0  0  0  0  0  0  0  0  0  0  0
   28.2148    8.7684   55.3510 C   0  0  0  0  0  0  0  0  0  0  0  0
   28.3415    8.9608   56.7318 F   0  0  0  0  0  0  0  0  0  0  0  0
   28.7716    7.5703   54.9690 F   0  0  0  0  0  0  0  0  0  0  0  0
   28.9659    9.7261   54.6735 F   0  0  0  0  0  0  0  0  0  0  0  0
   20.9825    6.7571   53.7377 C   0  0  0  0  0  0  0  0  0  0  0  0
   20.0753    7.6043   53.9814 O   0  0  0  0  0  0  0  0  0  0  0  0
   22.3681    7.1566   53.7264 N   0  0  0  0  0  0  0  0  0  0  0  0
   23.0819    6.4785   53.5239 H   0  0  0  0  0  0  0  0  0  0  0  0
   15.5040    2.9052   53.9638 C   0  0  0  0  0  0  0  0  0  0  0  0
   16.8113    3.6438   53.8449 C   0  0  0  0  0  0  0  0  0  0  0  0
   16.9046    4.9979   54.0790 C   0  0  0  0  0  0  0  0  0  0  0  0
   18.0837    5.6390   53.9715 N   0  0  0  0  0  0  0  0  0  0  0  0
   19.1870    4.9652   53.6350 C   0  0  0  0  0  0  0  0  0  0  0  0
   20.5087    5.4187   53.4962 C   0  0  0  0  0  0  0  0  0  0  0  0
   21.2031    4.2967   53.1577 C   0  0  0  0  0  0  0  0  0  0  0  0
   20.3497    3.2516   53.1042 N   0  0  0  0  0  0  0  0  0  0  0  0
   19.1239    3.6619   53.4003 N   0  0  0  0  0  0  0  0  0  0  0  0
   17.9685    2.9563   53.4901 C   0  0  0  0  0  0  0  0  0  0  0  0
 24 25  1  0  0  0
 25 26  1  0  0  0
 26 27  2  0  0  0
 27 28  1  0  0  0
 28 29  2  0  0  0
 29 20  1  0  0  0
 20 21  2  0  0  0
 20 22  1  0  0  0
 22  1  1  0  0  0
  1  9  1  0  0  0
  9 10  2  0  0  0
 10 11  1  0  0  0
 11 12  2  0  0  0
 12 16  1  0  0  0
 16 17  1  0  0  0
 16 18  1  0  0  0
 16 19  1  0  0  0
 12 13  1  0  0  0
 13 14  2  0  0  0
 14 15  1  0  0  0
  1  2  1  0  0  0
  2  3  1  0  0  0
  3  4  1  0  0  0
  4  5  1  0  0  0
  5  6  1  0  0  0
  6  7  1  0  0  0
 29 30  1  0  0  0
 30 31  2  0  0  0
 31 32  1  0  0  0
 32 33  1  0  0  0
 33 25  2  0  0  0
 32 28  1  0  0  0
  6  1  1  0  0  0
 14  9  1  0  0  0
 22 23  1  0  0  0
  7  8  1  0  0  0
M  END
> <minimizedAffinity>
21.19463

> <CNNscore>
0.5048055649

> <CNNaffinity>
6.6373329163

> <CNN_VS>
3.3505625725

> <CNNaffinity_variance>
0.5570570230

$$$$
[H]OC1([H])C([H])([H])OC([H])([H])C([H])([H])C1(c1c([H])c([H])c(C(F)(F)F)c([H])c1F)N([H])C(=O)c1c([H])nn2c([H])c(C([H])([H])[H])c([H])nc12


 33 36  0  0  0  0  0  0  0  0999 V2000
   22.4490    8.3796   54.0599 C   0  0  0  0  0  0  0  0  0  0  0  0
   21.3510    8.8417   54.8274 C   0  0  0  0  0  0  0  0  0  0  0  0
   20.8383   10.2596   54.6252 C   0  0  0  0  0  0  0  0  0  0  0  0
   21.4153   11.0239   53.6792 O   0  0  0  0  0  0  0  0  0  0  0  0
   21.8724   10.3856   52.5905 C   0  0  0  0  0  0  0  0  0  0  0  0
   22.3877    9.0243   52.6518 C   0  0  0  0  0  0  0  0  0  0  0  0
   21.6176    8.2256   51.7820 O   0  0  0  0  0  0  0  0  0  0  0  0
   22.0396    8.1198   50.9214 H   0  0  0  0  0  0  0  0  0  0  0  0
   23.8537    8.4370   54.4278 C   0  0  0  0  0  0  0  0  0  0  0  0
   24.7409    7.7822   53.5556 C   0  0  0  0  0  0  0  0  0  0  0  0
   26.1083    7.8602   53.6851 C   0  0  0  0  0  0  0  0  0  0  0  0
   26.6987    8.5782   54.6719 C   0  0  0  0  0  0  0  0  0  0  0  0
   25.8503    9.2442   55.5585 C   0  0  0  0  0  0  0  0  0  0  0  0
   24.4794    9.1453   55.3977 C   0  0  0  0  0  0  0  0  0  0  0  0
   23.7341    9.7771   56.3065 F   0  0  0  0  0  0  0  0  0  0  0  0
   28.1702    8.6973   54.7905 C   0  0  0  0  0  0  0  0  0  0  0  0
   28.6495    9.7122   53.9539 F   0  0  0  0  0  0  0  0  0  0  0  0
   28.4810    8.9567   56.1049 F   0  0  0  0  0  0  0  0  0  0  0  0
   28.8352    7.5059   54.5105 F   0  0  0  0  0  0  0  0  0  0  0  0
   20.8808    6.5217   53.6437 C   0  0  0  0  0  0  0  0  0  0  0  0
   19.9538    7.3585   53.8458 O   0  0  0  0  0  0  0  0  0  0  0  0
   22.2611    6.9343   53.7079 N   0  0  0  0  0  0  0  0  0  0  0  0
   22.9911    6.2645   53.5380 H   0  0  0  0  0  0  0  0  0  0  0  0
   15.5041    2.5290   53.8715 C   0  0  0  0  0  0  0  0  0  0  0  0
   16.7898    3.3036   53.7461 C   0  0  0  0  0  0  0  0  0  0  0  0
   16.8564    4.6509   54.0243 C   0  0  0  0  0  0  0  0  0  0  0  0
   18.0166    5.3245   53.9100 N   0  0  0  0  0  0  0  0  0  0  0  0
   19.1269    4.6901   53.5235 C   0  0  0  0  0  0  0  0  0  0  0  0
   20.4333    5.1809   53.3679 C   0  0  0  0  0  0  0  0  0  0  0  0
   21.1458    4.0887   52.9740 C   0  0  0  0  0  0  0  0  0  0  0  0
   20.3167    3.0250   52.9056 N   0  0  0  0  0  0  0  0  0  0  0  0
   19.0893    3.3944   53.2457 N   0  0  0  0  0  0  0  0  0  0  0  0
   17.9538    2.6575   53.3395 C   0  0  0  0  0  0  0  0  0  0  0  0
 24 25  1  0  0  0
 25 26  1  0  0  0
 26 27  2  0  0  0
 27 28  1  0  0  0
 28 29  2  0  0  0
 29 20  1  0  0  0
 20 21  2  0  0  0
 20 22  1  0  0  0
 22  1  1  0  0  0
  1  9  1  0  0  0
  9 10  2  0  0  0
 10 11  1  0  0  0
 11 12  2  0  0  0
 12 16  1  0  0  0
 16 17  1  0  0  0
 16 18  1  0  0  0
 16 19  1  0  0  0
 12 13  1  0  0  0
 13 14  2  0  0  0
 14 15  1  0  0  0
  1  2  1  0  0  0
  2  3  1  0  0  0
  3  4  1  0  0  0
  4  5  1  0  0  0
  5  6  1  0  0  0
  6  7  1  0  0  0
 29 30  1  0  0  0
 30 31  2  0  0  0
 31 32  1  0  0  0
 32 33  1  0  0  0
 33 25  2  0  0  0
 32 28  1  0  0  0
  6  1  1  0  0  0
 14  9  1  0  0  0
 22 23  1  0  0  0
  7  8  1  0  0  0
M  END
> <minimizedAffinity>
21.93116

> <CNNscore>
0.4969447255

> <CNNaffinity>
6.5322656631

> <CNN_VS>
3.2461750507

> <CNNaffinity_variance>
0.4770861566

$$$$
[H]OC1([H])C([H])([H])OC([H])([H])C([H])([H])C1(c1c([H])c([H])c(C(F)(F)F)c([H])c1F)N([H])C(=O)c1c([H])nn2c([H])c(C([H])([H])[H])c([H])nc12


 33 36  0  0  0  0  0  0  0  0999 V2000
   27.1747    8.5094   54.1578 C   0  0  0  0  0  0  0  0  0  0  0  0
   27.3890    7.1941   54.6398 C   0  0  0  0  0  0  0  0  0  0  0  0
   28.5803    6.9107   55.5424 C   0  0  0  0  0  0  0  0  0  0  0  0
   29.3746    7.9366   55.9009 O   0  0  0  0  0  0  0  0  0  0  0  0
   28.7813    9.1325   56.0410 C   0  0  0  0  0  0  0  0  0  0  0  0
   27.6304    9.5233   55.2378 C   0  0  0  0  0  0  0  0  0  0  0  0
   26.5650    9.8160   56.1135 O   0  0  0  0  0  0  0  0  0  0  0  0
   26.4938   10.7612   56.2912 H   0  0  0  0  0  0  0  0  0  0  0  0
   27.6573    9.0668   52.9056 C   0  0  0  0  0  0  0  0  0  0  0  0
   26.9699    8.6576   51.7495 C   0  0  0  0  0  0  0  0  0  0  0  0
   27.2113    9.1975   50.5074 C   0  0  0  0  0  0  0  0  0  0  0  0
   28.1374   10.1679   50.3113 C   0  0  0  0  0  0  0  0  0  0  0  0
   28.8408   10.6021   51.4364 C   0  0  0  0  0  0  0  0  0  0  0  0
   28.5713   10.0382   52.6710 C   0  0  0  0  0  0  0  0  0  0  0  0
   29.3109   10.4768   53.6914 F   0  0  0  0  0  0  0  0  0  0  0  0
   28.3717   10.7798   48.9830 C   0  0  0  0  0  0  0  0  0  0  0  0
   28.7910   12.1083   49.1217 F   0  0  0  0  0  0  0  0  0  0  0  0
   29.3178   10.0329   48.3208 F   0  0  0  0  0  0  0  0  0  0  0  0
   27.2524   10.7256   48.1556 F   0  0  0  0  0  0  0  0  0  0  0  0
   24.8809    7.6464   53.8781 C   0  0  0  0  0  0  0  0  0  0  0  0
   25.4056    6.5003   53.7724 O   0  0  0  0  0  0  0  0  0  0  0  0
   25.7061    8.8071   54.1049 N   0  0  0  0  0  0  0  0  0  0  0  0
   25.2800    9.7130   54.1957 H   0  0  0  0  0  0  0  0  0  0  0  0
   19.3605   10.7908   56.0091 C   0  0  0  0  0  0  0  0  0  0  0  0
   20.5046   10.0028   55.4270 C   0  0  0  0  0  0  0  0  0  0  0  0
   21.8170   10.3098   55.7111 C   0  0  0  0  0  0  0  0  0  0  0  0
   22.8256    9.5904   55.1838 N   0  0  0  0  0  0  0  0  0  0  0  0
   22.5649    8.5611   54.3730 C   0  0  0  0  0  0  0  0  0  0  0  0
   23.4472    7.6680   53.7439 C   0  0  0  0  0  0  0  0  0  0  0  0
   22.6235    6.8240   53.0621 C   0  0  0  0  0  0  0  0  0  0  0  0
   21.3422    7.1920   53.2775 N   0  0  0  0  0  0  0  0  0  0  0  0
   21.3107    8.2471   54.0802 N   0  0  0  0  0  0  0  0  0  0  0  0
   20.2491    8.9309   54.5765 C   0  0  0  0  0  0  0  0  0  0  0  0
 24 25  1  0  0  0
 25 26  1  0  0  0
 26 27  2  0  0  0
 27 28  1  0  0  0
 28 29  2  0  0  0
 29 20  1  0  0  0
 20 21  2  0  0  0
 20 22  1  0  0  0
 22  1  1  0  0  0
  1  9  1  0  0  0
  9 10  2  0  0  0
 10 11  1  0  0  0
 11 12  2  0  0  0
 12 16  1  0  0  0
 16 17  1  0  0  0
 16 18  1  0  0  0
 16 19  1  0  0  0
 12 13  1  0  0  0
 13 14  2  0  0  0
 14 15  1  0  0  0
  1  2  1  0  0  0
  2  3  1  0  0  0
  3  4  1  0  0  0
  4  5  1  0  0  0
  5  6  1  0  0  0
  6  7  1  0  0  0
 29 30  1  0  0  0
 30 31  2  0  0  0
 31 32  1  0  0  0
 32 33  1  0  0  0
 33 25  2  0  0  0
 32 28  1  0  0  0
  6  1  1  0  0  0
 14  9  1  0  0  0
 22 23  1  0  0  0
  7  8  1  0  0  0
M  END
> <minimizedAffinity>
44.08540

> <CNNscore>
0.4330915511

> <CNNaffinity>
6.2355012894

> <CNN_VS>
2.7005429268

> <CNNaffinity_variance>
0.5883257985

$$$$
[H]OC1([H])C([H])([H])OC([H])([H])C([H])([H])C1(c1c([H])c([H])c(C(F)(F)F)c([H])c1F)N([H])C(=O)c1c([H])nn2c([H])c(C([H])([H])[H])c([H])nc12


 33 36  0  0  0  0  0  0  0  0999 V2000
   22.5058    8.2371   53.9043 C   0  0  0  0  0  0  0  0  0  0  0  0
   23.7631    7.5993   53.7609 C   0  0  0  0  0  0  0  0  0  0  0  0
   24.9417    8.0670   54.6015 C   0  0  0  0  0  0  0  0  0  0  0  0
   24.7416    9.0482   55.5010 O   0  0  0  0  0  0  0  0  0  0  0  0
   23.5314    9.0918   56.0799 C   0  0  0  0  0  0  0  0  0  0  0  0
   22.3245    8.6695   55.3815 C   0  0  0  0  0  0  0  0  0  0  0  0
   21.7300    7.6300   56.1254 O   0  0  0  0  0  0  0  0  0  0  0  0
   21.0275    7.9547   56.7008 H   0  0  0  0  0  0  0  0  0  0  0  0
   22.0067    9.3610   53.1301 C   0  0  0  0  0  0  0  0  0  0  0  0
   22.1438   10.6251   53.7301 C   0  0  0  0  0  0  0  0  0  0  0  0
   21.8501   11.7983   53.0744 C   0  0  0  0  0  0  0  0  0  0  0  0
   21.4031   11.8158   51.7947 C   0  0  0  0  0  0  0  0  0  0  0  0
   21.2547   10.5792   51.1636 C   0  0  0  0  0  0  0  0  0  0  0  0
   21.5609    9.4188   51.8526 C   0  0  0  0  0  0  0  0  0  0  0  0
   21.3567    8.2748   51.1968 F   0  0  0  0  0  0  0  0  0  0  0  0
   21.1243   13.0783   51.0721 C   0  0  0  0  0  0  0  0  0  0  0  0
   20.2944   13.9078   51.8356 F   0  0  0  0  0  0  0  0  0  0  0  0
   22.3220   13.6976   50.8008 F   0  0  0  0  0  0  0  0  0  0  0  0
   20.5544   12.8712   49.8181 F   0  0  0  0  0  0  0  0  0  0  0  0
   21.8563    5.8855   53.5401 C   0  0  0  0  0  0  0  0  0  0  0  0
   23.0942    5.6303   53.4886 O   0  0  0  0  0  0  0  0  0  0  0  0
   21.3997    7.2331   53.7751 N   0  0  0  0  0  0  0  0  0  0  0  0
   20.4143    7.4255   53.8225 H   0  0  0  0  0  0  0  0  0  0  0  0
   15.5040    3.8226   54.0836 C   0  0  0  0  0  0  0  0  0  0  0  0
   16.9632    4.1425   53.8913 C   0  0  0  0  0  0  0  0  0  0  0  0
   17.4637    5.4080   54.1041 C   0  0  0  0  0  0  0  0  0  0  0  0
   18.7724    5.6727   53.9306 N   0  0  0  0  0  0  0  0  0  0  0  0
   19.6092    4.7041   53.5480 C   0  0  0  0  0  0  0  0  0  0  0  0
   20.9970    4.7475   53.3385 C   0  0  0  0  0  0  0  0  0  0  0  0
   21.3113    3.4716   52.9797 C   0  0  0  0  0  0  0  0  0  0  0  0
   20.1859    2.7253   52.9811 N   0  0  0  0  0  0  0  0  0  0  0  0
   19.1525    3.4783   53.3326 N   0  0  0  0  0  0  0  0  0  0  0  0
   17.8465    3.1451   53.4880 C   0  0  0  0  0  0  0  0  0  0  0  0
 24 25  1  0  0  0
 25 26  1  0  0  0
 26 27  2  0  0  0
 27 28  1  0  0  0
 28 29  2  0  0  0
 29 20  1  0  0  0
 20 21  2  0  0  0
 20 22  1  0  0  0
 22  1  1  0  0  0
  1  9  1  0  0  0
  9 10  2  0  0  0
 10 11  1  0  0  0
 11 12  2  0  0  0
 12 16  1  0  0  0
 16 17  1  0  0  0
 16 18  1  0  0  0
 16 19  1  0  0  0
 12 13  1  0  0  0
 13 14  2  0  0  0
 14 15  1  0  0  0
  1  2  1  0  0  0
  2  3  1  0  0  0
  3  4  1  0  0  0
  4  5  1  0  0  0
  5  6  1  0  0  0
  6  7  1  0  0  0
 29 30  1  0  0  0
 30 31  2  0  0  0
 31 32  1  0  0  0
 32 33  1  0  0  0
 33 25  2  0  0  0
 32 28  1  0  0  0
  6  1  1  0  0  0
 14  9  1  0  0  0
 22 23  1  0  0  0
  7  8  1  0  0  0
M  END
> <minimizedAffinity>
29.04046

> <CNNscore>
0.4290395081

> <CNNaffinity>
6.4714660645

> <CNN_VS>
2.7765145302

> <CNNaffinity_variance>
0.7784086466

$$$$
[H]OC1([H])C([H])([H])OC([H])([H])C([H])([H])C1(c1c([H])c([H])c(C(F)(F)F)c([H])c1F)N([H])C(=O)c1c([H])nn2c([H])c(C([H])([H])[H])c([H])nc12


 33 36  0  0  0  0  0  0  0  0999 V2000
   22.1655    6.3379   53.8579 C   0  0  0  0  0  0  0  0  0  0  0  0
   22.9935    6.2406   55.0039 C   0  0  0  0  0  0  0  0  0  0  0  0
   23.9956    5.1010   55.1107 C   0  0  0  0  0  0  0  0  0  0  0  0
   24.1029    4.2396   54.0819 O   0  0  0  0  0  0  0  0  0  0  0  0
   23.8872    4.7417   52.8559 C   0  0  0  0  0  0  0  0  0  0  0  0
   22.9536    5.8354   52.6215 C   0  0  0  0  0  0  0  0  0  0  0  0
   23.6657    6.8991   52.0307 O   0  0  0  0  0  0  0  0  0  0  0  0
   23.5788    6.9014   51.0703 H   0  0  0  0  0  0  0  0  0  0  0  0
   20.8345    5.7780   53.6957 C   0  0  0  0  0  0  0  0  0  0  0  0
   20.7016    4.4155   54.0158 C   0  0  0  0  0  0  0  0  0  0  0  0
   19.4862    3.7717   54.0490 C   0  0  0  0  0  0  0  0  0  0  0  0
   18.3241    4.4121   53.7714 C   0  0  0  0  0  0  0  0  0  0  0  0
   18.4145    5.7677   53.4497 C   0  0  0  0  0  0  0  0  0  0  0  0
   19.6534    6.3839   53.4272 C   0  0  0  0  0  0  0  0  0  0  0  0
   19.6634    7.6704   53.0731 F   0  0  0  0  0  0  0  0  0  0  0  0
   17.0102    3.7325   53.8454 C   0  0  0  0  0  0  0  0  0  0  0  0
   17.0149    2.5688   53.0672 F   0  0  0  0  0  0  0  0  0  0  0  0
   16.7449    3.4410   55.1631 F   0  0  0  0  0  0  0  0  0  0  0  0
   15.9529    4.5520   53.4569 F   0  0  0  0  0  0  0  0  0  0  0  0
   21.7477    8.6474   54.6166 C   0  0  0  0  0  0  0  0  0  0  0  0
   21.7694    8.1846   55.7937 O   0  0  0  0  0  0  0  0  0  0  0  0
   21.9634    7.7767   53.4876 N   0  0  0  0  0  0  0  0  0  0  0  0
   21.9525    8.1544   52.5561 H   0  0  0  0  0  0  0  0  0  0  0  0
   21.3010   13.7417   50.2864 C   0  0  0  0  0  0  0  0  0  0  0  0
   21.3499   12.7009   51.3740 C   0  0  0  0  0  0  0  0  0  0  0  0
   21.5462   11.3665   51.0943 C   0  0  0  0  0  0  0  0  0  0  0  0
   21.5909   10.4520   52.0815 N   0  0  0  0  0  0  0  0  0  0  0  0
   21.4457   10.8295   53.3547 C   0  0  0  0  0  0  0  0  0  0  0  0
   21.4873   10.0612   54.5293 C   0  0  0  0  0  0  0  0  0  0  0  0
   21.2959   10.9745   55.5217 C   0  0  0  0  0  0  0  0  0  0  0  0
   21.1547   12.1990   54.9702 N   0  0  0  0  0  0  0  0  0  0  0  0
   21.2515   12.1071   53.6509 N   0  0  0  0  0  0  0  0  0  0  0  0
   21.1951   13.0782   52.7049 C   0  0  0  0  0  0  0  0  0  0  0  0
 24 25  1  0  0  0
 25 26  1  0  0  0
 26 27  2  0  0  0
 27 28  1  0  0  0
 28 29  2  0  0  0
 29 20  1  0  0  0
 20 21  2  0  0  0
 20 22  1  0  0  0
 22  1  1  0  0  0
  1  9  1  0  0  0
  9 10  2  0  0  0
 10 11  1  0  0  0
 11 12  2  0  0  0
 12 16  1  0  0  0
 16 17  1  0  0  0
 16 18  1  0  0  0
 16 19  1  0  0  0
 12 13  1  0  0  0
 13 14  2  0  0  0
 14 15  1  0  0  0
  1  2  1  0  0  0
  2  3  1  0  0  0
  3  4  1  0  0  0
  4  5  1  0  0  0
  5  6  1  0  0  0
  6  7  1  0  0  0
 29 30  1  0  0  0
 30 31  2  0  0  0
 31 32  1  0  0  0
 32 33  1  0  0  0
 33 25  2  0  0  0
 32 28  1  0  0  0
  6  1  1  0  0  0
 14  9  1  0  0  0
 22 23  1  0  0  0
  7  8  1  0  0  0
M  END
> <minimizedAffinity>
38.02713

> <CNNscore>
0.4287464023

> <CNNaffinity>
6.1866083145

> <CNN_VS>
2.6524860859

> <CNNaffinity_variance>
0.6504546404

$$$$
[H]OC1([H])C([H])([H])OC([H])([H])C([H])([H])C1(c1c([H])c([H])c(C(F)(F)F)c([H])c1F)N([H])C(=O)c1c([H])nn2c([H])c(C([H])([H])[H])c([H])nc12


 33 36  0  0  0  0  0  0  0  0999 V2000
   23.2722    7.2279   53.7923 C   0  0  0  0  0  0  0  0  0  0  0  0
   23.0142    6.1070   52.9644 C   0  0  0  0  0  0  0  0  0  0  0  0
   23.0159    4.7113   53.5693 C   0  0  0  0  0  0  0  0  0  0  0  0
   23.2142    4.5844   54.8947 O   0  0  0  0  0  0  0  0  0  0  0  0
   22.7471    5.5775   55.6676 C   0  0  0  0  0  0  0  0  0  0  0  0
   22.6912    6.9574   55.2035 C   0  0  0  0  0  0  0  0  0  0  0  0
   21.3502    7.3872   55.2703 O   0  0  0  0  0  0  0  0  0  0  0  0
   21.1684    7.8763   56.0813 H   0  0  0  0  0  0  0  0  0  0  0  0
   24.5627    7.8479   54.0406 C   0  0  0  0  0  0  0  0  0  0  0  0
   25.0054    7.8241   55.3748 C   0  0  0  0  0  0  0  0  0  0  0  0
   26.2605    8.2425   55.7523 C   0  0  0  0  0  0  0  0  0  0  0  0
   27.1630    8.7119   54.8563 C   0  0  0  0  0  0  0  0  0  0  0  0
   26.7608    8.7502   53.5199 C   0  0  0  0  0  0  0  0  0  0  0  0
   25.4914    8.3200   53.1754 C   0  0  0  0  0  0  0  0  0  0  0  0
   25.1660    8.4234   51.8854 F   0  0  0  0  0  0  0  0  0  0  0  0
   28.5288    9.1253   55.2531 C   0  0  0  0  0  0  0  0  0  0  0  0
   29.3791    8.0149   55.3155 F   0  0  0  0  0  0  0  0  0  0  0  0
   28.9879   10.0445   54.3388 F   0  0  0  0  0  0  0  0  0  0  0  0
   28.5580    9.8069   56.4675 F   0  0  0  0  0  0  0  0  0  0  0  0
   22.3563    9.4518   54.3396 C   0  0  0  0  0  0  0  0  0  0  0  0
   22.9988    9.3659   55.4259 O   0  0  0  0  0  0  0  0  0  0  0  0
   22.4265    8.3903   53.3661 N   0  0  0  0  0  0  0  0  0  0  0  0
   21.9190    8.4704   52.5021 H   0  0  0  0  0  0  0  0  0  0  0  0
   20.7159   14.2503   49.9594 C   0  0  0  0  0  0  0  0  0  0  0  0
   20.9768   13.2398   51.0455 C   0  0  0  0  0  0  0  0  0  0  0  0
   21.7300   12.1089   50.8199 C   0  0  0  0  0  0  0  0  0  0  0  0
   21.9551   11.2195   51.8054 N   0  0  0  0  0  0  0  0  0  0  0  0
   21.4482   11.4243   53.0244 C   0  0  0  0  0  0  0  0  0  0  0  0
   21.5795   10.6555   54.1920 C   0  0  0  0  0  0  0  0  0  0  0  0
   20.8697   11.3534   55.1219 C   0  0  0  0  0  0  0  0  0  0  0  0
   20.3577   12.4608   54.5430 N   0  0  0  0  0  0  0  0  0  0  0  0
   20.7164   12.5027   53.2670 N   0  0  0  0  0  0  0  0  0  0  0  0
   20.4510   13.4367   52.3193 C   0  0  0  0  0  0  0  0  0  0  0  0
 24 25  1  0  0  0
 25 26  1  0  0  0
 26 27  2  0  0  0
 27 28  1  0  0  0
 28 29  2  0  0  0
 29 20  1  0  0  0
 20 21  2  0  0  0
 20 22  1  0  0  0
 22  1  1  0  0  0
  1  9  1  0  0  0
  9 10  2  0  0  0
 10 11  1  0  0  0
 11 12  2  0  0  0
 12 16  1  0  0  0
 16 17  1  0  0  0
 16 18  1  0  0  0
 16 19  1  0  0  0
 12 13  1  0  0  0
 13 14  2  0  0  0
 14 15  1  0  0  0
  1  2  1  0  0  0
  2  3  1  0  0  0
  3  4  1  0  0  0
  4  5  1  0  0  0
  5  6  1  0  0  0
  6  7  1  0  0  0
 29 30  1  0  0  0
 30 31  2  0  0  0
 31 32  1  0  0  0
 32 33  1  0  0  0
 33 25  2  0  0  0
 32 28  1  0  0  0
  6  1  1  0  0  0
 14  9  1  0  0  0
 22 23  1  0  0  0
  7  8  1  0  0  0
M  END
> <minimizedAffinity>
31.03436

> <CNNscore>
0.4256973565

> <CNNaffinity>
6.0315065384

> <CNN_VS>
2.5675964355

> <CNNaffinity_variance>
0.4435277879

$$$$
[H]OC1([H])C([H])([H])OC([H])([H])C([H])([H])C1(c1c([H])c([H])c(C(F)(F)F)c([H])c1F)N([H])C(=O)c1c([H])nn2c([H])c(C([H])([H])[H])c([H])nc12


 33 36  0  0  0  0  0  0  0  0999 V2000
   21.9708    9.2014   53.7628 C   0  0  0  0  0  0  0  0  0  0  0  0
   21.0510    9.9721   54.5165 C   0  0  0  0  0  0  0  0  0  0  0  0
   20.9212   11.4631   54.2441 C   0  0  0  0  0  0  0  0  0  0  0  0
   21.6540   12.0023   53.2520 O   0  0  0  0  0  0  0  0  0  0  0  0
   21.9013   11.2140   52.1941 C   0  0  0  0  0  0  0  0  0  0  0  0
   22.0449    9.7699   52.3228 C   0  0  0  0  0  0  0  0  0  0  0  0
   21.0717    9.1592   51.5059 O   0  0  0  0  0  0  0  0  0  0  0  0
   21.4299    8.9045   50.6475 H   0  0  0  0  0  0  0  0  0  0  0  0
   23.3505    8.9069   54.1113 C   0  0  0  0  0  0  0  0  0  0  0  0
   24.1144    8.2843   53.1085 C   0  0  0  0  0  0  0  0  0  0  0  0
   25.4673    8.0654   53.2287 C   0  0  0  0  0  0  0  0  0  0  0  0
   26.1618    8.4367   54.3321 C   0  0  0  0  0  0  0  0  0  0  0  0
   25.4379    9.0597   55.3505 C   0  0  0  0  0  0  0  0  0  0  0  0
   24.0783    9.2654   55.1956 C   0  0  0  0  0  0  0  0  0  0  0  0
   23.4483    9.8308   56.2271 F   0  0  0  0  0  0  0  0  0  0  0  0
   27.6251    8.2394   54.4483 C   0  0  0  0  0  0  0  0  0  0  0  0
   27.9608    6.9021   54.2058 F   0  0  0  0  0  0  0  0  0  0  0  0
   28.2492    9.0729   53.5498 F   0  0  0  0  0  0  0  0  0  0  0  0
   28.1289    8.6320   55.6861 F   0  0  0  0  0  0  0  0  0  0  0  0
   20.0552    7.6614   53.9702 C   0  0  0  0  0  0  0  0  0  0  0  0
   19.4458    8.6156   54.5345 O   0  0  0  0  0  0  0  0  0  0  0  0
   21.4035    7.8404   53.4911 N   0  0  0  0  0  0  0  0  0  0  0  0
   21.8773    7.0792   53.0366 H   0  0  0  0  0  0  0  0  0  0  0  0
   20.6262    1.1267   52.6011 C   0  0  0  0  0  0  0  0  0  0  0  0
   20.3429    2.5646   52.9491 C   0  0  0  0  0  0  0  0  0  0  0  0
   21.3483    3.5018   53.0397 C   0  0  0  0  0  0  0  0  0  0  0  0
   21.0737    4.7833   53.3480 N   0  0  0  0  0  0  0  0  0  0  0  0
   19.8133    5.1660   53.5707 C   0  0  0  0  0  0  0  0  0  0  0  0
   19.3014    6.4382   53.8726 C   0  0  0  0  0  0  0  0  0  0  0  0
   17.9586    6.2322   53.9741 C   0  0  0  0  0  0  0  0  0  0  0  0
   17.6960    4.9278   53.7439 N   0  0  0  0  0  0  0  0  0  0  0  0
   18.8274    4.2830   53.4938 N   0  0  0  0  0  0  0  0  0  0  0  0
   19.0353    2.9773   53.1888 C   0  0  0  0  0  0  0  0  0  0  0  0
 24 25  1  0  0  0
 25 26  1  0  0  0
 26 27  2  0  0  0
 27 28  1  0  0  0
 28 29  2  0  0  0
 29 20  1  0  0  0
 20 21  2  0  0  0
 20 22  1  0  0  0
 22  1  1  0  0  0
  1  9  1  0  0  0
  9 10  2  0  0  0
 10 11  1  0  0  0
 11 12  2  0  0  0
 12 16  1  0  0  0
 16 17  1  0  0  0
 16 18  1  0  0  0
 16 19  1  0  0  0
 12 13  1  0  0  0
 13 14  2  0  0  0
 14 15  1  0  0  0
  1  2  1  0  0  0
  2  3  1  0  0  0
  3  4  1  0  0  0
  4  5  1  0  0  0
  5  6  1  0  0  0
  6  7  1  0  0  0
 29 30  1  0  0  0
 30 31  2  0  0  0
 31 32  1  0  0  0
 32 33  1  0  0  0
 33 25  2  0  0  0
 32 28  1  0  0  0
  6  1  1  0  0  0
 14  9  1  0  0  0
 22 23  1  0  0  0
  7  8  1  0  0  0
M  END
> <minimizedAffinity>
32.83523

> <CNNscore>
0.4028323591

> <CNNaffinity>
6.3904676437

> <CNN_VS>
2.5742871761

> <CNNaffinity_variance>
0.6024568081

$$$$
[H]OC1([H])C([H])([H])OC([H])([H])C([H])([H])C1(c1c([H])c([H])c(C(F)(F)F)c([H])c1F)N([H])C(=O)c1c([H])nn2c([H])c(C([H])([H])[H])c([H])nc12


 33 36  0  0  0  0  0  0  0  0999 V2000
   22.6734    7.2313   54.1735 C   0  0  0  0  0  0  0  0  0  0  0  0
   22.3448    5.9666   53.6249 C   0  0  0  0  0  0  0  0  0  0  0  0
   21.8335    4.8628   54.5383 C   0  0  0  0  0  0  0  0  0  0  0  0
   21.6586    5.1374   55.8444 O   0  0  0  0  0  0  0  0  0  0  0  0
   21.2907    6.3920   56.1482 C   0  0  0  0  0  0  0  0  0  0  0  0
   21.7125    7.5360   55.3508 C   0  0  0  0  0  0  0  0  0  0  0  0
   20.5563    8.1914   54.8806 O   0  0  0  0  0  0  0  0  0  0  0  0
   20.3139    8.9396   55.4386 H   0  0  0  0  0  0  0  0  0  0  0  0
   23.9782    7.6631   54.6451 C   0  0  0  0  0  0  0  0  0  0  0  0
   25.0841    7.0781   54.0035 C   0  0  0  0  0  0  0  0  0  0  0  0
   26.3795    7.4792   54.2352 C   0  0  0  0  0  0  0  0  0  0  0  0
   26.6810    8.4730   55.1064 C   0  0  0  0  0  0  0  0  0  0  0  0
   25.6088    9.0801   55.7632 C   0  0  0  0  0  0  0  0  0  0  0  0
   24.3183    8.6526   55.5050 C   0  0  0  0  0  0  0  0  0  0  0  0
   23.3502    9.2536   56.1994 F   0  0  0  0  0  0  0  0  0  0  0  0
   28.0706    8.9348   55.3284 C   0  0  0  0  0  0  0  0  0  0  0  0
   28.1203    9.8518   56.3850 F   0  0  0  0  0  0  0  0  0  0  0  0
   28.8565    7.8376   55.5932 F   0  0  0  0  0  0  0  0  0  0  0  0
   28.6430    9.4990   54.1908 F   0  0  0  0  0  0  0  0  0  0  0  0
   22.3134    9.6428   53.7998 C   0  0  0  0  0  0  0  0  0  0  0  0
   22.6620    9.8049   55.0049 O   0  0  0  0  0  0  0  0  0  0  0  0
   22.2919    8.3230   53.2191 N   0  0  0  0  0  0  0  0  0  0  0  0
   22.0213    8.2043   52.2583 H   0  0  0  0  0  0  0  0  0  0  0  0
   19.3695   11.9425   48.2367 C   0  0  0  0  0  0  0  0  0  0  0  0
   20.0384   11.5807   49.5369 C   0  0  0  0  0  0  0  0  0  0  0  0
   20.1550   10.2733   49.9547 C   0  0  0  0  0  0  0  0  0  0  0  0
   20.7602    9.9704   51.1186 N   0  0  0  0  0  0  0  0  0  0  0  0
   21.2605   10.9406   51.8887 C   0  0  0  0  0  0  0  0  0  0  0  0
   21.9489   10.8530   53.1094 C   0  0  0  0  0  0  0  0  0  0  0  0
   22.2294   12.1498   53.4179 C   0  0  0  0  0  0  0  0  0  0  0  0
   21.7429   12.9480   52.4434 N   0  0  0  0  0  0  0  0  0  0  0  0
   21.1580   12.2075   51.5117 N   0  0  0  0  0  0  0  0  0  0  0  0
   20.5599   12.5809   50.3525 C   0  0  0  0  0  0  0  0  0  0  0  0
 24 25  1  0  0  0
 25 26  1  0  0  0
 26 27  2  0  0  0
 27 28  1  0  0  0
 28 29  2  0  0  0
 29 20  1  0  0  0
 20 21  2  0  0  0
 20 22  1  0  0  0
 22  1  1  0  0  0
  1  9  1  0  0  0
  9 10  2  0  0  0
 10 11  1  0  0  0
 11 12  2  0  0  0
 12 16  1  0  0  0
 16 17  1  0  0  0
 16 18  1  0  0  0
 16 19  1  0  0  0
 12 13  1  0  0  0
 13 14  2  0  0  0
 14 15  1  0  0  0
  1  2  1  0  0  0
  2  3  1  0  0  0
  3  4  1  0  0  0
  4  5  1  0  0  0
  5  6  1  0  0  0
  6  7  1  0  0  0
 29 30  1  0  0  0
 30 31  2  0  0  0
 31 32  1  0  0  0
 32 33  1  0  0  0
 33 25  2  0  0  0
 32 28  1  0  0  0
  6  1  1  0  0  0
 14  9  1  0  0  0
 22 23  1  0  0  0
  7  8  1  0  0  0
M  END
> <minimizedAffinity>
41.69886

> <CNNscore>
0.4012714326

> <CNNaffinity>
5.9024319649

> <CNN_VS>
2.3684773445

> <CNNaffinity_variance>
0.3889863193

$$$$
[H]OC(=O)C([H])([H])C([H])([H])[C@@]([H])(C(=O)N1C([H])([H])C([H])([H])C([H])([H])[C@@]1([H])C(=O)N([H])[C@]([H])(C(=O)OC([H])([H])[H])C([H])([H])c1c([H])c([H])c([H])c([H])c1[H])N([H])C(=O)[C@@]([H])(N([H])C(=O)OC([H])([H])c1c([H])c([H])c([H])c([H])c1[H])[C@@]([H])(C([H])([H])[H])C([H])([H])C([H])([H])[H]


 51 53  0  0  0  0  0  0  0  0999 V2000
   24.7433    8.8855   55.5278 C   0  0  0  0  0  0  0  0  0  0  0  0
   25.3998   10.0461   56.0592 C   0  0  0  0  0  0  0  0  0  0  0  0
   24.5630   11.1166   55.9854 O   0  0  0  0  0  0  0  0  0  0  0  0
   26.6066   10.4210   56.6107 N   0  0  0  0  0  0  0  0  0  0  0  0
   26.8583   11.8121   57.0844 C   0  0  0  0  0  0  0  0  0  0  0  0
   28.1250   12.1288   56.3170 C   0  0  0  0  0  0  0  0  0  0  0  0
   28.8788   10.8438   56.3771 C   0  0  0  0  0  0  0  0  0  0  0  0
   27.8475    9.7781   56.8316 C   0  0  0  0  0  0  0  0  0  0  0  0
   28.1965    9.4964   58.2340 C   0  0  0  0  0  0  0  0  0  0  0  0
   27.8315    8.4382   58.7728 O   0  0  0  0  0  0  0  0  0  0  0  0
   28.9509   10.4401   58.9725 N   0  0  0  0  0  0  0  0  0  0  0  0
   29.2887   11.3360   58.5592 H   0  0  0  0  0  0  0  0  0  0  0  0
   29.2755   10.1568   60.3846 C   0  0  0  0  0  0  0  0  0  0  0  0
   28.5308   11.0583   61.2719 C   0  0  0  0  0  0  0  0  0  0  0  0
   27.3113   10.7759   61.5745 O   0  0  0  0  0  0  0  0  0  0  0  0
   29.0201   12.1990   61.8272 O   0  0  0  0  0  0  0  0  0  0  0  0
   29.5464   12.2380   63.1629 C   0  0  0  0  0  0  0  0  0  0  0  0
   30.7504   10.3164   60.5645 C   0  0  0  0  0  0  0  0  0  0  0  0
   31.3822    9.4703   61.5687 C   0  0  0  0  0  0  0  0  0  0  0  0
   32.3810   10.0537   62.3451 C   0  0  0  0  0  0  0  0  0  0  0  0
   32.9797    9.2972   63.3110 C   0  0  0  0  0  0  0  0  0  0  0  0
   32.6315    7.9832   63.5440 C   0  0  0  0  0  0  0  0  0  0  0  0
   31.6184    7.4264   62.7427 C   0  0  0  0  0  0  0  0  0  0  0  0
   31.0143    8.1658   61.7769 C   0  0  0  0  0  0  0  0  0  0  0  0
   22.4127    9.5366   54.7403 C   0  0  0  0  0  0  0  0  0  0  0  0
   21.9981    9.0042   55.8354 O   0  0  0  0  0  0  0  0  0  0  0  0
   23.7888    9.5188   54.5077 N   0  0  0  0  0  0  0  0  0  0  0  0
   24.2130    9.9201   53.6516 H   0  0  0  0  0  0  0  0  0  0  0  0
   21.3871   10.0852   53.8768 C   0  0  0  0  0  0  0  0  0  0  0  0
   21.6785   11.4269   53.4418 N   0  0  0  0  0  0  0  0  0  0  0  0
   21.5777   12.0006   52.1687 C   0  0  0  0  0  0  0  0  0  0  0  0
   21.2132   11.4670   51.1047 O   0  0  0  0  0  0  0  0  0  0  0  0
   22.0316   12.1079   54.2115 H   0  0  0  0  0  0  0  0  0  0  0  0
   21.9276   13.3700   52.0089 O   0  0  0  0  0  0  0  0  0  0  0  0
   21.0034   14.3239   51.5539 C   0  0  0  0  0  0  0  0  0  0  0  0
   21.5679   15.6350   51.2572 C   0  0  0  0  0  0  0  0  0  0  0  0
   22.0972   15.8876   49.9957 C   0  0  0  0  0  0  0  0  0  0  0  0
   22.6491   17.0930   49.6465 C   0  0  0  0  0  0  0  0  0  0  0  0
   22.6926   18.1249   50.5796 C   0  0  0  0  0  0  0  0  0  0  0  0
   22.1686   17.8835   51.8364 C   0  0  0  0  0  0  0  0  0  0  0  0
   21.6160   16.6625   52.1712 C   0  0  0  0  0  0  0  0  0  0  0  0
   21.0151    9.2543   52.6688 C   0  0  0  0  0  0  0  0  0  0  0  0
   22.2118    8.6006   51.9929 C   0  0  0  0  0  0  0  0  0  0  0  0
   20.4153    6.8227   52.3827 C   0  0  0  0  0  0  0  0  0  0  0  0
   20.1663    8.0934   53.1721 C   0  0  0  0  0  0  0  0  0  0  0  0
   25.3586    7.7244   54.9191 C   0  0  0  0  0  0  0  0  0  0  0  0
   24.6842    7.0277   53.7823 C   0  0  0  0  0  0  0  0  0  0  0  0
   23.6720    6.0285   54.2871 C   0  0  0  0  0  0  0  0  0  0  0  0
   22.8181    5.5570   53.5059 O   0  0  0  0  0  0  0  0  0  0  0  0
   23.6501    5.6006   55.6114 O   0  0  0  0  0  0  0  0  0  0  0  0
   23.3255    4.7062   55.8955 H   0  0  0  0  0  0  0  0  0  0  0  0
 44 45  1  0  0  0
 45 42  1  0  0  0
 42 43  1  0  0  0
 42 29  1  0  0  0
 29 30  1  0  0  0
 30 31  1  0  0  0
 31 32  2  0  0  0
 31 34  1  0  0  0
 34 35  1  0  0  0
 35 36  1  0  0  0
 36 37  2  0  0  0
 37 38  1  0  0  0
 38 39  2  0  0  0
 39 40  1  0  0  0
 40 41  2  0  0  0
 29 25  1  0  0  0
 25 26  2  0  0  0
 25 27  1  0  0  0
 27  1  1  0  0  0
  1 46  1  0  0  0
 46 47  1  0  0  0
 47 48  1  0  0  0
 48 49  2  0  0  0
 48 50  1  0  0  0
  1  2  1  0  0  0
  2  3  2  0  0  0
  2  4  1  0  0  0
  4  5  1  0  0  0
  5  6  1  0  0  0
  6  7  1  0  0  0
  7  8  1  0  0  0
  8  9  1  0  0  0
  9 10  2  0  0  0
  9 11  1  0  0  0
 11 13  1  0  0  0
 13 18  1  0  0  0
 18 19  1  0  0  0
 19 20  2  0  0  0
 20 21  1  0  0  0
 21 22  2  0  0  0
 22 23  1  0  0  0
 23 24  2  0  0  0
 13 14  1  0  0  0
 14 15  2  0  0  0
 14 16  1  0  0  0
 16 17  1  0  0  0
 41 36  1  0  0  0
  8  4  1  0  0  0
 24 19  1  0  0  0
 30 33  1  0  0  0
 27 28  1  0  0  0
 50 51  1  0  0  0
 11 12  1  0  0  0
M  END
> <minimizedAffinity>
16.21547

> <CNNscore>
0.6228159070

> <CNNaffinity>
6.9206147194

> <CNN_VS>
4.3102688789

> <CNNaffinity_variance>
0.8435528874

$$$$
[H]OC(=O)C([H])([H])C([H])([H])[C@@]([H])(C(=O)N1C([H])([H])C([H])([H])C([H])([H])[C@@]1([H])C(=O)N([H])[C@]([H])(C(=O)OC([H])([H])[H])C([H])([H])c1c([H])c([H])c([H])c([H])c1[H])N([H])C(=O)[C@@]([H])(N([H])C(=O)OC([H])([H])c1c([H])c([H])c([H])c([H])c1[H])[C@@]([H])(C([H])([H])[H])C([H])([H])C([H])([H])[H]


 51 53  0  0  0  0  0  0  0  0999 V2000
   27.3013    9.3140   56.4940 C   0  0  0  0  0  0  0  0  0  0  0  0
   25.9143    8.9456   56.4607 C   0  0  0  0  0  0  0  0  0  0  0  0
   25.3286    9.2689   57.6456 O   0  0  0  0  0  0  0  0  0  0  0  0
   24.9930    8.3633   55.6162 N   0  0  0  0  0  0  0  0  0  0  0  0
   23.5627    8.1984   56.0038 C   0  0  0  0  0  0  0  0  0  0  0  0
   23.3925    6.7127   55.7643 C   0  0  0  0  0  0  0  0  0  0  0  0
   24.1780    6.4859   54.5175 C   0  0  0  0  0  0  0  0  0  0  0  0
   25.0509    7.7557   54.3398 C   0  0  0  0  0  0  0  0  0  0  0  0
   24.4147    8.4934   53.2358 C   0  0  0  0  0  0  0  0  0  0  0  0
   25.0755    8.8252   52.2375 O   0  0  0  0  0  0  0  0  0  0  0  0
   23.0411    8.8283   53.3154 N   0  0  0  0  0  0  0  0  0  0  0  0
   22.4442    8.5611   54.1277 H   0  0  0  0  0  0  0  0  0  0  0  0
   22.4196    9.5879   52.2124 C   0  0  0  0  0  0  0  0  0  0  0  0
   21.8830   10.8616   52.7068 C   0  0  0  0  0  0  0  0  0  0  0  0
   21.5756   11.7838   51.8622 O   0  0  0  0  0  0  0  0  0  0  0  0
   21.6680   11.1721   54.0131 O   0  0  0  0  0  0  0  0  0  0  0  0
   21.1405   10.2213   54.9513 C   0  0  0  0  0  0  0  0  0  0  0  0
   21.3426    8.7424   51.6138 C   0  0  0  0  0  0  0  0  0  0  0  0
   20.9780    7.5345   52.3427 C   0  0  0  0  0  0  0  0  0  0  0  0
   19.6648    7.4470   52.7992 C   0  0  0  0  0  0  0  0  0  0  0  0
   19.2816    6.3196   53.4669 C   0  0  0  0  0  0  0  0  0  0  0  0
   20.1444    5.2699   53.7031 C   0  0  0  0  0  0  0  0  0  0  0  0
   21.4624    5.3910   53.2273 C   0  0  0  0  0  0  0  0  0  0  0  0
   21.8591    6.5068   52.5625 C   0  0  0  0  0  0  0  0  0  0  0  0
   28.3523   10.1128   58.6695 C   0  0  0  0  0  0  0  0  0  0  0  0
   28.7281   11.1435   57.9979 O   0  0  0  0  0  0  0  0  0  0  0  0
   27.6246    9.1394   57.9831 N   0  0  0  0  0  0  0  0  0  0  0  0
   27.2841    8.2742   58.4409 H   0  0  0  0  0  0  0  0  0  0  0  0
   28.7429   10.0909   60.0643 C   0  0  0  0  0  0  0  0  0  0  0  0
   28.9488    8.7577   60.5685 N   0  0  0  0  0  0  0  0  0  0  0  0
   30.0845    7.9410   60.5117 C   0  0  0  0  0  0  0  0  0  0  0  0
   31.1905    8.1861   59.9958 O   0  0  0  0  0  0  0  0  0  0  0  0
   28.0989    8.3058   61.0729 H   0  0  0  0  0  0  0  0  0  0  0  0
   30.0241    6.6481   61.1018 O   0  0  0  0  0  0  0  0  0  0  0  0
   29.3335    6.4112   62.3010 C   0  0  0  0  0  0  0  0  0  0  0  0
   28.4630    5.2417   62.2891 C   0  0  0  0  0  0  0  0  0  0  0  0
   28.1467    4.6062   63.4855 C   0  0  0  0  0  0  0  0  0  0  0  0
   27.3401    3.4997   63.5513 C   0  0  0  0  0  0  0  0  0  0  0  0
   26.8021    2.9710   62.3816 C   0  0  0  0  0  0  0  0  0  0  0  0
   27.1104    3.5960   61.1871 C   0  0  0  0  0  0  0  0  0  0  0  0
   27.9251    4.7106   61.1393 C   0  0  0  0  0  0  0  0  0  0  0  0
   29.9378   10.9400   60.4375 C   0  0  0  0  0  0  0  0  0  0  0  0
   29.6192   12.4253   60.5291 C   0  0  0  0  0  0  0  0  0  0  0  0
   31.1552   11.6201   62.5374 C   0  0  0  0  0  0  0  0  0  0  0  0
   30.3450   10.5382   61.8497 C   0  0  0  0  0  0  0  0  0  0  0  0
   28.3848    8.7438   55.7207 C   0  0  0  0  0  0  0  0  0  0  0  0
   28.6468    9.2231   54.3300 C   0  0  0  0  0  0  0  0  0  0  0  0
   27.9341    8.3585   53.3189 C   0  0  0  0  0  0  0  0  0  0  0  0
   27.7343    7.1494   53.5629 O   0  0  0  0  0  0  0  0  0  0  0  0
   27.4799    8.8615   52.1031 O   0  0  0  0  0  0  0  0  0  0  0  0
   26.6939    8.4988   51.6167 H   0  0  0  0  0  0  0  0  0  0  0  0
 44 45  1  0  0  0
 45 42  1  0  0  0
 42 43  1  0  0  0
 42 29  1  0  0  0
 29 30  1  0  0  0
 30 31  1  0  0  0
 31 32  2  0  0  0
 31 34  1  0  0  0
 34 35  1  0  0  0
 35 36  1  0  0  0
 36 37  2  0  0  0
 37 38  1  0  0  0
 38 39  2  0  0  0
 39 40  1  0  0  0
 40 41  2  0  0  0
 29 25  1  0  0  0
 25 26  2  0  0  0
 25 27  1  0  0  0
 27  1  1  0  0  0
  1 46  1  0  0  0
 46 47  1  0  0  0
 47 48  1  0  0  0
 48 49  2  0  0  0
 48 50  1  0  0  0
  1  2  1  0  0  0
  2  3  2  0  0  0
  2  4  1  0  0  0
  4  5  1  0  0  0
  5  6  1  0  0  0
  6  7  1  0  0  0
  7  8  1  0  0  0
  8  9  1  0  0  0
  9 10  2  0  0  0
  9 11  1  0  0  0
 11 13  1  0  0  0
 13 18  1  0  0  0
 18 19  1  0  0  0
 19 20  2  0  0  0
 20 21  1  0  0  0
 21 22  2  0  0  0
 22 23  1  0  0  0
 23 24  2  0  0  0
 13 14  1  0  0  0
 14 15  2  0  0  0
 14 16  1  0  0  0
 16 17  1  0  0  0
 41 36  1  0  0  0
  8  4  1  0  0  0
 24 19  1  0  0  0
 30 33  1  0  0  0
 27 28  1  0  0  0
 50 51  1  0  0  0
 11 12  1  0  0  0
M  END
> <minimizedAffinity>
13.62072

> <CNNscore>
0.6048640609

> <CNNaffinity>
7.0087738037

> <CNN_VS>
4.2393555641

> <CNNaffinity_variance>
1.3111315966

$$$$
[H]OC(=O)C([H])([H])C([H])([H])[C@@]([H])(C(=O)N1C([H])([H])C([H])([H])C([H])([H])[C@@]1([H])C(=O)N([H])[C@]([H])(C(=O)OC([H])([H])[H])C([H])([H])c1c([H])c([H])c([H])c([H])c1[H])N([H])C(=O)[C@@]([H])(N([H])C(=O)OC([H])([H])c1c([H])c([H])c([H])c([H])c1[H])[C@@]([H])(C([H])([H])[H])C([H])([H])C([H])([H])[H]


 51 53  0  0  0  0  0  0  0  0999 V2000
   24.7365    8.6273   55.1942 C   0  0  0  0  0  0  0  0  0  0  0  0
   25.3569    9.7265   55.8778 C   0  0  0  0  0  0  0  0  0  0  0  0
   24.5648   10.8287   55.7807 O   0  0  0  0  0  0  0  0  0  0  0  0
   26.4992   10.0212   56.5915 N   0  0  0  0  0  0  0  0  0  0  0  0
   26.7310   11.3685   57.1865 C   0  0  0  0  0  0  0  0  0  0  0  0
   28.0884   11.6892   56.5965 C   0  0  0  0  0  0  0  0  0  0  0  0
   28.7939   10.3770   56.6556 C   0  0  0  0  0  0  0  0  0  0  0  0
   27.6865    9.3214   56.9113 C   0  0  0  0  0  0  0  0  0  0  0  0
   27.8577    8.9363   58.3221 C   0  0  0  0  0  0  0  0  0  0  0  0
   26.9785    8.2818   58.9068 O   0  0  0  0  0  0  0  0  0  0  0  0
   29.0318    9.3176   59.0159 N   0  0  0  0  0  0  0  0  0  0  0  0
   29.8012    9.8568   58.5635 H   0  0  0  0  0  0  0  0  0  0  0  0
   29.1821    8.9451   60.4366 C   0  0  0  0  0  0  0  0  0  0  0  0
   29.9423    9.9731   61.1577 C   0  0  0  0  0  0  0  0  0  0  0  0
   29.6372   11.2130   60.9902 O   0  0  0  0  0  0  0  0  0  0  0  0
   30.9693    9.7362   62.0168 O   0  0  0  0  0  0  0  0  0  0  0  0
   31.6319   10.7917   62.7305 C   0  0  0  0  0  0  0  0  0  0  0  0
   29.8690    7.6194   60.5003 C   0  0  0  0  0  0  0  0  0  0  0  0
   29.2480    6.6005   61.3368 C   0  0  0  0  0  0  0  0  0  0  0  0
   28.6306    5.5380   60.6807 C   0  0  0  0  0  0  0  0  0  0  0  0
   28.0577    4.5532   61.4328 C   0  0  0  0  0  0  0  0  0  0  0  0
   28.0695    4.5733   62.8118 C   0  0  0  0  0  0  0  0  0  0  0  0
   28.7024    5.6601   63.4415 C   0  0  0  0  0  0  0  0  0  0  0  0
   29.2758    6.6482   62.7070 C   0  0  0  0  0  0  0  0  0  0  0  0
   22.3873    9.2268   54.4212 C   0  0  0  0  0  0  0  0  0  0  0  0
   21.9822    8.4694   55.3787 O   0  0  0  0  0  0  0  0  0  0  0  0
   23.7671    9.3613   54.2593 N   0  0  0  0  0  0  0  0  0  0  0  0
   24.1846    9.9468   53.5130 H   0  0  0  0  0  0  0  0  0  0  0  0
   21.3489    9.8432   53.6210 C   0  0  0  0  0  0  0  0  0  0  0  0
   21.6607   11.1978   53.2440 N   0  0  0  0  0  0  0  0  0  0  0  0
   21.5542   11.8316   52.0003 C   0  0  0  0  0  0  0  0  0  0  0  0
   21.1653   11.3548   50.9181 O   0  0  0  0  0  0  0  0  0  0  0  0
   22.0372   11.8357   54.0392 H   0  0  0  0  0  0  0  0  0  0  0  0
   21.9287   13.2000   51.8986 O   0  0  0  0  0  0  0  0  0  0  0  0
   21.0512   14.1743   51.3965 C   0  0  0  0  0  0  0  0  0  0  0  0
   21.6440   15.4910   51.1948 C   0  0  0  0  0  0  0  0  0  0  0  0
   21.4837   16.4746   52.1654 C   0  0  0  0  0  0  0  0  0  0  0  0
   22.0071   17.7356   52.0424 C   0  0  0  0  0  0  0  0  0  0  0  0
   22.7352   18.0694   50.9040 C   0  0  0  0  0  0  0  0  0  0  0  0
   22.9002   17.0982   49.9335 C   0  0  0  0  0  0  0  0  0  0  0  0
   22.3658   15.8321   50.0740 C   0  0  0  0  0  0  0  0  0  0  0  0
   20.9168    9.0840   52.3862 C   0  0  0  0  0  0  0  0  0  0  0  0
   22.0376    8.2726   51.7523 C   0  0  0  0  0  0  0  0  0  0  0  0
   20.3528    6.6334   52.5607 C   0  0  0  0  0  0  0  0  0  0  0  0
   19.8906    8.0513   52.8356 C   0  0  0  0  0  0  0  0  0  0  0  0
   25.3876    7.5744   54.4429 C   0  0  0  0  0  0  0  0  0  0  0  0
   24.5766    6.6355   53.6103 C   0  0  0  0  0  0  0  0  0  0  0  0
   23.5700    5.8962   54.4577 C   0  0  0  0  0  0  0  0  0  0  0  0
   23.9124    5.4237   55.5627 O   0  0  0  0  0  0  0  0  0  0  0  0
   22.2505    5.7164   54.0529 O   0  0  0  0  0  0  0  0  0  0  0  0
   21.4884    5.6297   54.6835 H   0  0  0  0  0  0  0  0  0  0  0  0
 44 45  1  0  0  0
 45 42  1  0  0  0
 42 43  1  0  0  0
 42 29  1  0  0  0
 29 30  1  0  0  0
 30 31  1  0  0  0
 31 32  2  0  0  0
 31 34  1  0  0  0
 34 35  1  0  0  0
 35 36  1  0  0  0
 36 37  2  0  0  0
 37 38  1  0  0  0
 38 39  2  0  0  0
 39 40  1  0  0  0
 40 41  2  0  0  0
 29 25  1  0  0  0
 25 26  2  0  0  0
 25 27  1  0  0  0
 27  1  1  0  0  0
  1 46  1  0  0  0
 46 47  1  0  0  0
 47 48  1  0  0  0
 48 49  2  0  0  0
 48 50  1  0  0  0
  1  2  1  0  0  0
  2  3  2  0  0  0
  2  4  1  0  0  0
  4  5  1  0  0  0
  5  6  1  0  0  0
  6  7  1  0  0  0
  7  8  1  0  0  0
  8  9  1  0  0  0
  9 10  2  0  0  0
  9 11  1  0  0  0
 11 13  1  0  0  0
 13 18  1  0  0  0
 18 19  1  0  0  0
 19 20  2  0  0  0
 20 21  1  0  0  0
 21 22  2  0  0  0
 22 23  1  0  0  0
 23 24  2  0  0  0
 13 14  1  0  0  0
 14 15  2  0  0  0
 14 16  1  0  0  0
 16 17  1  0  0  0
 41 36  1  0  0  0
  8  4  1  0  0  0
 24 19  1  0  0  0
 30 33  1  0  0  0
 27 28  1  0  0  0
 50 51  1  0  0  0
 11 12  1  0  0  0
M  END
> <minimizedAffinity>
16.34544

> <CNNscore>
0.5837517977

> <CNNaffinity>
6.7749772072

> <CNN_VS>
3.9549050331

> <CNNaffinity_variance>
1.0189516544

$$$$
[H]OC(=O)C([H])([H])C([H])([H])[C@@]([H])(C(=O)N1C([H])([H])C([H])([H])C([H])([H])[C@@]1([H])C(=O)N([H])[C@]([H])(C(=O)OC([H])([H])[H])C([H])([H])c1c([H])c([H])c([H])c([H])c1[H])N([H])C(=O)[C@@]([H])(N([H])C(=O)OC([H])([H])c1c([H])c([H])c([H])c([H])c1[H])[C@@]([H])(C([H])([H])[H])C([H])([H])C([H])([H])[H]


 51 53  0  0  0  0  0  0  0  0999 V2000
   27.0923    9.5401   56.1345 C   0  0  0  0  0  0  0  0  0  0  0  0
   25.6579    9.5150   56.1819 C   0  0  0  0  0  0  0  0  0  0  0  0
   25.2211   10.3228   57.1861 O   0  0  0  0  0  0  0  0  0  0  0  0
   24.5869    8.9288   55.5413 N   0  0  0  0  0  0  0  0  0  0  0  0
   23.1779    9.2336   55.9217 C   0  0  0  0  0  0  0  0  0  0  0  0
   22.6586    7.8314   56.1622 C   0  0  0  0  0  0  0  0  0  0  0  0
   23.3087    7.0462   55.0742 C   0  0  0  0  0  0  0  0  0  0  0  0
   24.4407    7.9540   54.5263 C   0  0  0  0  0  0  0  0  0  0  0  0
   23.9381    8.4334   53.2280 C   0  0  0  0  0  0  0  0  0  0  0  0
   24.6195    8.2927   52.1987 O   0  0  0  0  0  0  0  0  0  0  0  0
   22.6708    9.0607   53.1545 N   0  0  0  0  0  0  0  0  0  0  0  0
   22.0592    9.1903   53.9892 H   0  0  0  0  0  0  0  0  0  0  0  0
   22.1873    9.5575   51.8510 C   0  0  0  0  0  0  0  0  0  0  0  0
   21.6009   10.8950   51.9985 C   0  0  0  0  0  0  0  0  0  0  0  0
   21.1994   11.5242   50.9490 O   0  0  0  0  0  0  0  0  0  0  0  0
   21.4310   11.5556   53.1749 O   0  0  0  0  0  0  0  0  0  0  0  0
   21.2717   10.8677   54.4254 C   0  0  0  0  0  0  0  0  0  0  0  0
   21.1854    8.5822   51.3235 C   0  0  0  0  0  0  0  0  0  0  0  0
   20.8386    7.4657   52.1934 C   0  0  0  0  0  0  0  0  0  0  0  0
   21.8407    6.5324   52.4493 C   0  0  0  0  0  0  0  0  0  0  0  0
   21.5583    5.4850   53.2780 C   0  0  0  0  0  0  0  0  0  0  0  0
   20.3225    5.3200   53.8678 C   0  0  0  0  0  0  0  0  0  0  0  0
   19.3346    6.2815   53.5887 C   0  0  0  0  0  0  0  0  0  0  0  0
   19.5999    7.3284   52.7654 C   0  0  0  0  0  0  0  0  0  0  0  0
   28.4340   10.7819   57.9047 C   0  0  0  0  0  0  0  0  0  0  0  0
   29.0339   11.3465   56.9167 O   0  0  0  0  0  0  0  0  0  0  0  0
   27.4374    9.8549   57.5955 N   0  0  0  0  0  0  0  0  0  0  0  0
   26.9041    9.3480   58.3253 H   0  0  0  0  0  0  0  0  0  0  0  0
   28.8794   11.1792   59.2246 C   0  0  0  0  0  0  0  0  0  0  0  0
   28.4969   12.5255   59.5643 N   0  0  0  0  0  0  0  0  0  0  0  0
   29.1609   13.4782   60.3462 C   0  0  0  0  0  0  0  0  0  0  0  0
   30.2492   13.3705   60.9411 O   0  0  0  0  0  0  0  0  0  0  0  0
   27.5487   12.8654   59.1563 H   0  0  0  0  0  0  0  0  0  0  0  0
   28.5588   14.7548   60.5222 O   0  0  0  0  0  0  0  0  0  0  0  0
   29.1979   15.7858   61.2291 C   0  0  0  0  0  0  0  0  0  0  0  0
   30.0170   16.6748   60.4141 C   0  0  0  0  0  0  0  0  0  0  0  0
   31.3928   16.7212   60.6152 C   0  0  0  0  0  0  0  0  0  0  0  0
   32.2249   17.5356   59.8916 C   0  0  0  0  0  0  0  0  0  0  0  0
   31.6917   18.3617   58.9064 C   0  0  0  0  0  0  0  0  0  0  0  0
   30.3251   18.3226   58.6988 C   0  0  0  0  0  0  0  0  0  0  0  0
   29.5012   17.4954   59.4373 C   0  0  0  0  0  0  0  0  0  0  0  0
   28.4926   10.2634   60.3646 C   0  0  0  0  0  0  0  0  0  0  0  0
   29.5407    9.2033   60.6708 C   0  0  0  0  0  0  0  0  0  0  0  0
   27.3254   10.6677   62.5620 C   0  0  0  0  0  0  0  0  0  0  0  0
   28.4246   11.1223   61.6213 C   0  0  0  0  0  0  0  0  0  0  0  0
   27.9785    8.4930   55.6705 C   0  0  0  0  0  0  0  0  0  0  0  0
   27.8917    8.0073   54.2602 C   0  0  0  0  0  0  0  0  0  0  0  0
   29.1161    7.2064   53.8898 C   0  0  0  0  0  0  0  0  0  0  0  0
   30.2458    7.5836   54.2679 O   0  0  0  0  0  0  0  0  0  0  0  0
   29.0381    6.0419   53.1314 O   0  0  0  0  0  0  0  0  0  0  0  0
   29.6857    5.2928   53.2050 H   0  0  0  0  0  0  0  0  0  0  0  0
 44 45  1  0  0  0
 45 42  1  0  0  0
 42 43  1  0  0  0
 42 29  1  0  0  0
 29 30  1  0  0  0
 30 31  1  0  0  0
 31 32  2  0  0  0
 31 34  1  0  0  0
 34 35  1  0  0  0
 35 36  1  0  0  0
 36 37  2  0  0  0
 37 38  1  0  0  0
 38 39  2  0  0  0
 39 40  1  0  0  0
 40 41  2  0  0  0
 29 25  1  0  0  0
 25 26  2  0  0  0
 25 27  1  0  0  0
 27  1  1  0  0  0
  1 46  1  0  0  0
 46 47  1  0  0  0
 47 48  1  0  0  0
 48 49  2  0  0  0
 48 50  1  0  0  0
  1  2  1  0  0  0
  2  3  2  0  0  0
  2  4  1  0  0  0
  4  5  1  0  0  0
  5  6  1  0  0  0
  6  7  1  0  0  0
  7  8  1  0  0  0
  8  9  1  0  0  0
  9 10  2  0  0  0
  9 11  1  0  0  0
 11 13  1  0  0  0
 13 18  1  0  0  0
 18 19  1  0  0  0
 19 20  2  0  0  0
 20 21  1  0  0  0
 21 22  2  0  0  0
 22 23  1  0  0  0
 23 24  2  0  0  0
 13 14  1  0  0  0
 14 15  2  0  0  0
 14 16  1  0  0  0
 16 17  1  0  0  0
 41 36  1  0  0  0
  8  4  1  0  0  0
 24 19  1  0  0  0
 30 33  1  0  0  0
 27 28  1  0  0  0
 50 51  1  0  0  0
 11 12  1  0  0  0
M  END
> <minimizedAffinity>
14.51181

> <CNNscore>
0.5826703906

> <CNNaffinity>
6.9425458908

> <CNN_VS>
4.0452160835

> <CNNaffinity_variance>
0.9432672262

$$$$
[H]OC(=O)C([H])([H])C([H])([H])[C@@]([H])(C(=O)N1C([H])([H])C([H])([H])C([H])([H])[C@@]1([H])C(=O)N([H])[C@]([H])(C(=O)OC([H])([H])[H])C([H])([H])c1c([H])c([H])c([H])c([H])c1[H])N([H])C(=O)[C@@]([H])(N([H])C(=O)OC([H])([H])c1c([H])c([H])c([H])c([H])c1[H])[C@@]([H])(C([H])([H])[H])C([H])([H])C([H])([H])[H]


 51 53  0  0  0  0  0  0  0  0999 V2000
   25.5144    8.3121   55.6000 C   0  0  0  0  0  0  0  0  0  0  0  0
   25.8514    9.5433   56.2565 C   0  0  0  0  0  0  0  0  0  0  0  0
   24.8204   10.4226   56.1326 O   0  0  0  0  0  0  0  0  0  0  0  0
   26.8866   10.1183   56.9628 N   0  0  0  0  0  0  0  0  0  0  0  0
   26.7876   11.4958   57.5247 C   0  0  0  0  0  0  0  0  0  0  0  0
   28.0331   12.1164   56.9271 C   0  0  0  0  0  0  0  0  0  0  0  0
   29.0302   11.0116   57.0182 C   0  0  0  0  0  0  0  0  0  0  0  0
   28.2045    9.7291   57.2996 C   0  0  0  0  0  0  0  0  0  0  0  0
   28.4543    9.4295   58.7194 C   0  0  0  0  0  0  0  0  0  0  0  0
   27.7159    8.6432   59.3358 O   0  0  0  0  0  0  0  0  0  0  0  0
   29.5421   10.0444   59.3854 N   0  0  0  0  0  0  0  0  0  0  0  0
   30.1949   10.7014   58.9062 H   0  0  0  0  0  0  0  0  0  0  0  0
   29.7691    9.7535   60.8150 C   0  0  0  0  0  0  0  0  0  0  0  0
   29.5041    8.3378   61.0977 C   0  0  0  0  0  0  0  0  0  0  0  0
   28.8032    8.0241   62.1315 O   0  0  0  0  0  0  0  0  0  0  0  0
   29.9378    7.2898   60.3475 O   0  0  0  0  0  0  0  0  0  0  0  0
   29.3051    6.0013   60.3905 C   0  0  0  0  0  0  0  0  0  0  0  0
   28.8763   10.6425   61.6185 C   0  0  0  0  0  0  0  0  0  0  0  0
   29.0333   12.0778   61.4216 C   0  0  0  0  0  0  0  0  0  0  0  0
   30.3366   12.5677   61.3740 C   0  0  0  0  0  0  0  0  0  0  0  0
   30.5223   13.9045   61.1685 C   0  0  0  0  0  0  0  0  0  0  0  0
   29.4704   14.7816   61.0066 C   0  0  0  0  0  0  0  0  0  0  0  0
   28.1681   14.2530   61.0590 C   0  0  0  0  0  0  0  0  0  0  0  0
   27.9671   12.9256   61.2639 C   0  0  0  0  0  0  0  0  0  0  0  0
   23.5017    8.0810   54.0602 C   0  0  0  0  0  0  0  0  0  0  0  0
   24.3013    7.4615   53.2656 O   0  0  0  0  0  0  0  0  0  0  0  0
   24.0360    8.5438   55.2638 N   0  0  0  0  0  0  0  0  0  0  0  0
   23.4685    9.0567   55.9630 H   0  0  0  0  0  0  0  0  0  0  0  0
   22.1373    8.2268   53.5959 C   0  0  0  0  0  0  0  0  0  0  0  0
   21.2829    7.1464   54.0165 N   0  0  0  0  0  0  0  0  0  0  0  0
   20.3514    6.4003   53.2846 C   0  0  0  0  0  0  0  0  0  0  0  0
   20.0414    6.5106   52.0840 O   0  0  0  0  0  0  0  0  0  0  0  0
   21.3653    6.8566   55.0606 H   0  0  0  0  0  0  0  0  0  0  0  0
   19.6319    5.3686   53.9488 O   0  0  0  0  0  0  0  0  0  0  0  0
   19.4425    4.1041   53.3688 C   0  0  0  0  0  0  0  0  0  0  0  0
   18.0685    3.6169   53.3902 C   0  0  0  0  0  0  0  0  0  0  0  0
   17.1294    4.2399   54.2059 C   0  0  0  0  0  0  0  0  0  0  0  0
   15.8221    3.8343   54.2821 C   0  0  0  0  0  0  0  0  0  0  0  0
   15.3925    2.7529   53.5182 C   0  0  0  0  0  0  0  0  0  0  0  0
   16.3187    2.1271   52.7040 C   0  0  0  0  0  0  0  0  0  0  0  0
   17.6324    2.5494   52.6393 C   0  0  0  0  0  0  0  0  0  0  0  0
   21.4565    9.5377   53.9219 C   0  0  0  0  0  0  0  0  0  0  0  0
   21.7888   10.0624   55.3113 C   0  0  0  0  0  0  0  0  0  0  0  0
   21.2786   10.5943   51.6402 C   0  0  0  0  0  0  0  0  0  0  0  0
   22.0185   10.5808   52.9638 C   0  0  0  0  0  0  0  0  0  0  0  0
   26.1592    7.7223   54.4452 C   0  0  0  0  0  0  0  0  0  0  0  0
   27.6494    7.7224   54.3368 C   0  0  0  0  0  0  0  0  0  0  0  0
   28.1372    8.9565   53.6178 C   0  0  0  0  0  0  0  0  0  0  0  0
   27.6874    9.2377   52.4864 O   0  0  0  0  0  0  0  0  0  0  0  0
   29.0843    9.8118   54.1734 O   0  0  0  0  0  0  0  0  0  0  0  0
   29.1323   10.7835   53.9743 H   0  0  0  0  0  0  0  0  0  0  0  0
 44 45  1  0  0  0
 45 42  1  0  0  0
 42 43  1  0  0  0
 42 29  1  0  0  0
 29 30  1  0  0  0
 30 31  1  0  0  0
 31 32  2  0  0  0
 31 34  1  0  0  0
 34 35  1  0  0  0
 35 36  1  0  0  0
 36 37  2  0  0  0
 37 38  1  0  0  0
 38 39  2  0  0  0
 39 40  1  0  0  0
 40 41  2  0  0  0
 29 25  1  0  0  0
 25 26  2  0  0  0
 25 27  1  0  0  0
 27  1  1  0  0  0
  1 46  1  0  0  0
 46 47  1  0  0  0
 47 48  1  0  0  0
 48 49  2  0  0  0
 48 50  1  0  0  0
  1  2  1  0  0  0
  2  3  2  0  0  0
  2  4  1  0  0  0
  4  5  1  0  0  0
  5  6  1  0  0  0
  6  7  1  0  0  0
  7  8  1  0  0  0
  8  9  1  0  0  0
  9 10  2  0  0  0
  9 11  1  0  0  0
 11 13  1  0  0  0
 13 18  1  0  0  0
 18 19  1  0  0  0
 19 20  2  0  0  0
 20 21  1  0  0  0
 21 22  2  0  0  0
 22 23  1  0  0  0
 23 24  2  0  0  0
 13 14  1  0  0  0
 14 15  2  0  0  0
 14 16  1  0  0  0
 16 17  1  0  0  0
 41 36  1  0  0  0
  8  4  1  0  0  0
 24 19  1  0  0  0
 30 33  1  0  0  0
 27 28  1  0  0  0
 50 51  1  0  0  0
 11 12  1  0  0  0
M  END
> <minimizedAffinity>
19.01233

> <CNNscore>
0.5709633231

> <CNNaffinity>
6.8083429337

> <CNN_VS>
3.8873140812

> <CNNaffinity_variance>
0.5443844199

$$$$
[H]OC(=O)C([H])([H])C([H])([H])[C@@]([H])(C(=O)N1C([H])([H])C([H])([H])C([H])([H])[C@@]1([H])C(=O)N([H])[C@]([H])(C(=O)OC([H])([H])[H])C([H])([H])c1c([H])c([H])c([H])c([H])c1[H])N([H])C(=O)[C@@]([H])(N([H])C(=O)OC([H])([H])c1c([H])c([H])c([H])c([H])c1[H])[C@@]([H])(C([H])([H])[H])C([H])([H])C([H])([H])[H]


 51 53  0  0  0  0  0  0  0  0999 V2000
   27.8706    9.1525   56.6685 C   0  0  0  0  0  0  0  0  0  0  0  0
   27.7392    9.7938   57.9460 C   0  0  0  0  0  0  0  0  0  0  0  0
   26.4309   10.0897   58.1748 O   0  0  0  0  0  0  0  0  0  0  0  0
   28.5152   10.2106   59.0068 N   0  0  0  0  0  0  0  0  0  0  0  0
   27.9189   10.8392   60.2202 C   0  0  0  0  0  0  0  0  0  0  0  0
   28.7268   12.1187   60.2805 C   0  0  0  0  0  0  0  0  0  0  0  0
   30.0936   11.6662   59.8932 C   0  0  0  0  0  0  0  0  0  0  0  0
   29.9042   10.2579   59.2715 C   0  0  0  0  0  0  0  0  0  0  0  0
   30.4058    9.3277   60.2967 C   0  0  0  0  0  0  0  0  0  0  0  0
   31.6233    9.1048   60.4025 O   0  0  0  0  0  0  0  0  0  0  0  0
   29.4926    8.6820   61.1652 N   0  0  0  0  0  0  0  0  0  0  0  0
   28.4638    8.8468   61.1214 H   0  0  0  0  0  0  0  0  0  0  0  0
   30.0053    7.7342   62.1744 C   0  0  0  0  0  0  0  0  0  0  0  0
   31.3547    8.1224   62.6023 C   0  0  0  0  0  0  0  0  0  0  0  0
   32.3363    7.3154   62.3937 O   0  0  0  0  0  0  0  0  0  0  0  0
   31.6813    9.2917   63.2147 O   0  0  0  0  0  0  0  0  0  0  0  0
   33.0375    9.6360   63.5382 C   0  0  0  0  0  0  0  0  0  0  0  0
   30.0005    6.3661   61.5733 C   0  0  0  0  0  0  0  0  0  0  0  0
   28.9044    5.4863   61.9582 C   0  0  0  0  0  0  0  0  0  0  0  0
   28.1844    4.8892   60.9258 C   0  0  0  0  0  0  0  0  0  0  0  0
   27.1646    4.0413   61.2493 C   0  0  0  0  0  0  0  0  0  0  0  0
   26.8248    3.7563   62.5552 C   0  0  0  0  0  0  0  0  0  0  0  0
   27.5734    4.3755   63.5724 C   0  0  0  0  0  0  0  0  0  0  0  0
   28.5900    5.2224   63.2666 C   0  0  0  0  0  0  0  0  0  0  0  0
   25.7987    8.5336   55.3268 C   0  0  0  0  0  0  0  0  0  0  0  0
   26.3492    9.1793   54.3600 O   0  0  0  0  0  0  0  0  0  0  0  0
   26.5031    8.4717   56.5303 N   0  0  0  0  0  0  0  0  0  0  0  0
   26.1364    7.9774   57.3641 H   0  0  0  0  0  0  0  0  0  0  0  0
   24.5020    7.9541   55.0419 C   0  0  0  0  0  0  0  0  0  0  0  0
   23.4134    8.8618   55.2973 N   0  0  0  0  0  0  0  0  0  0  0  0
   22.1522    8.6183   55.8540 C   0  0  0  0  0  0  0  0  0  0  0  0
   21.6767    7.5396   56.2542 O   0  0  0  0  0  0  0  0  0  0  0  0
   23.5860    9.8981   55.0195 H   0  0  0  0  0  0  0  0  0  0  0  0
   21.2513    9.7088   56.0037 O   0  0  0  0  0  0  0  0  0  0  0  0
   21.4116   10.9071   55.2897 C   0  0  0  0  0  0  0  0  0  0  0  0
   21.3863   10.7669   53.8387 C   0  0  0  0  0  0  0  0  0  0  0  0
   21.1413    9.5206   53.2713 C   0  0  0  0  0  0  0  0  0  0  0  0
   21.1079    9.3116   51.9169 C   0  0  0  0  0  0  0  0  0  0  0  0
   21.3261   10.3796   51.0512 C   0  0  0  0  0  0  0  0  0  0  0  0
   21.5703   11.6227   51.6058 C   0  0  0  0  0  0  0  0  0  0  0  0
   21.6001   11.8153   52.9734 C   0  0  0  0  0  0  0  0  0  0  0  0
   24.3237    7.3598   53.6624 C   0  0  0  0  0  0  0  0  0  0  0  0
   25.4411    6.4057   53.2661 C   0  0  0  0  0  0  0  0  0  0  0  0
   22.2985    6.5424   52.4035 C   0  0  0  0  0  0  0  0  0  0  0  0
   23.0689    6.4967   53.7090 C   0  0  0  0  0  0  0  0  0  0  0  0
   28.2048    9.7691   55.4016 C   0  0  0  0  0  0  0  0  0  0  0  0
   28.1515    8.9689   54.1409 C   0  0  0  0  0  0  0  0  0  0  0  0
   29.0998    7.7967   54.2064 C   0  0  0  0  0  0  0  0  0  0  0  0
   30.2255    7.9339   54.7315 O   0  0  0  0  0  0  0  0  0  0  0  0
   28.7663    6.5446   53.6981 O   0  0  0  0  0  0  0  0  0  0  0  0
   29.1270    5.6915   54.0559 H   0  0  0  0  0  0  0  0  0  0  0  0
 44 45  1  0  0  0
 45 42  1  0  0  0
 42 43  1  0  0  0
 42 29  1  0  0  0
 29 30  1  0  0  0
 30 31  1  0  0  0
 31 32  2  0  0  0
 31 34  1  0  0  0
 34 35  1  0  0  0
 35 36  1  0  0  0
 36 37  2  0  0  0
 37 38  1  0  0  0
 38 39  2  0  0  0
 39 40  1  0  0  0
 40 41  2  0  0  0
 29 25  1  0  0  0
 25 26  2  0  0  0
 25 27  1  0  0  0
 27  1  1  0  0  0
  1 46  1  0  0  0
 46 47  1  0  0  0
 47 48  1  0  0  0
 48 49  2  0  0  0
 48 50  1  0  0  0
  1  2  1  0  0  0
  2  3  2  0  0  0
  2  4  1  0  0  0
  4  5  1  0  0  0
  5  6  1  0  0  0
  6  7  1  0  0  0
  7  8  1  0  0  0
  8  9  1  0  0  0
  9 10  2  0  0  0
  9 11  1  0  0  0
 11 13  1  0  0  0
 13 18  1  0  0  0
 18 19  1  0  0  0
 19 20  2  0  0  0
 20 21  1  0  0  0
 21 22  2  0  0  0
 22 23  1  0  0  0
 23 24  2  0  0  0
 13 14  1  0  0  0
 14 15  2  0  0  0
 14 16  1  0  0  0
 16 17  1  0  0  0
 41 36  1  0  0  0
  8  4  1  0  0  0
 24 19  1  0  0  0
 30 33  1  0  0  0
 27 28  1  0  0  0
 50 51  1  0  0  0
 11 12  1  0  0  0
M  END
> <minimizedAffinity>
13.01255

> <CNNscore>
0.5490272641

> <CNNaffinity>
7.0044517517

> <CNN_VS>
3.8456349373

> <CNNaffinity_variance>
0.7557653785

$$$$
[H]OC(=O)C([H])([H])C([H])([H])[C@@]([H])(C(=O)N1C([H])([H])C([H])([H])C([H])([H])[C@@]1([H])C(=O)N([H])[C@]([H])(C(=O)OC([H])([H])[H])C([H])([H])c1c([H])c([H])c([H])c([H])c1[H])N([H])C(=O)[C@@]([H])(N([H])C(=O)OC([H])([H])c1c([H])c([H])c([H])c([H])c1[H])[C@@]([H])(C([H])([H])[H])C([H])([H])C([H])([H])[H]


 51 53  0  0  0  0  0  0  0  0999 V2000
   28.0255   10.2995   58.6819 C   0  0  0  0  0  0  0  0  0  0  0  0
   28.2334    9.1928   57.7917 C   0  0  0  0  0  0  0  0  0  0  0  0
   28.7271    8.1338   58.4892 O   0  0  0  0  0  0  0  0  0  0  0  0
   28.1001    8.8658   56.4589 N   0  0  0  0  0  0  0  0  0  0  0  0
   28.4219    7.5034   55.9457 C   0  0  0  0  0  0  0  0  0  0  0  0
   29.3968    7.8588   54.8426 C   0  0  0  0  0  0  0  0  0  0  0  0
   28.7970    9.0906   54.2544 C   0  0  0  0  0  0  0  0  0  0  0  0
   27.7450    9.5739   55.2866 C   0  0  0  0  0  0  0  0  0  0  0  0
   26.4464    9.2297   54.6839 C   0  0  0  0  0  0  0  0  0  0  0  0
   26.3961    8.5828   53.6245 O   0  0  0  0  0  0  0  0  0  0  0  0
   25.2482    9.6417   55.3162 N   0  0  0  0  0  0  0  0  0  0  0  0
   25.2409   10.1759   56.2117 H   0  0  0  0  0  0  0  0  0  0  0  0
   23.9526    9.3101   54.6906 C   0  0  0  0  0  0  0  0  0  0  0  0
   22.8438    9.7622   55.5396 C   0  0  0  0  0  0  0  0  0  0  0  0
   22.9803    9.7328   56.8198 O   0  0  0  0  0  0  0  0  0  0  0  0
   21.6475   10.2281   55.0914 O   0  0  0  0  0  0  0  0  0  0  0  0
   21.5179   10.9451   53.8539 C   0  0  0  0  0  0  0  0  0  0  0  0
   23.9033    7.8319   54.4771 C   0  0  0  0  0  0  0  0  0  0  0  0
   22.7295    7.3091   53.7899 C   0  0  0  0  0  0  0  0  0  0  0  0
   22.2716    6.0559   54.1909 C   0  0  0  0  0  0  0  0  0  0  0  0
   21.1607    5.5443   53.5843 C   0  0  0  0  0  0  0  0  0  0  0  0
   20.4796    6.2213   52.5945 C   0  0  0  0  0  0  0  0  0  0  0  0
   20.9687    7.4844   52.2151 C   0  0  0  0  0  0  0  0  0  0  0  0
   22.0733    8.0063   52.8082 C   0  0  0  0  0  0  0  0  0  0  0  0
   29.6870    9.7107   60.5172 C   0  0  0  0  0  0  0  0  0  0  0  0
   30.5633   10.2956   59.7791 O   0  0  0  0  0  0  0  0  0  0  0  0
   28.3778    9.6692   60.0351 N   0  0  0  0  0  0  0  0  0  0  0  0
   27.6069    9.2158   60.5587 H   0  0  0  0  0  0  0  0  0  0  0  0
   30.1779    9.1581   61.7630 C   0  0  0  0  0  0  0  0  0  0  0  0
   29.3902    8.0480   62.2334 N   0  0  0  0  0  0  0  0  0  0  0  0
   29.2399    6.7626   61.6994 C   0  0  0  0  0  0  0  0  0  0  0  0
   29.7581    6.2839   60.6737 O   0  0  0  0  0  0  0  0  0  0  0  0
   28.8206    8.2230   63.1422 H   0  0  0  0  0  0  0  0  0  0  0  0
   28.3931    5.8395   62.3733 O   0  0  0  0  0  0  0  0  0  0  0  0
   28.9025    4.8701   63.2520 C   0  0  0  0  0  0  0  0  0  0  0  0
   28.1483    3.6231   63.2967 C   0  0  0  0  0  0  0  0  0  0  0  0
   26.7729    3.6422   63.0888 C   0  0  0  0  0  0  0  0  0  0  0  0
   25.9983    2.5116   63.1214 C   0  0  0  0  0  0  0  0  0  0  0  0
   26.5929    1.2783   63.3718 C   0  0  0  0  0  0  0  0  0  0  0  0
   27.9598    1.2490   63.5794 C   0  0  0  0  0  0  0  0  0  0  0  0
   28.7252    2.3984   63.5429 C   0  0  0  0  0  0  0  0  0  0  0  0
   31.6376    8.7623   61.7898 C   0  0  0  0  0  0  0  0  0  0  0  0
   32.5794    9.9000   61.4228 C   0  0  0  0  0  0  0  0  0  0  0  0
   33.0518    7.3530   63.3286 C   0  0  0  0  0  0  0  0  0  0  0  0
   31.9791    8.4208   63.2349 C   0  0  0  0  0  0  0  0  0  0  0  0
   28.6345   11.6117   58.6161 C   0  0  0  0  0  0  0  0  0  0  0  0
   27.9883   12.7734   59.2982 C   0  0  0  0  0  0  0  0  0  0  0  0
   28.9115   13.3739   60.3302 C   0  0  0  0  0  0  0  0  0  0  0  0
   29.3889   12.6545   61.2336 O   0  0  0  0  0  0  0  0  0  0  0  0
   29.2614   14.7210   60.3168 O   0  0  0  0  0  0  0  0  0  0  0  0
   30.1229   15.0693   60.6667 H   0  0  0  0  0  0  0  0  0  0  0  0
 44 45  1  0  0  0
 45 42  1  0  0  0
 42 43  1  0  0  0
 42 29  1  0  0  0
 29 30  1  0  0  0
 30 31  1  0  0  0
 31 32  2  0  0  0
 31 34  1  0  0  0
 34 35  1  0  0  0
 35 36  1  0  0  0
 36 37  2  0  0  0
 37 38  1  0  0  0
 38 39  2  0  0  0
 39 40  1  0  0  0
 40 41  2  0  0  0
 29 25  1  0  0  0
 25 26  2  0  0  0
 25 27  1  0  0  0
 27  1  1  0  0  0
  1 46  1  0  0  0
 46 47  1  0  0  0
 47 48  1  0  0  0
 48 49  2  0  0  0
 48 50  1  0  0  0
  1  2  1  0  0  0
  2  3  2  0  0  0
  2  4  1  0  0  0
  4  5  1  0  0  0
  5  6  1  0  0  0
  6  7  1  0  0  0
  7  8  1  0  0  0
  8  9  1  0  0  0
  9 10  2  0  0  0
  9 11  1  0  0  0
 11 13  1  0  0  0
 13 18  1  0  0  0
 18 19  1  0  0  0
 19 20  2  0  0  0
 20 21  1  0  0  0
 21 22  2  0  0  0
 22 23  1  0  0  0
 23 24  2  0  0  0
 13 14  1  0  0  0
 14 15  2  0  0  0
 14 16  1  0  0  0
 16 17  1  0  0  0
 41 36  1  0  0  0
  8  4  1  0  0  0
 24 19  1  0  0  0
 30 33  1  0  0  0
 27 28  1  0  0  0
 50 51  1  0  0  0
 11 12  1  0  0  0
M  END
> <minimizedAffinity>
8.58841

> <CNNscore>
0.5095155835

> <CNNaffinity>
6.9794678688

> <CNN_VS>
3.5561475754

> <CNNaffinity_variance>
0.8524657488

$$$$
[H]OC(=O)C([H])([H])C([H])([H])[C@@]([H])(C(=O)N1C([H])([H])C([H])([H])C([H])([H])[C@@]1([H])C(=O)N([H])[C@]([H])(C(=O)OC([H])([H])[H])C([H])([H])c1c([H])c([H])c([H])c([H])c1[H])N([H])C(=O)[C@@]([H])(N([H])C(=O)OC([H])([H])c1c([H])c([H])c([H])c([H])c1[H])[C@@]([H])(C([H])([H])[H])C([H])([H])C([H])([H])[H]


 51 53  0  0  0  0  0  0  0  0999 V2000
   24.3178    7.8419   54.7083 C   0  0  0  0  0  0  0  0  0  0  0  0
   25.5463    8.5309   54.4316 C   0  0  0  0  0  0  0  0  0  0  0  0
   25.4643    9.1380   53.2166 O   0  0  0  0  0  0  0  0  0  0  0  0
   26.7806    8.7651   54.9996 N   0  0  0  0  0  0  0  0  0  0  0  0
   27.8047    9.6205   54.3344 C   0  0  0  0  0  0  0  0  0  0  0  0
   28.9815    8.6673   54.3255 C   0  0  0  0  0  0  0  0  0  0  0  0
   28.8727    7.9941   55.6513 C   0  0  0  0  0  0  0  0  0  0  0  0
   27.4456    8.3177   56.1656 C   0  0  0  0  0  0  0  0  0  0  0  0
   27.6499    9.3189   57.2257 C   0  0  0  0  0  0  0  0  0  0  0  0
   27.3501   10.5091   57.0333 O   0  0  0  0  0  0  0  0  0  0  0  0
   28.1940    8.9211   58.4710 N   0  0  0  0  0  0  0  0  0  0  0  0
   28.4496    7.9323   58.6819 H   0  0  0  0  0  0  0  0  0  0  0  0
   28.4153    9.9379   59.5184 C   0  0  0  0  0  0  0  0  0  0  0  0
   28.8570   11.2028   58.9188 C   0  0  0  0  0  0  0  0  0  0  0  0
   29.9671   11.2350   58.2668 O   0  0  0  0  0  0  0  0  0  0  0  0
   28.1843   12.3828   58.9834 O   0  0  0  0  0  0  0  0  0  0  0  0
   28.3419   13.2970   60.0796 C   0  0  0  0  0  0  0  0  0  0  0  0
   29.4336    9.4073   60.4748 C   0  0  0  0  0  0  0  0  0  0  0  0
   30.3865   10.3682   61.0153 C   0  0  0  0  0  0  0  0  0  0  0  0
   31.7030   10.2669   60.5710 C   0  0  0  0  0  0  0  0  0  0  0  0
   32.6187   11.1648   61.0391 C   0  0  0  0  0  0  0  0  0  0  0  0
   32.2874   12.1632   61.9311 C   0  0  0  0  0  0  0  0  0  0  0  0
   30.9492   12.2370   62.3578 C   0  0  0  0  0  0  0  0  0  0  0  0
   30.0269   11.3504   61.9020 C   0  0  0  0  0  0  0  0  0  0  0  0
   22.4356    9.3656   53.9264 C   0  0  0  0  0  0  0  0  0  0  0  0
   22.3587    9.7412   55.1543 O   0  0  0  0  0  0  0  0  0  0  0  0
   23.4017    8.4072   53.6158 N   0  0  0  0  0  0  0  0  0  0  0  0
   23.5335    8.0422   52.6549 H   0  0  0  0  0  0  0  0  0  0  0  0
   21.4954    9.9863   53.0159 C   0  0  0  0  0  0  0  0  0  0  0  0
   21.7893   11.3738   52.7655 N   0  0  0  0  0  0  0  0  0  0  0  0
   21.5686   12.1465   51.6191 C   0  0  0  0  0  0  0  0  0  0  0  0
   21.0654   11.7986   50.5349 O   0  0  0  0  0  0  0  0  0  0  0  0
   22.2539   11.9147   53.5856 H   0  0  0  0  0  0  0  0  0  0  0  0
   21.9527   13.5159   51.6361 O   0  0  0  0  0  0  0  0  0  0  0  0
   21.0385   14.5466   51.3656 C   0  0  0  0  0  0  0  0  0  0  0  0
   21.6406   15.8387   51.0597 C   0  0  0  0  0  0  0  0  0  0  0  0
   22.0314   16.1250   49.7556 C   0  0  0  0  0  0  0  0  0  0  0  0
   22.6086   17.3149   49.3945 C   0  0  0  0  0  0  0  0  0  0  0  0
   22.8228   18.2953   50.3590 C   0  0  0  0  0  0  0  0  0  0  0  0
   22.4374   18.0202   51.6583 C   0  0  0  0  0  0  0  0  0  0  0  0
   21.8569   16.8154   52.0045 C   0  0  0  0  0  0  0  0  0  0  0  0
   21.2883    9.2882   51.6901 C   0  0  0  0  0  0  0  0  0  0  0  0
   22.3070    8.1906   51.4191 C   0  0  0  0  0  0  0  0  0  0  0  0
   20.0529    7.2544   52.5219 C   0  0  0  0  0  0  0  0  0  0  0  0
   19.9480    8.5681   51.7715 C   0  0  0  0  0  0  0  0  0  0  0  0
   24.1066    6.4114   54.7875 C   0  0  0  0  0  0  0  0  0  0  0  0
   22.7207    5.8547   54.7463 C   0  0  0  0  0  0  0  0  0  0  0  0
   21.9142    6.3283   55.9308 C   0  0  0  0  0  0  0  0  0  0  0  0
   21.8513    5.6267   56.9630 O   0  0  0  0  0  0  0  0  0  0  0  0
   21.2257    7.5379   55.9223 O   0  0  0  0  0  0  0  0  0  0  0  0
   21.0459    8.0746   56.7382 H   0  0  0  0  0  0  0  0  0  0  0  0
 44 45  1  0  0  0
 45 42  1  0  0  0
 42 43  1  0  0  0
 42 29  1  0  0  0
 29 30  1  0  0  0
 30 31  1  0  0  0
 31 32  2  0  0  0
 31 34  1  0  0  0
 34 35  1  0  0  0
 35 36  1  0  0  0
 36 37  2  0  0  0
 37 38  1  0  0  0
 38 39  2  0  0  0
 39 40  1  0  0  0
 40 41  2  0  0  0
 29 25  1  0  0  0
 25 26  2  0  0  0
 25 27  1  0  0  0
 27  1  1  0  0  0
  1 46  1  0  0  0
 46 47  1  0  0  0
 47 48  1  0  0  0
 48 49  2  0  0  0
 48 50  1  0  0  0
  1  2  1  0  0  0
  2  3  2  0  0  0
  2  4  1  0  0  0
  4  5  1  0  0  0
  5  6  1  0  0  0
  6  7  1  0  0  0
  7  8  1  0  0  0
  8  9  1  0  0  0
  9 10  2  0  0  0
  9 11  1  0  0  0
 11 13  1  0  0  0
 13 18  1  0  0  0
 18 19  1  0  0  0
 19 20  2  0  0  0
 20 21  1  0  0  0
 21 22  2  0  0  0
 22 23  1  0  0  0
 23 24  2  0  0  0
 13 14  1  0  0  0
 14 15  2  0  0  0
 14 16  1  0  0  0
 16 17  1  0  0  0
 41 36  1  0  0  0
  8  4  1  0  0  0
 24 19  1  0  0  0
 30 33  1  0  0  0
 27 28  1  0  0  0
 50 51  1  0  0  0
 11 12  1  0  0  0
M  END
> <minimizedAffinity>
12.01772

> <CNNscore>
0.5005324483

> <CNNaffinity>
6.7726707458

> <CNN_VS>
3.3899414539

> <CNNaffinity_variance>
0.6167483330

$$$$
[H]OC(=O)C([H])([H])C([H])([H])[C@@]([H])(C(=O)N1C([H])([H])C([H])([H])C([H])([H])[C@@]1([H])C(=O)N([H])[C@]([H])(C(=O)OC([H])([H])[H])C([H])([H])c1c([H])c([H])c([H])c([H])c1[H])N([H])C(=O)[C@@]([H])(N([H])C(=O)OC([H])([H])c1c([H])c([H])c([H])c([H])c1[H])[C@@]([H])(C([H])([H])[H])C([H])([H])C([H])([H])[H]


 51 53  0  0  0  0  0  0  0  0999 V2000
   28.3611   10.4427   59.2584 C   0  0  0  0  0  0  0  0  0  0  0  0
   28.4366    9.4389   58.2351 C   0  0  0  0  0  0  0  0  0  0  0  0
   29.2440    8.4253   58.6501 O   0  0  0  0  0  0  0  0  0  0  0  0
   27.9594    9.1803   56.9676 N   0  0  0  0  0  0  0  0  0  0  0  0
   28.2862    7.9178   56.2449 C   0  0  0  0  0  0  0  0  0  0  0  0
   28.8397    8.4861   54.9549 C   0  0  0  0  0  0  0  0  0  0  0  0
   27.9420    9.6471   54.6921 C   0  0  0  0  0  0  0  0  0  0  0  0
   27.1880    9.8989   56.0240 C   0  0  0  0  0  0  0  0  0  0  0  0
   25.8243    9.4002   55.7800 C   0  0  0  0  0  0  0  0  0  0  0  0
   24.8747    9.7995   56.4744 O   0  0  0  0  0  0  0  0  0  0  0  0
   25.5961    8.4576   54.7483 N   0  0  0  0  0  0  0  0  0  0  0  0
   26.3596    8.1028   54.1329 H   0  0  0  0  0  0  0  0  0  0  0  0
   24.2281    7.9478   54.5277 C   0  0  0  0  0  0  0  0  0  0  0  0
   24.2714    6.6022   53.9430 C   0  0  0  0  0  0  0  0  0  0  0  0
   24.9724    6.4007   52.8816 O   0  0  0  0  0  0  0  0  0  0  0  0
   23.6248    5.5099   54.4307 O   0  0  0  0  0  0  0  0  0  0  0  0
   22.9834    5.5078   55.7156 C   0  0  0  0  0  0  0  0  0  0  0  0
   23.5133    8.9054   53.6303 C   0  0  0  0  0  0  0  0  0  0  0  0
   22.2174    8.4790   53.1182 C   0  0  0  0  0  0  0  0  0  0  0  0
   21.2924    8.0178   54.0522 C   0  0  0  0  0  0  0  0  0  0  0  0
   20.0598    7.6308   53.6110 C   0  0  0  0  0  0  0  0  0  0  0  0
   19.7004    7.6810   52.2805 C   0  0  0  0  0  0  0  0  0  0  0  0
   20.6582    8.1530   51.3649 C   0  0  0  0  0  0  0  0  0  0  0  0
   21.8891    8.5404   51.7882 C   0  0  0  0  0  0  0  0  0  0  0  0
   30.0678    9.7125   60.9990 C   0  0  0  0  0  0  0  0  0  0  0  0
   30.8914   10.4764   60.3723 O   0  0  0  0  0  0  0  0  0  0  0  0
   28.7661    9.6391   60.5005 N   0  0  0  0  0  0  0  0  0  0  0  0
   28.0363    9.0470   60.9372 H   0  0  0  0  0  0  0  0  0  0  0  0
   30.6043    9.0137   62.1488 C   0  0  0  0  0  0  0  0  0  0  0  0
   29.8754    7.8128   62.4661 N   0  0  0  0  0  0  0  0  0  0  0  0
   29.5717    6.7072   61.6627 C   0  0  0  0  0  0  0  0  0  0  0  0
   29.8633    6.5137   60.4680 O   0  0  0  0  0  0  0  0  0  0  0  0
   29.4982    7.7427   63.4828 H   0  0  0  0  0  0  0  0  0  0  0  0
   28.8316    5.6342   62.2319 O   0  0  0  0  0  0  0  0  0  0  0  0
   28.0423    4.7785   61.4469 C   0  0  0  0  0  0  0  0  0  0  0  0
   27.5329    3.6019   62.1411 C   0  0  0  0  0  0  0  0  0  0  0  0
   28.4012    2.8148   62.8908 C   0  0  0  0  0  0  0  0  0  0  0  0
   27.9957    1.6923   63.5653 C   0  0  0  0  0  0  0  0  0  0  0  0
   26.6603    1.3035   63.5120 C   0  0  0  0  0  0  0  0  0  0  0  0
   25.7893    2.0797   62.7695 C   0  0  0  0  0  0  0  0  0  0  0  0
   26.2152    3.2082   62.0960 C   0  0  0  0  0  0  0  0  0  0  0  0
   32.0805    8.6867   62.1036 C   0  0  0  0  0  0  0  0  0  0  0  0
   32.8476    9.4956   61.0677 C   0  0  0  0  0  0  0  0  0  0  0  0
   32.7767   10.6139   63.5717 C   0  0  0  0  0  0  0  0  0  0  0  0
   32.6701    9.1065   63.4444 C   0  0  0  0  0  0  0  0  0  0  0  0
   29.0455   11.7184   59.2957 C   0  0  0  0  0  0  0  0  0  0  0  0
   28.4150   12.8880   59.9790 C   0  0  0  0  0  0  0  0  0  0  0  0
   29.1666   13.2458   61.2380 C   0  0  0  0  0  0  0  0  0  0  0  0
   29.7112   14.3657   61.3421 O   0  0  0  0  0  0  0  0  0  0  0  0
   29.2794   12.3644   62.3092 O   0  0  0  0  0  0  0  0  0  0  0  0
   29.3757   12.6556   63.2537 H   0  0  0  0  0  0  0  0  0  0  0  0
 44 45  1  0  0  0
 45 42  1  0  0  0
 42 43  1  0  0  0
 42 29  1  0  0  0
 29 30  1  0  0  0
 30 31  1  0  0  0
 31 32  2  0  0  0
 31 34  1  0  0  0
 34 35  1  0  0  0
 35 36  1  0  0  0
 36 37  2  0  0  0
 37 38  1  0  0  0
 38 39  2  0  0  0
 39 40  1  0  0  0
 40 41  2  0  0  0
 29 25  1  0  0  0
 25 26  2  0  0  0
 25 27  1  0  0  0
 27  1  1  0  0  0
  1 46  1  0  0  0
 46 47  1  0  0  0
 47 48  1  0  0  0
 48 49  2  0  0  0
 48 50  1  0  0  0
  1  2  1  0  0  0
  2  3  2  0  0  0
  2  4  1  0  0  0
  4  5  1  0  0  0
  5  6  1  0  0  0
  6  7  1  0  0  0
  7  8  1  0  0  0
  8  9  1  0  0  0
  9 10  2  0  0  0
  9 11  1  0  0  0
 11 13  1  0  0  0
 13 18  1  0  0  0
 18 19  1  0  0  0
 19 20  2  0  0  0
 20 21  1  0  0  0
 21 22  2  0  0  0
 22 23  1  0  0  0
 23 24  2  0  0  0
 13 14  1  0  0  0
 14 15  2  0  0  0
 14 16  1  0  0  0
 16 17  1  0  0  0
 41 36  1  0  0  0
  8  4  1  0  0  0
 24 19  1  0  0  0
 30 33  1  0  0  0
 27 28  1  0  0  0
 50 51  1  0  0  0
 11 12  1  0  0  0
M  END
> <minimizedAffinity>
3.58536

> <CNNscore>
0.4999745190

> <CNNaffinity>
6.8912391663

> <CNN_VS>
3.4454438686

> <CNNaffinity_variance>
1.3619060516

$$$$
[H]Oc1c([H])c([H])c([H])c(C2([H])C([H])([H])N(C([H])([H])C([H])([H])C([H])([H])C([H])([H])C([H])([H])C([H])([H])C([H])([H])C([H])([H])C([H])([H])[H])C([H])([H])C2([H])[H])c1[H]


 22 23  0  0  0  0  0  0  0  0999 V2000
   22.2004    6.3262   54.4565 N   0  0  0  0  0  0  0  0  0  0  0  0
   21.8333    6.1406   53.0792 C   0  0  0  0  0  0  0  0  0  0  0  0
   20.9950    7.3329   52.6919 C   0  0  0  0  0  0  0  0  0  0  0  0
   21.1354    8.2768   53.8504 C   0  0  0  0  0  0  0  0  0  0  0  0
   22.3098    7.7847   54.6104 C   0  0  0  0  0  0  0  0  0  0  0  0
   21.2899    9.6881   53.3987 C   0  0  0  0  0  0  0  0  0  0  0  0
   21.4773   10.6622   54.3548 C   0  0  0  0  0  0  0  0  0  0  0  0
   21.6322   12.0023   53.9845 C   0  0  0  0  0  0  0  0  0  0  0  0
   21.5934   12.3260   52.6462 C   0  0  0  0  0  0  0  0  0  0  0  0
   21.4058   11.3400   51.7145 C   0  0  0  0  0  0  0  0  0  0  0  0
   21.3701   11.6887   50.3749 O   0  0  0  0  0  0  0  0  0  0  0  0
   21.2493    9.9981   52.0660 C   0  0  0  0  0  0  0  0  0  0  0  0
   21.4782   12.6529   50.0726 H   0  0  0  0  0  0  0  0  0  0  0  0
   23.4135    5.6890   54.8489 C   0  0  0  0  0  0  0  0  0  0  0  0
   24.5978    6.0004   53.9907 C   0  0  0  0  0  0  0  0  0  0  0  0
   24.7265    7.4350   53.6183 C   0  0  0  0  0  0  0  0  0  0  0  0
   25.5524    8.2767   54.5328 C   0  0  0  0  0  0  0  0  0  0  0  0
   27.0208    8.3638   54.0446 C   0  0  0  0  0  0  0  0  0  0  0  0
   27.9095    8.7886   55.1476 C   0  0  0  0  0  0  0  0  0  0  0  0
   27.3353    9.3392   56.3796 C   0  0  0  0  0  0  0  0  0  0  0  0
   28.3172    8.9483   58.6098 C   0  0  0  0  0  0  0  0  0  0  0  0
   28.2156    9.8729   57.4493 C   0  0  0  0  0  0  0  0  0  0  0  0
 21 22  1  0  0  0
 22 20  1  0  0  0
 20 19  1  0  0  0
 19 18  1  0  0  0
 18 17  1  0  0  0
 17 16  1  0  0  0
 16 15  1  0  0  0
 15 14  1  0  0  0
 14  1  1  0  0  0
  1  2  1  0  0  0
  2  3  1  0  0  0
  3  4  1  0  0  0
  4  6  1  0  0  0
  6  7  2  0  0  0
  7  8  1  0  0  0
  8  9  2  0  0  0
  9 10  1  0  0  0
 10 11  1  0  0  0
 10 12  2  0  0  0
  4  5  1  0  0  0
  5  1  1  0  0  0
 12  6  1  0  0  0
 11 13  1  0  0  0
M  END
> <minimizedAffinity>
0.42589

> <CNNscore>
0.6042148471

> <CNNaffinity>
5.8578672409

> <CNN_VS>
3.5394103527

> <CNNaffinity_variance>
0.2862257957

$$$$
[H]Oc1c([H])c([H])c([H])c(C2([H])C([H])([H])N(C([H])([H])C([H])([H])C([H])([H])C([H])([H])C([H])([H])C([H])([H])C([H])([H])C([H])([H])C([H])([H])[H])C([H])([H])C2([H])[H])c1[H]


 22 23  0  0  0  0  0  0  0  0999 V2000
   26.0239    8.0782   54.2280 N   0  0  0  0  0  0  0  0  0  0  0  0
   27.4030    7.8683   53.8815 C   0  0  0  0  0  0  0  0  0  0  0  0
   28.2007    8.8949   54.6458 C   0  0  0  0  0  0  0  0  0  0  0  0
   27.2106    9.5001   55.5978 C   0  0  0  0  0  0  0  0  0  0  0  0
   26.0667    8.5566   55.6180 C   0  0  0  0  0  0  0  0  0  0  0  0
   27.8029    9.7186   56.9473 C   0  0  0  0  0  0  0  0  0  0  0  0
   28.1827    8.6150   57.6794 C   0  0  0  0  0  0  0  0  0  0  0  0
   28.7481    8.7643   58.9503 C   0  0  0  0  0  0  0  0  0  0  0  0
   28.9164   10.0359   59.4526 C   0  0  0  0  0  0  0  0  0  0  0  0
   28.5309   11.1172   58.7060 C   0  0  0  0  0  0  0  0  0  0  0  0
   28.7095   12.3860   59.2311 O   0  0  0  0  0  0  0  0  0  0  0  0
   27.9650   10.9868   57.4364 C   0  0  0  0  0  0  0  0  0  0  0  0
   29.1160   12.5289   60.1514 H   0  0  0  0  0  0  0  0  0  0  0  0
   25.1924    6.9255   54.1207 C   0  0  0  0  0  0  0  0  0  0  0  0
   23.8971    7.1442   53.4064 C   0  0  0  0  0  0  0  0  0  0  0  0
   23.6969    8.5317   52.9081 C   0  0  0  0  0  0  0  0  0  0  0  0
   23.1431    9.5068   53.8927 C   0  0  0  0  0  0  0  0  0  0  0  0
   21.5985    9.5896   53.7947 C   0  0  0  0  0  0  0  0  0  0  0  0
   20.9775    8.3699   54.3545 C   0  0  0  0  0  0  0  0  0  0  0  0
   21.4940    7.7905   55.5989 C   0  0  0  0  0  0  0  0  0  0  0  0
   22.8363    5.7263   55.7663 C   0  0  0  0  0  0  0  0  0  0  0  0
   21.4741    6.3215   55.8121 C   0  0  0  0  0  0  0  0  0  0  0  0
 21 22  1  0  0  0
 22 20  1  0  0  0
 20 19  1  0  0  0
 19 18  1  0  0  0
 18 17  1  0  0  0
 17 16  1  0  0  0
 16 15  1  0  0  0
 15 14  1  0  0  0
 14  1  1  0  0  0
  1  2  1  0  0  0
  2  3  1  0  0  0
  3  4  1  0  0  0
  4  6  1  0  0  0
  6  7  2  0  0  0
  7  8  1  0  0  0
  8  9  2  0  0  0
  9 10  1  0  0  0
 10 11  1  0  0  0
 10 12  2  0  0  0
  4  5  1  0  0  0
  5  1  1  0  0  0
 12  6  1  0  0  0
 11 13  1  0  0  0
M  END
> <minimizedAffinity>
4.83279

> <CNNscore>
0.5769976377

> <CNNaffinity>
5.2749738693

> <CNN_VS>
3.0436475277

> <CNNaffinity_variance>
0.6849664450

$$$$
[H]Oc1c([H])c([H])c([H])c(C2([H])C([H])([H])N(C([H])([H])C([H])([H])C([H])([H])C([H])([H])C([H])([H])C([H])([H])C([H])([H])C([H])([H])C([H])([H])[H])C([H])([H])C2([H])[H])c1[H]


 22 23  0  0  0  0  0  0  0  0999 V2000
   22.4648    9.4944   55.3317 N   0  0  0  0  0  0  0  0  0  0  0  0
   23.1087   10.4494   56.1916 C   0  0  0  0  0  0  0  0  0  0  0  0
   24.4984    9.9256   56.4534 C   0  0  0  0  0  0  0  0  0  0  0  0
   24.6467    8.7752   55.5008 C   0  0  0  0  0  0  0  0  0  0  0  0
   23.5566    8.9499   54.5106 C   0  0  0  0  0  0  0  0  0  0  0  0
   25.9976    8.7469   54.8734 C   0  0  0  0  0  0  0  0  0  0  0  0
   27.1007    8.7709   55.6986 C   0  0  0  0  0  0  0  0  0  0  0  0
   28.3920    8.7416   55.1614 C   0  0  0  0  0  0  0  0  0  0  0  0
   28.5364    8.6882   53.7925 C   0  0  0  0  0  0  0  0  0  0  0  0
   27.4248    8.6653   52.9931 C   0  0  0  0  0  0  0  0  0  0  0  0
   27.5940    8.6117   51.6198 O   0  0  0  0  0  0  0  0  0  0  0  0
   26.1291    8.6942   53.5118 C   0  0  0  0  0  0  0  0  0  0  0  0
   28.5181    8.5904   51.1976 H   0  0  0  0  0  0  0  0  0  0  0  0
   21.4335   10.0266   54.5041 C   0  0  0  0  0  0  0  0  0  0  0  0
   20.5515    9.0066   53.8579 C   0  0  0  0  0  0  0  0  0  0  0  0
   20.3805    7.7554   54.6446 C   0  0  0  0  0  0  0  0  0  0  0  0
   21.5320    7.3638   55.5092 C   0  0  0  0  0  0  0  0  0  0  0  0
   22.2061    6.0663   54.9949 C   0  0  0  0  0  0  0  0  0  0  0  0
   22.1018    5.9765   53.5226 C   0  0  0  0  0  0  0  0  0  0  0  0
   22.6539    7.0448   52.6831 C   0  0  0  0  0  0  0  0  0  0  0  0
   20.8088    8.1217   51.4475 C   0  0  0  0  0  0  0  0  0  0  0  0
   22.0678    7.3360   51.3505 C   0  0  0  0  0  0  0  0  0  0  0  0
 21 22  1  0  0  0
 22 20  1  0  0  0
 20 19  1  0  0  0
 19 18  1  0  0  0
 18 17  1  0  0  0
 17 16  1  0  0  0
 16 15  1  0  0  0
 15 14  1  0  0  0
 14  1  1  0  0  0
  1  2  1  0  0  0
  2  3  1  0  0  0
  3  4  1  0  0  0
  4  6  1  0  0  0
  6  7  2  0  0  0
  7  8  1  0  0  0
  8  9  2  0  0  0
  9 10  1  0  0  0
 10 11  1  0  0  0
 10 12  2  0  0  0
  4  5  1  0  0  0
  5  1  1  0  0  0
 12  6  1  0  0  0
 11 13  1  0  0  0
M  END
> <minimizedAffinity>
9.70882

> <CNNscore>
0.5647380352

> <CNNaffinity>
5.8832139969

> <CNN_VS>
3.3224747181

> <CNNaffinity_variance>
0.2887606621

$$$$
[H]Oc1c([H])c([H])c([H])c(C2([H])C([H])([H])N(C([H])([H])C([H])([H])C([H])([H])C([H])([H])C([H])([H])C([H])([H])C([H])([H])C([H])([H])C([H])([H])[H])C([H])([H])C2([H])[H])c1[H]


 22 23  0  0  0  0  0  0  0  0999 V2000
   21.8700    8.9917   53.6377 N   0  0  0  0  0  0  0  0  0  0  0  0
   21.9483   10.0218   54.6371 C   0  0  0  0  0  0  0  0  0  0  0  0
   23.0930    9.6535   55.5473 C   0  0  0  0  0  0  0  0  0  0  0  0
   23.7716    8.5128   54.8465 C   0  0  0  0  0  0  0  0  0  0  0  0
   23.2627    8.5562   53.4543 C   0  0  0  0  0  0  0  0  0  0  0  0
   25.2555    8.6207   54.9226 C   0  0  0  0  0  0  0  0  0  0  0  0
   25.9985    8.1598   53.8578 C   0  0  0  0  0  0  0  0  0  0  0  0
   27.3950    8.2415   53.8761 C   0  0  0  0  0  0  0  0  0  0  0  0
   28.0096    8.7915   54.9794 C   0  0  0  0  0  0  0  0  0  0  0  0
   27.2495    9.2426   56.0254 C   0  0  0  0  0  0  0  0  0  0  0  0
   27.8889    9.7917   57.1241 O   0  0  0  0  0  0  0  0  0  0  0  0
   25.8554    9.1689   56.0242 C   0  0  0  0  0  0  0  0  0  0  0  0
   28.9015    9.8646   57.1695 H   0  0  0  0  0  0  0  0  0  0  0  0
   21.3050    9.3990   52.3942 C   0  0  0  0  0  0  0  0  0  0  0  0
   20.7084    8.2964   51.5791 C   0  0  0  0  0  0  0  0  0  0  0  0
   20.9570    6.9315   52.1166 C   0  0  0  0  0  0  0  0  0  0  0  0
   19.9813    6.4413   53.1337 C   0  0  0  0  0  0  0  0  0  0  0  0
   20.2491    4.9597   53.5019 C   0  0  0  0  0  0  0  0  0  0  0  0
   19.0445    4.1384   53.2551 C   0  0  0  0  0  0  0  0  0  0  0  0
   18.1600    3.7826   54.3695 C   0  0  0  0  0  0  0  0  0  0  0  0
   15.8558    3.3914   53.5768 C   0  0  0  0  0  0  0  0  0  0  0  0
   16.7518    4.2520   54.3944 C   0  0  0  0  0  0  0  0  0  0  0  0
 21 22  1  0  0  0
 22 20  1  0  0  0
 20 19  1  0  0  0
 19 18  1  0  0  0
 18 17  1  0  0  0
 17 16  1  0  0  0
 16 15  1  0  0  0
 15 14  1  0  0  0
 14  1  1  0  0  0
  1  2  1  0  0  0
  2  3  1  0  0  0
  3  4  1  0  0  0
  4  6  1  0  0  0
  6  7  2  0  0  0
  7  8  1  0  0  0
  8  9  2  0  0  0
  9 10  1  0  0  0
 10 11  1  0  0  0
 10 12  2  0  0  0
  4  5  1  0  0  0
  5  1  1  0  0  0
 12  6  1  0  0  0
 11 13  1  0  0  0
M  END
> <minimizedAffinity>
3.38411

> <CNNscore>
0.5609570146

> <CNNaffinity>
5.8606290817

> <CNN_VS>
3.2875609398

> <CNNaffinity_variance>
0.0879641101

$$$$
[H]Oc1c([H])c([H])c([H])c(C2([H])C([H])([H])N(C([H])([H])C([H])([H])C([H])([H])C([H])([H])C([H])([H])C([H])([H])C([H])([H])C([H])([H])C([H])([H])[H])C([H])([H])C2([H])[H])c1[H]


 22 23  0  0  0  0  0  0  0  0999 V2000
   22.5410    8.1384   53.2999 N   0  0  0  0  0  0  0  0  0  0  0  0
   21.3508    8.9313   53.4447 C   0  0  0  0  0  0  0  0  0  0  0  0
   20.2122    8.1025   52.9053 C   0  0  0  0  0  0  0  0  0  0  0  0
   20.8119    6.7431   52.6918 C   0  0  0  0  0  0  0  0  0  0  0  0
   22.0772    6.7526   53.4650 C   0  0  0  0  0  0  0  0  0  0  0  0
   19.8846    5.6566   53.1150 C   0  0  0  0  0  0  0  0  0  0  0  0
   20.3603    4.3638   53.1347 C   0  0  0  0  0  0  0  0  0  0  0  0
   19.5326    3.3068   53.5283 C   0  0  0  0  0  0  0  0  0  0  0  0
   18.2346    3.5862   53.8949 C   0  0  0  0  0  0  0  0  0  0  0  0
   17.7847    4.8793   53.8670 C   0  0  0  0  0  0  0  0  0  0  0  0
   16.4761    5.1366   54.2397 O   0  0  0  0  0  0  0  0  0  0  0  0
   18.5964    5.9460   53.4769 C   0  0  0  0  0  0  0  0  0  0  0  0
   15.8487    4.3916   54.5295 H   0  0  0  0  0  0  0  0  0  0  0  0
   23.5794    8.4330   54.2308 C   0  0  0  0  0  0  0  0  0  0  0  0
   24.7400    7.4906   54.2029 C   0  0  0  0  0  0  0  0  0  0  0  0
   25.8325    7.8332   55.1529 C   0  0  0  0  0  0  0  0  0  0  0  0
   25.8272    9.2292   55.6801 C   0  0  0  0  0  0  0  0  0  0  0  0
   27.1323    9.5430   56.4551 C   0  0  0  0  0  0  0  0  0  0  0  0
   28.1737    8.5405   56.1438 C   0  0  0  0  0  0  0  0  0  0  0  0
   28.8851    8.5975   54.8626 C   0  0  0  0  0  0  0  0  0  0  0  0
   27.5153    8.7078   52.8127 C   0  0  0  0  0  0  0  0  0  0  0  0
   28.3847    9.4558   53.7595 C   0  0  0  0  0  0  0  0  0  0  0  0
 21 22  1  0  0  0
 22 20  1  0  0  0
 20 19  1  0  0  0
 19 18  1  0  0  0
 18 17  1  0  0  0
 17 16  1  0  0  0
 16 15  1  0  0  0
 15 14  1  0  0  0
 14  1  1  0  0  0
  1  2  1  0  0  0
  2  3  1  0  0  0
  3  4  1  0  0  0
  4  6  1  0  0  0
  6  7  2  0  0  0
  7  8  1  0  0  0
  8  9  2  0  0  0
  9 10  1  0  0  0
 10 11  1  0  0  0
 10 12  2  0  0  0
  4  5  1  0  0  0
  5  1  1  0  0  0
 12  6  1  0  0  0
 11 13  1  0  0  0
M  END
> <minimizedAffinity>
14.32399

> <CNNscore>
0.5602385998

> <CNNaffinity>
5.7816829681

> <CNN_VS>
3.2391219139

> <CNNaffinity_variance>
0.4166166186

$$$$
[H]Oc1c([H])c([H])c([H])c(C2([H])C([H])([H])N(C([H])([H])C([H])([H])C([H])([H])C([H])([H])C([H])([H])C([H])([H])C([H])([H])C([H])([H])C([H])([H])[H])C([H])([H])C2([H])[H])c1[H]


 22 23  0  0  0  0  0  0  0  0999 V2000
   22.6425    7.9123   53.9895 N   0  0  0  0  0  0  0  0  0  0  0  0
   23.0544    6.6287   54.4885 C   0  0  0  0  0  0  0  0  0  0  0  0
   24.5381    6.5250   54.2393 C   0  0  0  0  0  0  0  0  0  0  0  0
   24.9389    7.9055   53.8074 C   0  0  0  0  0  0  0  0  0  0  0  0
   23.8100    8.7794   54.2085 C   0  0  0  0  0  0  0  0  0  0  0  0
   26.2346    8.3207   54.4142 C   0  0  0  0  0  0  0  0  0  0  0  0
   27.3841    8.1582   53.6724 C   0  0  0  0  0  0  0  0  0  0  0  0
   28.6264    8.5359   54.1931 C   0  0  0  0  0  0  0  0  0  0  0  0
   28.6752    9.0726   55.4608 C   0  0  0  0  0  0  0  0  0  0  0  0
   27.5189    9.2241   56.1787 C   0  0  0  0  0  0  0  0  0  0  0  0
   27.5920    9.7658   57.4510 O   0  0  0  0  0  0  0  0  0  0  0  0
   26.2710    8.8527   55.6750 C   0  0  0  0  0  0  0  0  0  0  0  0
   28.4785   10.0492   57.8590 H   0  0  0  0  0  0  0  0  0  0  0  0
   21.4865    8.4612   54.6170 C   0  0  0  0  0  0  0  0  0  0  0  0
   20.1837    8.0701   53.9959 C   0  0  0  0  0  0  0  0  0  0  0  0
   20.2300    6.8028   53.2179 C   0  0  0  0  0  0  0  0  0  0  0  0
   19.0160    5.9390   53.3017 C   0  0  0  0  0  0  0  0  0  0  0  0
   19.3982    4.4438   53.4455 C   0  0  0  0  0  0  0  0  0  0  0  0
   18.2862    3.6805   54.0517 C   0  0  0  0  0  0  0  0  0  0  0  0
   17.0091    4.3451   54.3316 C   0  0  0  0  0  0  0  0  0  0  0  0
   15.9102    2.5584   53.0312 C   0  0  0  0  0  0  0  0  0  0  0  0
   15.7245    3.6901   53.9781 C   0  0  0  0  0  0  0  0  0  0  0  0
 21 22  1  0  0  0
 22 20  1  0  0  0
 20 19  1  0  0  0
 19 18  1  0  0  0
 18 17  1  0  0  0
 17 16  1  0  0  0
 16 15  1  0  0  0
 15 14  1  0  0  0
 14  1  1  0  0  0
  1  2  1  0  0  0
  2  3  1  0  0  0
  3  4  1  0  0  0
  4  6  1  0  0  0
  6  7  2  0  0  0
  7  8  1  0  0  0
  8  9  2  0  0  0
  9 10  1  0  0  0
 10 11  1  0  0  0
 10 12  2  0  0  0
  4  5  1  0  0  0
  5  1  1  0  0  0
 12  6  1  0  0  0
 11 13  1  0  0  0
M  END
> <minimizedAffinity>
6.20744

> <CNNscore>
0.5581961274

> <CNNaffinity>
5.3042116165

> <CNN_VS>
2.9607903957

> <CNNaffinity_variance>
0.3721890450

$$$$
[H]Oc1c([H])c([H])c([H])c(C2([H])C([H])([H])N(C([H])([H])C([H])([H])C([H])([H])C([H])([H])C([H])([H])C([H])([H])C([H])([H])C([H])([H])C([H])([H])[H])C([H])([H])C2([H])[H])c1[H]


 22 23  0  0  0  0  0  0  0  0999 V2000
   21.8979    9.4404   53.9597 N   0  0  0  0  0  0  0  0  0  0  0  0
   22.0322   10.2197   55.1600 C   0  0  0  0  0  0  0  0  0  0  0  0
   23.1863    9.6295   55.9306 C   0  0  0  0  0  0  0  0  0  0  0  0
   23.8121    8.6568   54.9738 C   0  0  0  0  0  0  0  0  0  0  0  0
   23.2715    9.0219   53.6421 C   0  0  0  0  0  0  0  0  0  0  0  0
   25.3001    8.7080   55.0269 C   0  0  0  0  0  0  0  0  0  0  0  0
   26.0084    8.2190   53.9512 C   0  0  0  0  0  0  0  0  0  0  0  0
   27.4071    8.2472   53.9479 C   0  0  0  0  0  0  0  0  0  0  0  0
   28.0592    8.7734   55.0411 C   0  0  0  0  0  0  0  0  0  0  0  0
   27.3332    9.2533   56.0985 C   0  0  0  0  0  0  0  0  0  0  0  0
   28.0100    9.7776   57.1869 O   0  0  0  0  0  0  0  0  0  0  0  0
   25.9374    9.2329   56.1188 C   0  0  0  0  0  0  0  0  0  0  0  0
   29.0252    9.8118   57.2165 H   0  0  0  0  0  0  0  0  0  0  0  0
   21.3162   10.1284   52.8553 C   0  0  0  0  0  0  0  0  0  0  0  0
   21.1532    9.3096   51.6147 C   0  0  0  0  0  0  0  0  0  0  0  0
   20.9063    7.8633   51.8613 C   0  0  0  0  0  0  0  0  0  0  0  0
   22.1008    6.9725   51.7798 C   0  0  0  0  0  0  0  0  0  0  0  0
   22.2844    6.1567   53.0847 C   0  0  0  0  0  0  0  0  0  0  0  0
   21.0545    6.2058   53.9041 C   0  0  0  0  0  0  0  0  0  0  0  0
   19.8024    5.6511   53.3793 C   0  0  0  0  0  0  0  0  0  0  0  0
   18.3670    3.7577   54.0469 C   0  0  0  0  0  0  0  0  0  0  0  0
   19.5939    4.1823   53.3214 C   0  0  0  0  0  0  0  0  0  0  0  0
 21 22  1  0  0  0
 22 20  1  0  0  0
 20 19  1  0  0  0
 19 18  1  0  0  0
 18 17  1  0  0  0
 17 16  1  0  0  0
 16 15  1  0  0  0
 15 14  1  0  0  0
 14  1  1  0  0  0
  1  2  1  0  0  0
  2  3  1  0  0  0
  3  4  1  0  0  0
  4  6  1  0  0  0
  6  7  2  0  0  0
  7  8  1  0  0  0
  8  9  2  0  0  0
  9 10  1  0  0  0
 10 11  1  0  0  0
 10 12  2  0  0  0
  4  5  1  0  0  0
  5  1  1  0  0  0
 12  6  1  0  0  0
 11 13  1  0  0  0
M  END
> <minimizedAffinity>
3.57736

> <CNNscore>
0.5551497340

> <CNNaffinity>
5.8194069862

> <CNN_VS>
3.2306423187

> <CNNaffinity_variance>
0.1336816847

$$$$
[H]Oc1c([H])c([H])c([H])c(C2([H])C([H])([H])N(C([H])([H])C([H])([H])C([H])([H])C([H])([H])C([H])([H])C([H])([H])C([H])([H])C([H])([H])C([H])([H])[H])C([H])([H])C2([H])[H])c1[H]


 22 23  0  0  0  0  0  0  0  0999 V2000
   22.8906    8.6616   53.9093 N   0  0  0  0  0  0  0  0  0  0  0  0
   21.7497    9.2507   54.5554 C   0  0  0  0  0  0  0  0  0  0  0  0
   20.5318    8.5639   53.9903 C   0  0  0  0  0  0  0  0  0  0  0  0
   21.0875    7.4182   53.1956 C   0  0  0  0  0  0  0  0  0  0  0  0
   22.4883    7.2694   53.6590 C   0  0  0  0  0  0  0  0  0  0  0  0
   20.2839    6.1771   53.3779 C   0  0  0  0  0  0  0  0  0  0  0  0
   20.9249    4.9627   53.2663 C   0  0  0  0  0  0  0  0  0  0  0  0
   20.2181    3.7669   53.4328 C   0  0  0  0  0  0  0  0  0  0  0  0
   18.8704    3.8300   53.7102 C   0  0  0  0  0  0  0  0  0  0  0  0
   18.2555    5.0491   53.8163 C   0  0  0  0  0  0  0  0  0  0  0  0
   16.8998    5.0883   54.0957 O   0  0  0  0  0  0  0  0  0  0  0  0
   18.9450    6.2519   53.6530 C   0  0  0  0  0  0  0  0  0  0  0  0
   16.3572    4.2383   54.2211 H   0  0  0  0  0  0  0  0  0  0  0  0
   24.1000    8.7055   54.6623 C   0  0  0  0  0  0  0  0  0  0  0  0
   25.1366    7.7087   54.2528 C   0  0  0  0  0  0  0  0  0  0  0  0
   26.3762    8.3078   53.6889 C   0  0  0  0  0  0  0  0  0  0  0  0
   27.4701    8.5876   54.6647 C   0  0  0  0  0  0  0  0  0  0  0  0
   26.9006    9.0288   56.0370 C   0  0  0  0  0  0  0  0  0  0  0  0
   27.9897    9.4819   56.9287 C   0  0  0  0  0  0  0  0  0  0  0  0
   28.0347    9.0233   58.3209 C   0  0  0  0  0  0  0  0  0  0  0  0
   28.9016   11.1914   59.1201 C   0  0  0  0  0  0  0  0  0  0  0  0
   28.8899    9.7172   59.3165 C   0  0  0  0  0  0  0  0  0  0  0  0
 21 22  1  0  0  0
 22 20  1  0  0  0
 20 19  1  0  0  0
 19 18  1  0  0  0
 18 17  1  0  0  0
 17 16  1  0  0  0
 16 15  1  0  0  0
 15 14  1  0  0  0
 14  1  1  0  0  0
  1  2  1  0  0  0
  2  3  1  0  0  0
  3  4  1  0  0  0
  4  6  1  0  0  0
  6  7  2  0  0  0
  7  8  1  0  0  0
  8  9  2  0  0  0
  9 10  1  0  0  0
 10 11  1  0  0  0
 10 12  2  0  0  0
  4  5  1  0  0  0
  5  1  1  0  0  0
 12  6  1  0  0  0
 11 13  1  0  0  0
M  END
> <minimizedAffinity>
7.46428

> <CNNscore>
0.5462848544

> <CNNaffinity>
5.7932896614

> <CNN_VS>
3.1647863388

> <CNNaffinity_variance>
0.4515388012

$$$$
[H]Oc1c([H])c([H])c([H])c(C2([H])C([H])([H])N(C([H])([H])C([H])([H])C([H])([H])C([H])([H])C([H])([H])C([H])([H])C([H])([H])C([H])([H])C([H])([H])[H])C([H])([H])C2([H])[H])c1[H]


 22 23  0  0  0  0  0  0  0  0999 V2000
   23.3444   10.3392   55.8331 N   0  0  0  0  0  0  0  0  0  0  0  0
   22.0347   10.4224   56.4196 C   0  0  0  0  0  0  0  0  0  0  0  0
   21.0464   10.2898   55.2883 C   0  0  0  0  0  0  0  0  0  0  0  0
   21.8843    9.8899   54.1089 C   0  0  0  0  0  0  0  0  0  0  0  0
   23.1725    9.4352   54.6859 C   0  0  0  0  0  0  0  0  0  0  0  0
   21.2178    8.8416   53.2866 C   0  0  0  0  0  0  0  0  0  0  0  0
   20.3530    7.9719   53.9144 C   0  0  0  0  0  0  0  0  0  0  0  0
   19.6976    6.9720   53.1881 C   0  0  0  0  0  0  0  0  0  0  0  0
   19.9351    6.8760   51.8346 C   0  0  0  0  0  0  0  0  0  0  0  0
   20.7990    7.7519   51.2333 C   0  0  0  0  0  0  0  0  0  0  0  0
   21.0225    7.6365   49.8715 O   0  0  0  0  0  0  0  0  0  0  0  0
   21.4616    8.7554   51.9423 C   0  0  0  0  0  0  0  0  0  0  0  0
   20.5634    6.9207   49.3153 H   0  0  0  0  0  0  0  0  0  0  0  0
   24.3654    9.8562   56.7024 C   0  0  0  0  0  0  0  0  0  0  0  0
   25.7024    9.6623   56.0615 C   0  0  0  0  0  0  0  0  0  0  0  0
   25.9816    8.2650   55.6333 C   0  0  0  0  0  0  0  0  0  0  0  0
   24.8655    7.5579   54.9397 C   0  0  0  0  0  0  0  0  0  0  0  0
   25.1939    7.3194   53.4439 C   0  0  0  0  0  0  0  0  0  0  0  0
   25.8707    8.5008   52.8670 C   0  0  0  0  0  0  0  0  0  0  0  0
   27.3331    8.6019   52.9132 C   0  0  0  0  0  0  0  0  0  0  0  0
   28.7530    8.9813   54.8958 C   0  0  0  0  0  0  0  0  0  0  0  0
   28.0980    7.9737   54.0197 C   0  0  0  0  0  0  0  0  0  0  0  0
 21 22  1  0  0  0
 22 20  1  0  0  0
 20 19  1  0  0  0
 19 18  1  0  0  0
 18 17  1  0  0  0
 17 16  1  0  0  0
 16 15  1  0  0  0
 15 14  1  0  0  0
 14  1  1  0  0  0
  1  2  1  0  0  0
  2  3  1  0  0  0
  3  4  1  0  0  0
  4  6  1  0  0  0
  6  7  2  0  0  0
  7  8  1  0  0  0
  8  9  2  0  0  0
  9 10  1  0  0  0
 10 11  1  0  0  0
 10 12  2  0  0  0
  4  5  1  0  0  0
  5  1  1  0  0  0
 12  6  1  0  0  0
 11 13  1  0  0  0
M  END
> <minimizedAffinity>
11.31497

> <CNNscore>
0.5458197594

> <CNNaffinity>
6.0566062927

> <CNN_VS>
3.3058154583

> <CNNaffinity_variance>
0.3094993830

$$$$
[H]OC(=O)/C([H])=C(\[H])c1c([H])c([H])c(Oc2c(-c3c([H])c([H])c(OC(F)(F)F)c([H])c3C([H])([H])[H])c(=O)oc3c([H])c(OC([H])([H])C([H])([H])[H])c([H])c([H])c23)c([H])c1[H]


 39 42  0  0  0  0  0  0  0  0999 V2000
   18.1293    4.4254   53.5663 C   0  0  0  0  0  0  0  0  0  0  0  0
   17.8821    5.7626   53.7587 C   0  0  0  0  0  0  0  0  0  0  0  0
   18.9539    6.6204   53.8740 C   0  0  0  0  0  0  0  0  0  0  0  0
   20.2602    6.1790   53.8028 C   0  0  0  0  0  0  0  0  0  0  0  0
   21.3592    7.0476   53.9159 C   0  0  0  0  0  0  0  0  0  0  0  0
   22.6001    6.4521   53.8181 C   0  0  0  0  0  0  0  0  0  0  0  0
   22.7880    5.0856   53.6207 C   0  0  0  0  0  0  0  0  0  0  0  0
   23.9528    4.5879   53.5374 O   0  0  0  0  0  0  0  0  0  0  0  0
   21.7326    4.3349   53.5246 O   0  0  0  0  0  0  0  0  0  0  0  0
   20.5151    4.8439   53.6094 C   0  0  0  0  0  0  0  0  0  0  0  0
   19.4277    3.9835   53.4942 C   0  0  0  0  0  0  0  0  0  0  0  0
   23.8059    7.2443   53.9431 C   0  0  0  0  0  0  0  0  0  0  0  0
   24.7721    7.1462   52.9864 C   0  0  0  0  0  0  0  0  0  0  0  0
   25.9248    7.8850   53.0731 C   0  0  0  0  0  0  0  0  0  0  0  0
   26.1008    8.7320   54.1400 C   0  0  0  0  0  0  0  0  0  0  0  0
   25.1213    8.8326   55.1115 C   0  0  0  0  0  0  0  0  0  0  0  0
   23.9768    8.0870   55.0084 C   0  0  0  0  0  0  0  0  0  0  0  0
   22.9723    8.2461   56.0916 C   0  0  0  0  0  0  0  0  0  0  0  0
   27.2770    9.4859   54.2282 O   0  0  0  0  0  0  0  0  0  0  0  0
   28.3634    9.0523   55.0392 C   0  0  0  0  0  0  0  0  0  0  0  0
   28.5977    7.7269   54.7683 F   0  0  0  0  0  0  0  0  0  0  0  0
   29.4855    9.8041   54.7438 F   0  0  0  0  0  0  0  0  0  0  0  0
   28.0941    9.2296   56.3881 F   0  0  0  0  0  0  0  0  0  0  0  0
   17.0677    3.5568   53.4498 O   0  0  0  0  0  0  0  0  0  0  0  0
   14.7323    3.9072   53.0609 C   0  0  0  0  0  0  0  0  0  0  0  0
   15.8249    3.7571   54.0947 C   0  0  0  0  0  0  0  0  0  0  0  0
   21.1094    8.3544   54.1060 O   0  0  0  0  0  0  0  0  0  0  0  0
   21.2321    9.4816   53.3804 C   0  0  0  0  0  0  0  0  0  0  0  0
   21.2371    9.5746   52.0137 C   0  0  0  0  0  0  0  0  0  0  0  0
   21.3725   10.7762   51.3192 C   0  0  0  0  0  0  0  0  0  0  0  0
   21.5129   11.9733   52.0147 C   0  0  0  0  0  0  0  0  0  0  0  0
   21.5107   11.9076   53.3881 C   0  0  0  0  0  0  0  0  0  0  0  0
   21.3757   10.7105   54.0507 C   0  0  0  0  0  0  0  0  0  0  0  0
   21.6527   13.2128   51.2705 C   0  0  0  0  0  0  0  0  0  0  0  0
   20.9097   14.2832   51.4650 C   0  0  0  0  0  0  0  0  0  0  0  0
   21.1526   15.4830   50.6405 C   0  0  0  0  0  0  0  0  0  0  0  0
   22.2226   16.1255   50.7142 O   0  0  0  0  0  0  0  0  0  0  0  0
   20.1900   15.9282   49.7573 O   0  0  0  0  0  0  0  0  0  0  0  0
   20.3078   15.8920   48.7382 H   0  0  0  0  0  0  0  0  0  0  0  0
 25 26  1  0  0  0
 26 24  1  0  0  0
 24  1  1  0  0  0
  1  2  2  0  0  0
  2  3  1  0  0  0
  3  4  2  0  0  0
  4  5  1  0  0  0
  5 27  1  0  0  0
 27 28  1  0  0  0
 28 29  2  0  0  0
 29 30  1  0  0  0
 30 31  2  0  0  0
 31 34  1  0  0  0
 34 35  2  0  0  0
 35 36  1  0  0  0
 36 37  2  0  0  0
 36 38  1  0  0  0
 31 32  1  0  0  0
 32 33  2  0  0  0
  5  6  2  0  0  0
  6 12  1  0  0  0
 12 13  2  0  0  0
 13 14  1  0  0  0
 14 15  2  0  0  0
 15 19  1  0  0  0
 19 20  1  0  0  0
 20 21  1  0  0  0
 20 22  1  0  0  0
 20 23  1  0  0  0
 15 16  1  0  0  0
 16 17  2  0  0  0
 17 18  1  0  0  0
  6  7  1  0  0  0
  7  8  2  0  0  0
  7  9  1  0  0  0
  9 10  1  0  0  0
 10 11  2  0  0  0
 11  1  1  0  0  0
 10  4  1  0  0  0
 33 28  1  0  0  0
 17 12  1  0  0  0
 38 39  1  0  0  0
M  END
> <minimizedAffinity>
25.59256

> <CNNscore>
0.5613039136

> <CNNaffinity>
6.8307213783

> <CNN_VS>
3.8341107368

> <CNNaffinity_variance>
0.4276967049

$$$$
[H]OC(=O)/C([H])=C(\[H])c1c([H])c([H])c(Oc2c(-c3c([H])c([H])c(OC(F)(F)F)c([H])c3C([H])([H])[H])c(=O)oc3c([H])c(OC([H])([H])C([H])([H])[H])c([H])c([H])c23)c([H])c1[H]


 39 42  0  0  0  0  0  0  0  0999 V2000
   24.3388    3.6904   53.1732 C   0  0  0  0  0  0  0  0  0  0  0  0
   25.3909    4.5470   53.3871 C   0  0  0  0  0  0  0  0  0  0  0  0
   25.1440    5.9023   53.4017 C   0  0  0  0  0  0  0  0  0  0  0  0
   23.8793    6.4215   53.2087 C   0  0  0  0  0  0  0  0  0  0  0  0
   23.6180    7.8024   53.2255 C   0  0  0  0  0  0  0  0  0  0  0  0
   22.3012    8.1607   53.0220 C   0  0  0  0  0  0  0  0  0  0  0  0
   21.2742    7.2428   52.8110 C   0  0  0  0  0  0  0  0  0  0  0  0
   20.0778    7.6258   52.6289 O   0  0  0  0  0  0  0  0  0  0  0  0
   21.5794    5.9804   52.8062 O   0  0  0  0  0  0  0  0  0  0  0  0
   22.8225    5.5715   52.9955 C   0  0  0  0  0  0  0  0  0  0  0  0
   23.0795    4.2040   52.9817 C   0  0  0  0  0  0  0  0  0  0  0  0
   21.9165    9.5566   52.9949 C   0  0  0  0  0  0  0  0  0  0  0  0
   21.8256   10.2015   51.7972 C   0  0  0  0  0  0  0  0  0  0  0  0
   21.4609   11.5226   51.7361 C   0  0  0  0  0  0  0  0  0  0  0  0
   21.1854   12.1977   52.9002 C   0  0  0  0  0  0  0  0  0  0  0  0
   21.2774   11.5446   54.1161 C   0  0  0  0  0  0  0  0  0  0  0  0
   21.6431   10.2252   54.1578 C   0  0  0  0  0  0  0  0  0  0  0  0
   21.7234    9.5930   55.5000 C   0  0  0  0  0  0  0  0  0  0  0  0
   20.8132   13.5457   52.8377 O   0  0  0  0  0  0  0  0  0  0  0  0
   20.7185   14.2201   51.5879 C   0  0  0  0  0  0  0  0  0  0  0  0
   20.4731   13.2843   50.6138 F   0  0  0  0  0  0  0  0  0  0  0  0
   19.6849   15.1371   51.6382 F   0  0  0  0  0  0  0  0  0  0  0  0
   21.8782   14.9243   51.3003 F   0  0  0  0  0  0  0  0  0  0  0  0
   24.5712    2.3336   53.1557 O   0  0  0  0  0  0  0  0  0  0  0  0
   25.7037    0.2526   52.8162 C   0  0  0  0  0  0  0  0  0  0  0  0
   25.7910    1.7592   52.7279 C   0  0  0  0  0  0  0  0  0  0  0  0
   24.6528    8.6344   53.4334 O   0  0  0  0  0  0  0  0  0  0  0  0
   25.5023    8.8929   54.4452 C   0  0  0  0  0  0  0  0  0  0  0  0
   25.1742    9.3953   55.6766 C   0  0  0  0  0  0  0  0  0  0  0  0
   26.1049    9.6459   56.6844 C   0  0  0  0  0  0  0  0  0  0  0  0
   27.4547    9.3848   56.4696 C   0  0  0  0  0  0  0  0  0  0  0  0
   27.8107    8.8795   55.2413 C   0  0  0  0  0  0  0  0  0  0  0  0
   26.8746    8.6408   54.2631 C   0  0  0  0  0  0  0  0  0  0  0  0
   28.4064    9.6537   57.5334 C   0  0  0  0  0  0  0  0  0  0  0  0
   28.2660    9.2413   58.7768 C   0  0  0  0  0  0  0  0  0  0  0  0
   29.3069    9.5818   59.7661 C   0  0  0  0  0  0  0  0  0  0  0  0
   29.7275   10.7514   59.9016 O   0  0  0  0  0  0  0  0  0  0  0  0
   29.8465    8.6024   60.5750 O   0  0  0  0  0  0  0  0  0  0  0  0
   29.6882    8.5655   61.5886 H   0  0  0  0  0  0  0  0  0  0  0  0
 25 26  1  0  0  0
 26 24  1  0  0  0
 24  1  1  0  0  0
  1  2  2  0  0  0
  2  3  1  0  0  0
  3  4  2  0  0  0
  4  5  1  0  0  0
  5 27  1  0  0  0
 27 28  1  0  0  0
 28 29  2  0  0  0
 29 30  1  0  0  0
 30 31  2  0  0  0
 31 34  1  0  0  0
 34 35  2  0  0  0
 35 36  1  0  0  0
 36 37  2  0  0  0
 36 38  1  0  0  0
 31 32  1  0  0  0
 32 33  2  0  0  0
  5  6  2  0  0  0
  6 12  1  0  0  0
 12 13  2  0  0  0
 13 14  1  0  0  0
 14 15  2  0  0  0
 15 19  1  0  0  0
 19 20  1  0  0  0
 20 21  1  0  0  0
 20 22  1  0  0  0
 20 23  1  0  0  0
 15 16  1  0  0  0
 16 17  2  0  0  0
 17 18  1  0  0  0
  6  7  1  0  0  0
  7  8  2  0  0  0
  7  9  1  0  0  0
  9 10  1  0  0  0
 10 11  2  0  0  0
 11  1  1  0  0  0
 10  4  1  0  0  0
 33 28  1  0  0  0
 17 12  1  0  0  0
 38 39  1  0  0  0
M  END
> <minimizedAffinity>
31.67467

> <CNNscore>
0.4761754274

> <CNNaffinity>
6.4527130127

> <CNN_VS>
3.0726234913

> <CNNaffinity_variance>
0.1567404270

$$$$
[H]OC(=O)/C([H])=C(\[H])c1c([H])c([H])c(Oc2c(-c3c([H])c([H])c(OC(F)(F)F)c([H])c3C([H])([H])[H])c(=O)oc3c([H])c(OC([H])([H])C([H])([H])[H])c([H])c([H])c23)c([H])c1[H]


 39 42  0  0  0  0  0  0  0  0999 V2000
   21.8050    3.8837   53.3735 C   0  0  0  0  0  0  0  0  0  0  0  0
   23.0982    4.3422   53.4342 C   0  0  0  0  0  0  0  0  0  0  0  0
   23.3289    5.6880   53.2508 C   0  0  0  0  0  0  0  0  0  0  0  0
   22.3060    6.5833   53.0092 C   0  0  0  0  0  0  0  0  0  0  0  0
   22.5321    7.9581   52.8246 C   0  0  0  0  0  0  0  0  0  0  0  0
   21.4047    8.7207   52.5978 C   0  0  0  0  0  0  0  0  0  0  0  0
   20.1144    8.1969   52.5486 C   0  0  0  0  0  0  0  0  0  0  0  0
   19.1099    8.9434   52.3367 O   0  0  0  0  0  0  0  0  0  0  0  0
   19.9707    6.9184   52.7264 O   0  0  0  0  0  0  0  0  0  0  0  0
   21.0106    6.1325   52.9483 C   0  0  0  0  0  0  0  0  0  0  0  0
   20.7853    4.7720   53.1341 C   0  0  0  0  0  0  0  0  0  0  0  0
   21.5171   10.1464   52.3701 C   0  0  0  0  0  0  0  0  0  0  0  0
   21.5243   10.6205   51.0919 C   0  0  0  0  0  0  0  0  0  0  0  0
   21.6263   11.9654   50.8415 C   0  0  0  0  0  0  0  0  0  0  0  0
   21.7220   12.8395   51.8967 C   0  0  0  0  0  0  0  0  0  0  0  0
   21.7148   12.3600   53.1942 C   0  0  0  0  0  0  0  0  0  0  0  0
   21.6123   11.0136   53.4251 C   0  0  0  0  0  0  0  0  0  0  0  0
   21.6147   10.5740   54.8444 C   0  0  0  0  0  0  0  0  0  0  0  0
   21.8259   14.2118   51.6411 O   0  0  0  0  0  0  0  0  0  0  0  0
   20.7344   14.9359   51.0842 C   0  0  0  0  0  0  0  0  0  0  0  0
   20.1247   14.1383   50.1477 F   0  0  0  0  0  0  0  0  0  0  0  0
   19.8400   15.2614   52.0870 F   0  0  0  0  0  0  0  0  0  0  0  0
   21.1540   16.1250   50.5067 F   0  0  0  0  0  0  0  0  0  0  0  0
   21.5600    2.5411   53.5544 O   0  0  0  0  0  0  0  0  0  0  0  0
   19.3016    2.6214   52.7660 C   0  0  0  0  0  0  0  0  0  0  0  0
   20.5843    1.8235   52.8238 C   0  0  0  0  0  0  0  0  0  0  0  0
   23.8002    8.3990   52.8834 O   0  0  0  0  0  0  0  0  0  0  0  0
   24.7176    8.5900   53.8499 C   0  0  0  0  0  0  0  0  0  0  0  0
   24.4827    9.0596   55.1151 C   0  0  0  0  0  0  0  0  0  0  0  0
   25.4805    9.2399   56.0725 C   0  0  0  0  0  0  0  0  0  0  0  0
   26.8042    8.9378   55.7677 C   0  0  0  0  0  0  0  0  0  0  0  0
   27.0669    8.4642   54.5038 C   0  0  0  0  0  0  0  0  0  0  0  0
   26.0660    8.2948   53.5766 C   0  0  0  0  0  0  0  0  0  0  0  0
   27.8269    9.1336   56.7803 C   0  0  0  0  0  0  0  0  0  0  0  0
   27.5988    9.1209   58.0778 C   0  0  0  0  0  0  0  0  0  0  0  0
   28.7271    9.3331   59.0053 C   0  0  0  0  0  0  0  0  0  0  0  0
   29.1783   10.4750   59.2411 O   0  0  0  0  0  0  0  0  0  0  0  0
   29.3171    8.2600   59.6418 O   0  0  0  0  0  0  0  0  0  0  0  0
   29.2463    8.1032   60.6538 H   0  0  0  0  0  0  0  0  0  0  0  0
 25 26  1  0  0  0
 26 24  1  0  0  0
 24  1  1  0  0  0
  1  2  2  0  0  0
  2  3  1  0  0  0
  3  4  2  0  0  0
  4  5  1  0  0  0
  5 27  1  0  0  0
 27 28  1  0  0  0
 28 29  2  0  0  0
 29 30  1  0  0  0
 30 31  2  0  0  0
 31 34  1  0  0  0
 34 35  2  0  0  0
 35 36  1  0  0  0
 36 37  2  0  0  0
 36 38  1  0  0  0
 31 32  1  0  0  0
 32 33  2  0  0  0
  5  6  2  0  0  0
  6 12  1  0  0  0
 12 13  2  0  0  0
 13 14  1  0  0  0
 14 15  2  0  0  0
 15 19  1  0  0  0
 19 20  1  0  0  0
 20 21  1  0  0  0
 20 22  1  0  0  0
 20 23  1  0  0  0
 15 16  1  0  0  0
 16 17  2  0  0  0
 17 18  1  0  0  0
  6  7  1  0  0  0
  7  8  2  0  0  0
  7  9  1  0  0  0
  9 10  1  0  0  0
 10 11  2  0  0  0
 11  1  1  0  0  0
 10  4  1  0  0  0
 33 28  1  0  0  0
 17 12  1  0  0  0
 38 39  1  0  0  0
M  END
> <minimizedAffinity>
30.48728

> <CNNscore>
0.4340222180

> <CNNaffinity>
6.5853471756

> <CNN_VS>
2.8581869602

> <CNNaffinity_variance>
0.1546572596

$$$$
[H]OC(=O)/C([H])=C(\[H])c1c([H])c([H])c(Oc2c(-c3c([H])c([H])c(OC(F)(F)F)c([H])c3C([H])([H])[H])c(=O)oc3c([H])c(OC([H])([H])C([H])([H])[H])c([H])c([H])c23)c([H])c1[H]


 39 42  0  0  0  0  0  0  0  0999 V2000
   18.8731    5.7842   53.3279 C   0  0  0  0  0  0  0  0  0  0  0  0
   18.7919    7.1498   53.4494 C   0  0  0  0  0  0  0  0  0  0  0  0
   19.9483    7.8595   53.6886 C   0  0  0  0  0  0  0  0  0  0  0  0
   21.1778    7.2431   53.8093 C   0  0  0  0  0  0  0  0  0  0  0  0
   22.3627    7.9597   54.0497 C   0  0  0  0  0  0  0  0  0  0  0  0
   23.5100    7.1983   54.1391 C   0  0  0  0  0  0  0  0  0  0  0  0
   23.5296    5.8115   54.0053 C   0  0  0  0  0  0  0  0  0  0  0  0
   24.6140    5.1579   54.0961 O   0  0  0  0  0  0  0  0  0  0  0  0
   22.4017    5.2066   53.7846 O   0  0  0  0  0  0  0  0  0  0  0  0
   21.2670    5.8785   53.6879 C   0  0  0  0  0  0  0  0  0  0  0  0
   20.0950    5.1684   53.4467 C   0  0  0  0  0  0  0  0  0  0  0  0
   24.7874    7.8254   54.4081 C   0  0  0  0  0  0  0  0  0  0  0  0
   25.8471    7.5600   53.5925 C   0  0  0  0  0  0  0  0  0  0  0  0
   27.0699    8.1397   53.8174 C   0  0  0  0  0  0  0  0  0  0  0  0
   27.2211    8.9973   54.8797 C   0  0  0  0  0  0  0  0  0  0  0  0
   26.1469    9.2675   55.7081 C   0  0  0  0  0  0  0  0  0  0  0  0
   24.9333    8.6793   55.4681 C   0  0  0  0  0  0  0  0  0  0  0  0
   23.8281    9.0153   56.4027 C   0  0  0  0  0  0  0  0  0  0  0  0
   28.4689    9.5889   55.1090 O   0  0  0  0  0  0  0  0  0  0  0  0
   29.6721    8.9188   54.7498 C   0  0  0  0  0  0  0  0  0  0  0  0
   30.0823    8.1696   55.8247 F   0  0  0  0  0  0  0  0  0  0  0  0
   29.4342    8.0997   53.6617 F   0  0  0  0  0  0  0  0  0  0  0  0
   30.6631    9.8156   54.3795 F   0  0  0  0  0  0  0  0  0  0  0  0
   17.7254    5.0625   53.0892 O   0  0  0  0  0  0  0  0  0  0  0  0
   16.3315    3.7271   54.5042 C   0  0  0  0  0  0  0  0  0  0  0  0
   16.5918    5.1028   53.9342 C   0  0  0  0  0  0  0  0  0  0  0  0
   22.2751    9.2954   54.1694 O   0  0  0  0  0  0  0  0  0  0  0  0
   21.9343   10.3215   53.3675 C   0  0  0  0  0  0  0  0  0  0  0  0
   21.4798   10.2321   52.0784 C   0  0  0  0  0  0  0  0  0  0  0  0
   21.1463   11.3372   51.2959 C   0  0  0  0  0  0  0  0  0  0  0  0
   21.2669   12.6227   51.8147 C   0  0  0  0  0  0  0  0  0  0  0  0
   21.7209   12.7401   53.1073 C   0  0  0  0  0  0  0  0  0  0  0  0
   22.0436   11.6353   53.8593 C   0  0  0  0  0  0  0  0  0  0  0  0
   20.9141   13.7589   50.9815 C   0  0  0  0  0  0  0  0  0  0  0  0
   21.0114   13.7747   49.6677 C   0  0  0  0  0  0  0  0  0  0  0  0
   20.6198   14.9947   48.9352 C   0  0  0  0  0  0  0  0  0  0  0  0
   20.6624   16.1243   49.4694 O   0  0  0  0  0  0  0  0  0  0  0  0
   20.1921   14.9140   47.6256 O   0  0  0  0  0  0  0  0  0  0  0  0
   20.7316   15.2908   46.8377 H   0  0  0  0  0  0  0  0  0  0  0  0
 25 26  1  0  0  0
 26 24  1  0  0  0
 24  1  1  0  0  0
  1  2  2  0  0  0
  2  3  1  0  0  0
  3  4  2  0  0  0
  4  5  1  0  0  0
  5 27  1  0  0  0
 27 28  1  0  0  0
 28 29  2  0  0  0
 29 30  1  0  0  0
 30 31  2  0  0  0
 31 34  1  0  0  0
 34 35  2  0  0  0
 35 36  1  0  0  0
 36 37  2  0  0  0
 36 38  1  0  0  0
 31 32  1  0  0  0
 32 33  2  0  0  0
  5  6  2  0  0  0
  6 12  1  0  0  0
 12 13  2  0  0  0
 13 14  1  0  0  0
 14 15  2  0  0  0
 15 19  1  0  0  0
 19 20  1  0  0  0
 20 21  1  0  0  0
 20 22  1  0  0  0
 20 23  1  0  0  0
 15 16  1  0  0  0
 16 17  2  0  0  0
 17 18  1  0  0  0
  6  7  1  0  0  0
  7  8  2  0  0  0
  7  9  1  0  0  0
  9 10  1  0  0  0
 10 11  2  0  0  0
 11  1  1  0  0  0
 10  4  1  0  0  0
 33 28  1  0  0  0
 17 12  1  0  0  0
 38 39  1  0  0  0
M  END
> <minimizedAffinity>
40.18682

> <CNNscore>
0.4002281427

> <CNNaffinity>
6.4132676125

> <CNN_VS>
2.5667700768

> <CNNaffinity_variance>
0.4642214775

$$$$
[H]OC(=O)/C([H])=C(\[H])c1c([H])c([H])c(Oc2c(-c3c([H])c([H])c(OC(F)(F)F)c([H])c3C([H])([H])[H])c(=O)oc3c([H])c(OC([H])([H])C([H])([H])[H])c([H])c([H])c23)c([H])c1[H]


 39 42  0  0  0  0  0  0  0  0999 V2000
   19.1448    4.8675   53.2675 C   0  0  0  0  0  0  0  0  0  0  0  0
   18.8595    6.1862   53.5241 C   0  0  0  0  0  0  0  0  0  0  0  0
   19.8968    7.0339   53.8455 C   0  0  0  0  0  0  0  0  0  0  0  0
   21.2057    6.6003   53.9171 C   0  0  0  0  0  0  0  0  0  0  0  0
   22.2703    7.4589   54.2407 C   0  0  0  0  0  0  0  0  0  0  0  0
   23.5195    6.8736   54.2658 C   0  0  0  0  0  0  0  0  0  0  0  0
   23.7471    5.5260   53.9942 C   0  0  0  0  0  0  0  0  0  0  0  0
   24.9179    5.0370   54.0307 O   0  0  0  0  0  0  0  0  0  0  0  0
   22.7222    4.7837   53.7019 O   0  0  0  0  0  0  0  0  0  0  0  0
   21.4988    5.2838   53.6608 C   0  0  0  0  0  0  0  0  0  0  0  0
   20.4460    4.4334   53.3372 C   0  0  0  0  0  0  0  0  0  0  0  0
   24.6891    7.6552   54.6098 C   0  0  0  0  0  0  0  0  0  0  0  0
   25.8736    7.3950   53.9871 C   0  0  0  0  0  0  0  0  0  0  0  0
   26.9996    8.1188   54.2874 C   0  0  0  0  0  0  0  0  0  0  0  0
   26.9252    9.1167   55.2284 C   0  0  0  0  0  0  0  0  0  0  0  0
   25.7240    9.3819   55.8610 C   0  0  0  0  0  0  0  0  0  0  0  0
   24.6100    8.6487   55.5484 C   0  0  0  0  0  0  0  0  0  0  0  0
   23.3576    8.9893   56.2717 C   0  0  0  0  0  0  0  0  0  0  0  0
   28.0742    9.8553   55.5346 O   0  0  0  0  0  0  0  0  0  0  0  0
   28.2739   10.3880   56.8393 C   0  0  0  0  0  0  0  0  0  0  0  0
   29.5204   10.9620   56.8813 F   0  0  0  0  0  0  0  0  0  0  0  0
   27.3036   11.3375   57.1010 F   0  0  0  0  0  0  0  0  0  0  0  0
   28.1608    9.4066   57.8127 F   0  0  0  0  0  0  0  0  0  0  0  0
   18.1178    4.0091   52.9456 O   0  0  0  0  0  0  0  0  0  0  0  0
   16.0678    4.2910   54.1481 C   0  0  0  0  0  0  0  0  0  0  0  0
   17.2735    3.4108   53.9098 C   0  0  0  0  0  0  0  0  0  0  0  0
   21.9830    8.7475   54.4924 O   0  0  0  0  0  0  0  0  0  0  0  0
   21.8508    9.8725   53.7651 C   0  0  0  0  0  0  0  0  0  0  0  0
   21.7122   11.1456   54.2512 C   0  0  0  0  0  0  0  0  0  0  0  0
   21.5746   12.2732   53.4424 C   0  0  0  0  0  0  0  0  0  0  0  0
   21.5730   12.1435   52.0569 C   0  0  0  0  0  0  0  0  0  0  0  0
   21.7110   10.8755   51.5431 C   0  0  0  0  0  0  0  0  0  0  0  0
   21.8452    9.7787   52.3611 C   0  0  0  0  0  0  0  0  0  0  0  0
   21.4281   13.3317   51.2342 C   0  0  0  0  0  0  0  0  0  0  0  0
   20.8832   14.4581   51.6465 C   0  0  0  0  0  0  0  0  0  0  0  0
   20.7953   15.5957   50.7103 C   0  0  0  0  0  0  0  0  0  0  0  0
   19.6980   16.1089   50.4008 O   0  0  0  0  0  0  0  0  0  0  0  0
   21.9389   16.1256   50.1482 O   0  0  0  0  0  0  0  0  0  0  0  0
   22.2889   17.0638   50.3737 H   0  0  0  0  0  0  0  0  0  0  0  0
 25 26  1  0  0  0
 26 24  1  0  0  0
 24  1  1  0  0  0
  1  2  2  0  0  0
  2  3  1  0  0  0
  3  4  2  0  0  0
  4  5  1  0  0  0
  5 27  1  0  0  0
 27 28  1  0  0  0
 28 29  2  0  0  0
 29 30  1  0  0  0
 30 31  2  0  0  0
 31 34  1  0  0  0
 34 35  2  0  0  0
 35 36  1  0  0  0
 36 37  2  0  0  0
 36 38  1  0  0  0
 31 32  1  0  0  0
 32 33  2  0  0  0
  5  6  2  0  0  0
  6 12  1  0  0  0
 12 13  2  0  0  0
 13 14  1  0  0  0
 14 15  2  0  0  0
 15 19  1  0  0  0
 19 20  1  0  0  0
 20 21  1  0  0  0
 20 22  1  0  0  0
 20 23  1  0  0  0
 15 16  1  0  0  0
 16 17  2  0  0  0
 17 18  1  0  0  0
  6  7  1  0  0  0
  7  8  2  0  0  0
  7  9  1  0  0  0
  9 10  1  0  0  0
 10 11  2  0  0  0
 11  1  1  0  0  0
 10  4  1  0  0  0
 33 28  1  0  0  0
 17 12  1  0  0  0
 38 39  1  0  0  0
M  END
> <minimizedAffinity>
28.18601

> <CNNscore>
0.3678884804

> <CNNaffinity>
6.4493589401

> <CNN_VS>
2.3726449013

> <CNNaffinity_variance>
0.2961858809

$$$$
[H]OC(=O)/C([H])=C(\[H])c1c([H])c([H])c(Oc2c(-c3c([H])c([H])c(OC(F)(F)F)c([H])c3C([H])([H])[H])c(=O)oc3c([H])c(OC([H])([H])C([H])([H])[H])c([H])c([H])c23)c([H])c1[H]


 39 42  0  0  0  0  0  0  0  0999 V2000
   17.9112    2.4628   53.5133 C   0  0  0  0  0  0  0  0  0  0  0  0
   19.2581    2.3032   53.2974 C   0  0  0  0  0  0  0  0  0  0  0  0
   20.0419    3.4287   53.1672 C   0  0  0  0  0  0  0  0  0  0  0  0
   19.5174    4.7034   53.2463 C   0  0  0  0  0  0  0  0  0  0  0  0
   20.3103    5.8567   53.1181 C   0  0  0  0  0  0  0  0  0  0  0  0
   19.6368    7.0561   53.2264 C   0  0  0  0  0  0  0  0  0  0  0  0
   18.2646    7.1547   53.4477 C   0  0  0  0  0  0  0  0  0  0  0  0
   17.6934    8.2845   53.5399 O   0  0  0  0  0  0  0  0  0  0  0  0
   17.5863    6.0525   53.5570 O   0  0  0  0  0  0  0  0  0  0  0  0
   18.1722    4.8709   53.4630 C   0  0  0  0  0  0  0  0  0  0  0  0
   17.3867    3.7297   53.5932 C   0  0  0  0  0  0  0  0  0  0  0  0
   20.3463    8.3110   53.0876 C   0  0  0  0  0  0  0  0  0  0  0  0
   20.4989    8.8588   51.8486 C   0  0  0  0  0  0  0  0  0  0  0  0
   21.1628   10.0478   51.6826 C   0  0  0  0  0  0  0  0  0  0  0  0
   21.6777   10.6887   52.7830 C   0  0  0  0  0  0  0  0  0  0  0  0
   21.5237   10.1339   54.0408 C   0  0  0  0  0  0  0  0  0  0  0  0
   20.8578    8.9459   54.1874 C   0  0  0  0  0  0  0  0  0  0  0  0
   20.7354    8.4110   55.5682 C   0  0  0  0  0  0  0  0  0  0  0  0
   22.3551   11.9019   52.6135 O   0  0  0  0  0  0  0  0  0  0  0  0
   21.9496   12.8316   51.6150 C   0  0  0  0  0  0  0  0  0  0  0  0
   20.9419   13.6059   52.1346 F   0  0  0  0  0  0  0  0  0  0  0  0
   23.0256   13.6248   51.2621 F   0  0  0  0  0  0  0  0  0  0  0  0
   21.5197   12.1876   50.4644 F   0  0  0  0  0  0  0  0  0  0  0  0
   17.1159    1.3469   53.6449 O   0  0  0  0  0  0  0  0  0  0  0  0
   15.2808    2.7301   52.9758 C   0  0  0  0  0  0  0  0  0  0  0  0
   15.7376    1.3325   53.3272 C   0  0  0  0  0  0  0  0  0  0  0  0
   21.6271    5.6926   52.9050 O   0  0  0  0  0  0  0  0  0  0  0  0
   22.7535    6.3505   53.2375 C   0  0  0  0  0  0  0  0  0  0  0  0
   23.3545    7.3512   52.5207 C   0  0  0  0  0  0  0  0  0  0  0  0
   24.5273    7.9924   52.9183 C   0  0  0  0  0  0  0  0  0  0  0  0
   25.1564    7.6262   54.1043 C   0  0  0  0  0  0  0  0  0  0  0  0
   24.5730    6.6238   54.8429 C   0  0  0  0  0  0  0  0  0  0  0  0
   23.4161    6.0063   54.4302 C   0  0  0  0  0  0  0  0  0  0  0  0
   26.3771    8.3075   54.4984 C   0  0  0  0  0  0  0  0  0  0  0  0
   26.6305    8.7289   55.7206 C   0  0  0  0  0  0  0  0  0  0  0  0
   27.9118    9.4091   55.9924 C   0  0  0  0  0  0  0  0  0  0  0  0
   28.8432    9.4139   55.1583 O   0  0  0  0  0  0  0  0  0  0  0  0
   28.1126   10.0643   57.1903 O   0  0  0  0  0  0  0  0  0  0  0  0
   28.2002   11.0846   57.2609 H   0  0  0  0  0  0  0  0  0  0  0  0
 25 26  1  0  0  0
 26 24  1  0  0  0
 24  1  1  0  0  0
  1  2  2  0  0  0
  2  3  1  0  0  0
  3  4  2  0  0  0
  4  5  1  0  0  0
  5 27  1  0  0  0
 27 28  1  0  0  0
 28 29  2  0  0  0
 29 30  1  0  0  0
 30 31  2  0  0  0
 31 34  1  0  0  0
 34 35  2  0  0  0
 35 36  1  0  0  0
 36 37  2  0  0  0
 36 38  1  0  0  0
 31 32  1  0  0  0
 32 33  2  0  0  0
  5  6  2  0  0  0
  6 12  1  0  0  0
 12 13  2  0  0  0
 13 14  1  0  0  0
 14 15  2  0  0  0
 15 19  1  0  0  0
 19 20  1  0  0  0
 20 21  1  0  0  0
 20 22  1  0  0  0
 20 23  1  0  0  0
 15 16  1  0  0  0
 16 17  2  0  0  0
 17 18  1  0  0  0
  6  7  1  0  0  0
  7  8  2  0  0  0
  7  9  1  0  0  0
  9 10  1  0  0  0
 10 11  2  0  0  0
 11  1  1  0  0  0
 10  4  1  0  0  0
 33 28  1  0  0  0
 17 12  1  0  0  0
 38 39  1  0  0  0
M  END
> <minimizedAffinity>
37.79274

> <CNNscore>
0.3252386153

> <CNNaffinity>
6.6051650047

> <CNN_VS>
2.1482546329

> <CNNaffinity_variance>
0.2776263654

$$$$
[H]OC(=O)/C([H])=C(\[H])c1c([H])c([H])c(Oc2c(-c3c([H])c([H])c(OC(F)(F)F)c([H])c3C([H])([H])[H])c(=O)oc3c([H])c(OC([H])([H])C([H])([H])[H])c([H])c([H])c23)c([H])c1[H]


 39 42  0  0  0  0  0  0  0  0999 V2000
   20.6330    2.2199   53.2567 C   0  0  0  0  0  0  0  0  0  0  0  0
   21.9680    2.5092   53.1142 C   0  0  0  0  0  0  0  0  0  0  0  0
   22.3501    3.8301   53.0293 C   0  0  0  0  0  0  0  0  0  0  0  0
   21.4373    4.8646   53.0824 C   0  0  0  0  0  0  0  0  0  0  0  0
   21.8188    6.2148   53.0000 C   0  0  0  0  0  0  0  0  0  0  0  0
   20.7882    7.1292   53.0741 C   0  0  0  0  0  0  0  0  0  0  0  0
   19.4488    6.7739   53.2205 C   0  0  0  0  0  0  0  0  0  0  0  0
   18.5382    7.6560   53.2838 O   0  0  0  0  0  0  0  0  0  0  0  0
   19.1599    5.5096   53.2903 O   0  0  0  0  0  0  0  0  0  0  0  0
   20.1012    4.5833   53.2259 C   0  0  0  0  0  0  0  0  0  0  0  0
   19.7227    3.2470   53.3107 C   0  0  0  0  0  0  0  0  0  0  0  0
   21.0585    8.5486   52.9768 C   0  0  0  0  0  0  0  0  0  0  0  0
   21.1306    9.1324   51.7469 C   0  0  0  0  0  0  0  0  0  0  0  0
   21.3819   10.4750   51.6196 C   0  0  0  0  0  0  0  0  0  0  0  0
   21.5621   11.2345   52.7499 C   0  0  0  0  0  0  0  0  0  0  0  0
   21.4893   10.6435   53.9985 C   0  0  0  0  0  0  0  0  0  0  0  0
   21.2375    9.3013   54.1062 C   0  0  0  0  0  0  0  0  0  0  0  0
   21.1774    8.7378   55.4797 C   0  0  0  0  0  0  0  0  0  0  0  0
   21.8185   12.6044   52.6200 O   0  0  0  0  0  0  0  0  0  0  0  0
   21.6227   13.2695   51.3769 C   0  0  0  0  0  0  0  0  0  0  0  0
   22.8365   13.7512   50.9532 F   0  0  0  0  0  0  0  0  0  0  0  0
   21.1166   12.3749   50.4522 F   0  0  0  0  0  0  0  0  0  0  0  0
   20.7059   14.3037   51.4918 F   0  0  0  0  0  0  0  0  0  0  0  0
   20.2370    0.9043   53.3424 O   0  0  0  0  0  0  0  0  0  0  0  0
   20.8278    0.0696   55.5063 C   0  0  0  0  0  0  0  0  0  0  0  0
   20.9865   -0.0913   54.0116 C   0  0  0  0  0  0  0  0  0  0  0  0
   23.1267    6.4899   52.8587 O   0  0  0  0  0  0  0  0  0  0  0  0
   24.0761    7.0964   53.5955 C   0  0  0  0  0  0  0  0  0  0  0  0
   24.1837    7.0778   54.9610 C   0  0  0  0  0  0  0  0  0  0  0  0
   25.1920    7.7323   55.6679 C   0  0  0  0  0  0  0  0  0  0  0  0
   26.1652    8.4573   54.9869 C   0  0  0  0  0  0  0  0  0  0  0  0
   26.0800    8.4916   53.6150 C   0  0  0  0  0  0  0  0  0  0  0  0
   25.0763    7.8381   52.9401 C   0  0  0  0  0  0  0  0  0  0  0  0
   27.2057    9.1312   55.7438 C   0  0  0  0  0  0  0  0  0  0  0  0
   27.1860    9.2935   57.0510 C   0  0  0  0  0  0  0  0  0  0  0  0
   28.3075    9.9980   57.7023 C   0  0  0  0  0  0  0  0  0  0  0  0
   28.9325    9.4941   58.6607 O   0  0  0  0  0  0  0  0  0  0  0  0
   28.6964   11.2465   57.2610 O   0  0  0  0  0  0  0  0  0  0  0  0
   29.5946   11.4192   56.7949 H   0  0  0  0  0  0  0  0  0  0  0  0
 25 26  1  0  0  0
 26 24  1  0  0  0
 24  1  1  0  0  0
  1  2  2  0  0  0
  2  3  1  0  0  0
  3  4  2  0  0  0
  4  5  1  0  0  0
  5 27  1  0  0  0
 27 28  1  0  0  0
 28 29  2  0  0  0
 29 30  1  0  0  0
 30 31  2  0  0  0
 31 34  1  0  0  0
 34 35  2  0  0  0
 35 36  1  0  0  0
 36 37  2  0  0  0
 36 38  1  0  0  0
 31 32  1  0  0  0
 32 33  2  0  0  0
  5  6  2  0  0  0
  6 12  1  0  0  0
 12 13  2  0  0  0
 13 14  1  0  0  0
 14 15  2  0  0  0
 15 19  1  0  0  0
 19 20  1  0  0  0
 20 21  1  0  0  0
 20 22  1  0  0  0
 20 23  1  0  0  0
 15 16  1  0  0  0
 16 17  2  0  0  0
 17 18  1  0  0  0
  6  7  1  0  0  0
  7  8  2  0  0  0
  7  9  1  0  0  0
  9 10  1  0  0  0
 10 11  2  0  0  0
 11  1  1  0  0  0
 10  4  1  0  0  0
 33 28  1  0  0  0
 17 12  1  0  0  0
 38 39  1  0  0  0
M  END
> <minimizedAffinity>
37.61213

> <CNNscore>
0.2935058475

> <CNNaffinity>
6.5740303993

> <CNN_VS>
1.9295163155

> <CNNaffinity_variance>
0.2304755747

$$$$
[H]OC(=O)/C([H])=C(\[H])c1c([H])c([H])c(Oc2c(-c3c([H])c([H])c(OC(F)(F)F)c([H])c3C([H])([H])[H])c(=O)oc3c([H])c(OC([H])([H])C([H])([H])[H])c([H])c([H])c23)c([H])c1[H]


 39 42  0  0  0  0  0  0  0  0999 V2000
   21.4840   12.8600   51.6271 C   0  0  0  0  0  0  0  0  0  0  0  0
   20.9041   11.8093   50.9593 C   0  0  0  0  0  0  0  0  0  0  0  0
   21.0534   10.5397   51.4731 C   0  0  0  0  0  0  0  0  0  0  0  0
   21.7640   10.2938   52.6310 C   0  0  0  0  0  0  0  0  0  0  0  0
   21.9182    9.0025   53.1639 C   0  0  0  0  0  0  0  0  0  0  0  0
   22.6520    8.9243   54.3298 C   0  0  0  0  0  0  0  0  0  0  0  0
   23.2163   10.0296   54.9634 C   0  0  0  0  0  0  0  0  0  0  0  0
   23.8831    9.9027   56.0360 O   0  0  0  0  0  0  0  0  0  0  0  0
   23.0389   11.1965   54.4215 O   0  0  0  0  0  0  0  0  0  0  0  0
   22.3455   11.3392   53.3047 C   0  0  0  0  0  0  0  0  0  0  0  0
   22.1908   12.6185   52.7797 C   0  0  0  0  0  0  0  0  0  0  0  0
   22.8968    7.6426   54.9579 C   0  0  0  0  0  0  0  0  0  0  0  0
   22.0335    7.1896   55.9108 C   0  0  0  0  0  0  0  0  0  0  0  0
   22.2346    5.9785   56.5231 C   0  0  0  0  0  0  0  0  0  0  0  0
   23.3217    5.2182   56.1666 C   0  0  0  0  0  0  0  0  0  0  0  0
   24.1985    5.6766   55.1999 C   0  0  0  0  0  0  0  0  0  0  0  0
   23.9817    6.8885   54.5993 C   0  0  0  0  0  0  0  0  0  0  0  0
   24.9680    7.3151   53.5732 C   0  0  0  0  0  0  0  0  0  0  0  0
   23.5268    3.9825   56.7913 O   0  0  0  0  0  0  0  0  0  0  0  0
   23.1665    3.7841   58.1539 C   0  0  0  0  0  0  0  0  0  0  0  0
   22.0675    4.5615   58.4238 F   0  0  0  0  0  0  0  0  0  0  0  0
   22.8681    2.4500   58.3604 F   0  0  0  0  0  0  0  0  0  0  0  0
   24.2094    4.1084   59.0086 F   0  0  0  0  0  0  0  0  0  0  0  0
   21.3432   14.1340   51.1248 O   0  0  0  0  0  0  0  0  0  0  0  0
   19.9587   15.7718   52.1873 C   0  0  0  0  0  0  0  0  0  0  0  0
   20.0994   14.8018   51.0364 C   0  0  0  0  0  0  0  0  0  0  0  0
   21.3496    7.9791   52.5039 O   0  0  0  0  0  0  0  0  0  0  0  0
   20.5036    6.9775   52.8092 C   0  0  0  0  0  0  0  0  0  0  0  0
   20.8063    5.6426   52.8615 C   0  0  0  0  0  0  0  0  0  0  0  0
   19.8804    4.6500   53.1812 C   0  0  0  0  0  0  0  0  0  0  0  0
   18.5627    4.9908   53.4710 C   0  0  0  0  0  0  0  0  0  0  0  0
   18.2328    6.3249   53.4258 C   0  0  0  0  0  0  0  0  0  0  0  0
   19.1635    7.2855   53.1078 C   0  0  0  0  0  0  0  0  0  0  0  0
   17.6155    3.9403   53.8012 C   0  0  0  0  0  0  0  0  0  0  0  0
   16.3258    3.9941   53.5378 C   0  0  0  0  0  0  0  0  0  0  0  0
   15.4676    2.8577   53.9257 C   0  0  0  0  0  0  0  0  0  0  0  0
   14.8648    2.8330   55.0207 O   0  0  0  0  0  0  0  0  0  0  0  0
   15.3097    1.7819   53.0757 O   0  0  0  0  0  0  0  0  0  0  0  0
   14.4221    1.5659   52.6075 H   0  0  0  0  0  0  0  0  0  0  0  0
 25 26  1  0  0  0
 26 24  1  0  0  0
 24  1  1  0  0  0
  1  2  2  0  0  0
  2  3  1  0  0  0
  3  4  2  0  0  0
  4  5  1  0  0  0
  5 27  1  0  0  0
 27 28  1  0  0  0
 28 29  2  0  0  0
 29 30  1  0  0  0
 30 31  2  0  0  0
 31 34  1  0  0  0
 34 35  2  0  0  0
 35 36  1  0  0  0
 36 37  2  0  0  0
 36 38  1  0  0  0
 31 32  1  0  0  0
 32 33  2  0  0  0
  5  6  2  0  0  0
  6 12  1  0  0  0
 12 13  2  0  0  0
 13 14  1  0  0  0
 14 15  2  0  0  0
 15 19  1  0  0  0
 19 20  1  0  0  0
 20 21  1  0  0  0
 20 22  1  0  0  0
 20 23  1  0  0  0
 15 16  1  0  0  0
 16 17  2  0  0  0
 17 18  1  0  0  0
  6  7  1  0  0  0
  7  8  2  0  0  0
  7  9  1  0  0  0
  9 10  1  0  0  0
 10 11  2  0  0  0
 11  1  1  0  0  0
 10  4  1  0  0  0
 33 28  1  0  0  0
 17 12  1  0  0  0
 38 39  1  0  0  0
M  END
> <minimizedAffinity>
38.21496

> <CNNscore>
0.2304184139

> <CNNaffinity>
6.2711858749

> <CNN_VS>
1.4449967146

> <CNNaffinity_variance>
0.4914572835

$$$$
[H]OC(=O)/C([H])=C(\[H])c1c([H])c([H])c(Oc2c(-c3c([H])c([H])c(OC(F)(F)F)c([H])c3C([H])([H])[H])c(=O)oc3c([H])c(OC([H])([H])C([H])([H])[H])c([H])c([H])c23)c([H])c1[H]


 39 42  0  0  0  0  0  0  0  0999 V2000
   24.4187    4.5750   53.8175 C   0  0  0  0  0  0  0  0  0  0  0  0
   23.1428    4.4390   53.3278 C   0  0  0  0  0  0  0  0  0  0  0  0
   22.3475    5.5606   53.2418 C   0  0  0  0  0  0  0  0  0  0  0  0
   22.7916    6.8087   53.6308 C   0  0  0  0  0  0  0  0  0  0  0  0
   21.9883    7.9586   53.5431 C   0  0  0  0  0  0  0  0  0  0  0  0
   22.5800    9.1309   53.9667 C   0  0  0  0  0  0  0  0  0  0  0  0
   23.8832    9.2065   54.4541 C   0  0  0  0  0  0  0  0  0  0  0  0
   24.3806   10.3118   54.8311 O   0  0  0  0  0  0  0  0  0  0  0  0
   24.5751    8.1088   54.5110 O   0  0  0  0  0  0  0  0  0  0  0  0
   24.0662    6.9527   54.1201 C   0  0  0  0  0  0  0  0  0  0  0  0
   24.8636    5.8154   54.2044 C   0  0  0  0  0  0  0  0  0  0  0  0
   21.8403   10.3757   53.9446 C   0  0  0  0  0  0  0  0  0  0  0  0
   21.3494   10.8821   55.1113 C   0  0  0  0  0  0  0  0  0  0  0  0
   20.6472   12.0604   55.1258 C   0  0  0  0  0  0  0  0  0  0  0  0
   20.4399   12.7331   53.9463 C   0  0  0  0  0  0  0  0  0  0  0  0
   20.9373   12.2205   52.7617 C   0  0  0  0  0  0  0  0  0  0  0  0
   21.6362   11.0424   52.7665 C   0  0  0  0  0  0  0  0  0  0  0  0
   22.1362   10.5533   51.4556 C   0  0  0  0  0  0  0  0  0  0  0  0
   19.7233   13.9356   53.9613 O   0  0  0  0  0  0  0  0  0  0  0  0
   19.8341   14.8653   52.8893 C   0  0  0  0  0  0  0  0  0  0  0  0
   20.3469   14.2045   51.8006 F   0  0  0  0  0  0  0  0  0  0  0  0
   18.5835   15.3741   52.5917 F   0  0  0  0  0  0  0  0  0  0  0  0
   20.6439   15.9390   53.2283 F   0  0  0  0  0  0  0  0  0  0  0  0
   25.2242    3.4625   53.9094 O   0  0  0  0  0  0  0  0  0  0  0  0
   26.3464    1.5909   52.9264 C   0  0  0  0  0  0  0  0  0  0  0  0
   25.0245    2.2923   53.1403 C   0  0  0  0  0  0  0  0  0  0  0  0
   20.7403    7.8173   53.0648 O   0  0  0  0  0  0  0  0  0  0  0  0
   19.7286    6.9456   53.2346 C   0  0  0  0  0  0  0  0  0  0  0  0
   18.4045    7.2558   53.3991 C   0  0  0  0  0  0  0  0  0  0  0  0
   17.4015    6.3031   53.5755 C   0  0  0  0  0  0  0  0  0  0  0  0
   17.7195    4.9485   53.5915 C   0  0  0  0  0  0  0  0  0  0  0  0
   19.0422    4.6102   53.4281 C   0  0  0  0  0  0  0  0  0  0  0  0
   20.0135    5.5678   53.2559 C   0  0  0  0  0  0  0  0  0  0  0  0
   16.6585    3.9739   53.7768 C   0  0  0  0  0  0  0  0  0  0  0  0
   16.4267    2.9650   52.9619 C   0  0  0  0  0  0  0  0  0  0  0  0
   15.3145    2.0425   53.2628 C   0  0  0  0  0  0  0  0  0  0  0  0
   15.5103    0.9293   53.7971 O   0  0  0  0  0  0  0  0  0  0  0  0
   14.0155    2.3938   52.9564 O   0  0  0  0  0  0  0  0  0  0  0  0
   13.3060    2.5878   53.6723 H   0  0  0  0  0  0  0  0  0  0  0  0
 25 26  1  0  0  0
 26 24  1  0  0  0
 24  1  1  0  0  0
  1  2  2  0  0  0
  2  3  1  0  0  0
  3  4  2  0  0  0
  4  5  1  0  0  0
  5 27  1  0  0  0
 27 28  1  0  0  0
 28 29  2  0  0  0
 29 30  1  0  0  0
 30 31  2  0  0  0
 31 34  1  0  0  0
 34 35  2  0  0  0
 35 36  1  0  0  0
 36 37  2  0  0  0
 36 38  1  0  0  0
 31 32  1  0  0  0
 32 33  2  0  0  0
  5  6  2  0  0  0
  6 12  1  0  0  0
 12 13  2  0  0  0
 13 14  1  0  0  0
 14 15  2  0  0  0
 15 19  1  0  0  0
 19 20  1  0  0  0
 20 21  1  0  0  0
 20 22  1  0  0  0
 20 23  1  0  0  0
 15 16  1  0  0  0
 16 17  2  0  0  0
 17 18  1  0  0  0
  6  7  1  0  0  0
  7  8  2  0  0  0
  7  9  1  0  0  0
  9 10  1  0  0  0
 10 11  2  0  0  0
 11  1  1  0  0  0
 10  4  1  0  0  0
 33 28  1  0  0  0
 17 12  1  0  0  0
 38 39  1  0  0  0
M  END
> <minimizedAffinity>
59.16371

> <CNNscore>
0.2172753215

> <CNNaffinity>
6.0394454002

> <CNN_VS>
1.3122224808

> <CNNaffinity_variance>
0.4084692597

$$$$
[H]N=C(c1c([H])c([H])c([H])c(Oc2c([H])c([H])c(N([H])[H])c([H])c2C(=O)N([H])c2c([H])c([H])c(-c3c([H])c([H])c([H])c([H])c3S(=O)(=O)N([H])[H])c([H])c2[H])c1[H])N([H])[H]


 44 47  0  0  0  0  0  0  0  0999 V2000
   20.3235    7.1906   52.0928 C   0  0  0  0  0  0  0  0  0  0  0  0
   19.0049    7.0633   52.5989 C   0  0  0  0  0  0  0  0  0  0  0  0
   18.6788    6.0170   53.4191 C   0  0  0  0  0  0  0  0  0  0  0  0
   19.6583    5.1072   53.7294 C   0  0  0  0  0  0  0  0  0  0  0  0
   19.2937    4.0258   54.5687 N   0  0  0  0  0  0  0  0  0  0  0  0
   20.9350    5.2350   53.2442 C   0  0  0  0  0  0  0  0  0  0  0  0
   21.3033    6.3267   52.3888 C   0  0  0  0  0  0  0  0  0  0  0  0
   19.8732    3.7448   55.3654 H   0  0  0  0  0  0  0  0  0  0  0  0
   18.4193    3.5299   54.3323 H   0  0  0  0  0  0  0  0  0  0  0  0
   22.7714    6.5425   52.2750 C   0  0  0  0  0  0  0  0  0  0  0  0
   23.1993    6.0622   51.1436 O   0  0  0  0  0  0  0  0  0  0  0  0
   23.6150    7.1160   53.1079 N   0  0  0  0  0  0  0  0  0  0  0  0
   24.5262    7.2278   52.0622 H   0  0  0  0  0  0  0  0  0  0  0  0
   24.4986    7.7167   53.9803 C   0  0  0  0  0  0  0  0  0  0  0  0
   25.7599    7.1198   54.2123 C   0  0  0  0  0  0  0  0  0  0  0  0
   26.6463    7.6285   55.1342 C   0  0  0  0  0  0  0  0  0  0  0  0
   26.3429    8.7441   55.8722 C   0  0  0  0  0  0  0  0  0  0  0  0
   25.1292    9.3464   55.6648 C   0  0  0  0  0  0  0  0  0  0  0  0
   24.2297    8.8435   54.7404 C   0  0  0  0  0  0  0  0  0  0  0  0
   27.2266    9.2762   56.8845 C   0  0  0  0  0  0  0  0  0  0  0  0
   26.8438    9.3487   58.2107 C   0  0  0  0  0  0  0  0  0  0  0  0
   27.6602    9.8852   59.1734 C   0  0  0  0  0  0  0  0  0  0  0  0
   28.8987   10.3669   58.8092 C   0  0  0  0  0  0  0  0  0  0  0  0
   29.2958   10.3029   57.5016 C   0  0  0  0  0  0  0  0  0  0  0  0
   28.4636    9.7563   56.5304 C   0  0  0  0  0  0  0  0  0  0  0  0
   29.0465    9.6842   54.9189 S   0  0  0  0  0  0  0  0  0  0  0  0
   29.9397   11.1546   54.5804 N   0  0  0  0  0  0  0  0  0  0  0  0
   27.8807    9.7516   53.9466 O   0  0  0  0  0  0  0  0  0  0  0  0
   29.9401    8.5137   54.6266 O   0  0  0  0  0  0  0  0  0  0  0  0
   29.2965   11.9693   54.4913 H   0  0  0  0  0  0  0  0  0  0  0  0
   30.5976   11.3385   55.3558 H   0  0  0  0  0  0  0  0  0  0  0  0
   20.5332    8.2934   51.2311 O   0  0  0  0  0  0  0  0  0  0  0  0
   21.3557   10.3077   54.1748 C   0  0  0  0  0  0  0  0  0  0  0  0
   21.8003   11.4871   53.6146 C   0  0  0  0  0  0  0  0  0  0  0  0
   21.8528   11.6732   52.2559 C   0  0  0  0  0  0  0  0  0  0  0  0
   21.4302   10.6007   51.4527 C   0  0  0  0  0  0  0  0  0  0  0  0
   20.9867    9.4318   51.9400 C   0  0  0  0  0  0  0  0  0  0  0  0
   20.9518    9.2856   53.3555 C   0  0  0  0  0  0  0  0  0  0  0  0
   22.2733    9.7736   56.3513 N   0  0  0  0  0  0  0  0  0  0  0  0
   21.2953   10.1334   55.6315 C   0  0  0  0  0  0  0  0  0  0  0  0
   20.0528   10.3679   56.2776 N   0  0  0  0  0  0  0  0  0  0  0  0
   23.2347    9.5572   56.0945 H   0  0  0  0  0  0  0  0  0  0  0  0
   19.6056    9.5231   56.7183 H   0  0  0  0  0  0  0  0  0  0  0  0
   19.5564   11.2599   56.3559 H   0  0  0  0  0  0  0  0  0  0  0  0
 39 40  2  0  0  0
 40 41  1  0  0  0
 40 33  1  0  0  0
 33 34  2  0  0  0
 34 35  1  0  0  0
 35 36  2  0  0  0
 36 37  1  0  0  0
 37 32  1  0  0  0
 32  1  1  0  0  0
  1  2  2  0  0  0
  2  3  1  0  0  0
  3  4  2  0  0  0
  4  5  1  0  0  0
  4  6  1  0  0  0
  6  7  2  0  0  0
  7 10  1  0  0  0
 10 11  2  0  0  0
 10 12  1  0  0  0
 12 14  1  0  0  0
 14 15  2  0  0  0
 15 16  1  0  0  0
 16 17  2  0  0  0
 17 20  1  0  0  0
 20 21  2  0  0  0
 21 22  1  0  0  0
 22 23  2  0  0  0
 23 24  1  0  0  0
 24 25  2  0  0  0
 25 26  1  0  0  0
 26 27  1  0  0  0
 26 28  2  0  0  0
 26 29  2  0  0  0
 17 18  1  0  0  0
 18 19  2  0  0  0
 37 38  2  0  0  0
 38 33  1  0  0  0
  7  1  1  0  0  0
 19 14  1  0  0  0
 25 20  1  0  0  0
 39 42  1  0  0  0
 41 43  1  0  0  0
 41 44  1  0  0  0
  5  8  1  0  0  0
  5  9  1  0  0  0
 12 13  1  0  0  0
 27 30  1  0  0  0
 27 31  1  0  0  0
M  END
> <minimizedAffinity>
34.64283

> <CNNscore>
0.4247137904

> <CNNaffinity>
6.2427649498

> <CNN_VS>
2.6513884068

> <CNNaffinity_variance>
0.4893403649

$$$$
[H]N=C(c1c([H])c([H])c([H])c(Oc2c([H])c([H])c(N([H])[H])c([H])c2C(=O)N([H])c2c([H])c([H])c(-c3c([H])c([H])c([H])c([H])c3S(=O)(=O)N([H])[H])c([H])c2[H])c1[H])N([H])[H]


 44 47  0  0  0  0  0  0  0  0999 V2000
   22.0454    7.5311   52.2939 C   0  0  0  0  0  0  0  0  0  0  0  0
   20.6279    7.4920   52.3101 C   0  0  0  0  0  0  0  0  0  0  0  0
   19.9736    6.4098   52.8343 C   0  0  0  0  0  0  0  0  0  0  0  0
   20.7265    5.3776   53.3355 C   0  0  0  0  0  0  0  0  0  0  0  0
   20.0274    4.2629   53.8601 N   0  0  0  0  0  0  0  0  0  0  0  0
   22.0976    5.4196   53.3248 C   0  0  0  0  0  0  0  0  0  0  0  0
   22.8064    6.5457   52.7876 C   0  0  0  0  0  0  0  0  0  0  0  0
   20.2786    3.8469   54.7620 H   0  0  0  0  0  0  0  0  0  0  0  0
   19.2577    3.8856   53.2843 H   0  0  0  0  0  0  0  0  0  0  0  0
   24.2348    6.6187   53.1990 C   0  0  0  0  0  0  0  0  0  0  0  0
   24.9061    5.6623   52.6257 O   0  0  0  0  0  0  0  0  0  0  0  0
   24.8482    7.4648   54.0003 N   0  0  0  0  0  0  0  0  0  0  0  0
   26.0619    7.0527   53.4587 H   0  0  0  0  0  0  0  0  0  0  0  0
   25.4907    8.3510   54.8396 C   0  0  0  0  0  0  0  0  0  0  0  0
   26.9047    8.3866   54.8615 C   0  0  0  0  0  0  0  0  0  0  0  0
   27.5981    9.1896   55.7382 C   0  0  0  0  0  0  0  0  0  0  0  0
   26.9435    9.9958   56.6341 C   0  0  0  0  0  0  0  0  0  0  0  0
   25.5728    9.9855   56.6321 C   0  0  0  0  0  0  0  0  0  0  0  0
   24.8648    9.1816   55.7551 C   0  0  0  0  0  0  0  0  0  0  0  0
   27.6377   10.8130   57.6032 C   0  0  0  0  0  0  0  0  0  0  0  0
   27.5887   12.1933   57.5505 C   0  0  0  0  0  0  0  0  0  0  0  0
   28.2730   12.9785   58.4429 C   0  0  0  0  0  0  0  0  0  0  0  0
   29.0325   12.3748   59.4213 C   0  0  0  0  0  0  0  0  0  0  0  0
   29.0925   11.0098   59.4903 C   0  0  0  0  0  0  0  0  0  0  0  0
   28.3950   10.2193   58.5830 C   0  0  0  0  0  0  0  0  0  0  0  0
   28.4967    8.5158   58.7551 S   0  0  0  0  0  0  0  0  0  0  0  0
   29.5173    8.1525   60.1340 N   0  0  0  0  0  0  0  0  0  0  0  0
   29.2664    7.9256   57.5854 O   0  0  0  0  0  0  0  0  0  0  0  0
   27.1784    7.8250   58.9513 O   0  0  0  0  0  0  0  0  0  0  0  0
   30.5160    8.3612   59.9237 H   0  0  0  0  0  0  0  0  0  0  0  0
   29.2222    8.7322   60.9370 H   0  0  0  0  0  0  0  0  0  0  0  0
   22.6085    8.6852   51.6993 O   0  0  0  0  0  0  0  0  0  0  0  0
   21.4049   10.7849   54.4456 C   0  0  0  0  0  0  0  0  0  0  0  0
   21.2236   12.0060   53.8302 C   0  0  0  0  0  0  0  0  0  0  0  0
   21.4885   12.1958   52.4971 C   0  0  0  0  0  0  0  0  0  0  0  0
   21.9565   11.0823   51.7793 C   0  0  0  0  0  0  0  0  0  0  0  0
   22.1503    9.8708   52.3227 C   0  0  0  0  0  0  0  0  0  0  0  0
   21.8629    9.7234   53.7090 C   0  0  0  0  0  0  0  0  0  0  0  0
   20.0672   11.0442   56.4475 N   0  0  0  0  0  0  0  0  0  0  0  0
   21.1033   10.5996   55.8705 C   0  0  0  0  0  0  0  0  0  0  0  0
   22.0436    9.8876   56.6613 N   0  0  0  0  0  0  0  0  0  0  0  0
   19.2813   11.5724   56.0731 H   0  0  0  0  0  0  0  0  0  0  0  0
   22.5243   10.4511   57.4091 H   0  0  0  0  0  0  0  0  0  0  0  0
   22.2971    8.8991   56.5785 H   0  0  0  0  0  0  0  0  0  0  0  0
 39 40  2  0  0  0
 40 41  1  0  0  0
 40 33  1  0  0  0
 33 34  2  0  0  0
 34 35  1  0  0  0
 35 36  2  0  0  0
 36 37  1  0  0  0
 37 32  1  0  0  0
 32  1  1  0  0  0
  1  2  2  0  0  0
  2  3  1  0  0  0
  3  4  2  0  0  0
  4  5  1  0  0  0
  4  6  1  0  0  0
  6  7  2  0  0  0
  7 10  1  0  0  0
 10 11  2  0  0  0
 10 12  1  0  0  0
 12 14  1  0  0  0
 14 15  2  0  0  0
 15 16  1  0  0  0
 16 17  2  0  0  0
 17 20  1  0  0  0
 20 21  2  0  0  0
 21 22  1  0  0  0
 22 23  2  0  0  0
 23 24  1  0  0  0
 24 25  2  0  0  0
 25 26  1  0  0  0
 26 27  1  0  0  0
 26 28  2  0  0  0
 26 29  2  0  0  0
 17 18  1  0  0  0
 18 19  2  0  0  0
 37 38  2  0  0  0
 38 33  1  0  0  0
  7  1  1  0  0  0
 19 14  1  0  0  0
 25 20  1  0  0  0
 39 42  1  0  0  0
 41 43  1  0  0  0
 41 44  1  0  0  0
  5  8  1  0  0  0
  5  9  1  0  0  0
 12 13  1  0  0  0
 27 30  1  0  0  0
 27 31  1  0  0  0
M  END
> <minimizedAffinity>
27.17485

> <CNNscore>
0.3871281743

> <CNNaffinity>
6.3649644852

> <CNN_VS>
2.4640569687

> <CNNaffinity_variance>
0.2898221910

$$$$
[H]N=C(c1c([H])c([H])c([H])c(Oc2c([H])c([H])c(N([H])[H])c([H])c2C(=O)N([H])c2c([H])c([H])c(-c3c([H])c([H])c([H])c([H])c3S(=O)(=O)N([H])[H])c([H])c2[H])c1[H])N([H])[H]


 44 47  0  0  0  0  0  0  0  0999 V2000
   22.1130    7.7059   52.6211 C   0  0  0  0  0  0  0  0  0  0  0  0
   20.6955    7.6703   52.6013 C   0  0  0  0  0  0  0  0  0  0  0  0
   20.0287    6.5336   52.9719 C   0  0  0  0  0  0  0  0  0  0  0  0
   20.7694    5.4441   53.3566 C   0  0  0  0  0  0  0  0  0  0  0  0
   20.0579    4.2752   53.7225 N   0  0  0  0  0  0  0  0  0  0  0  0
   22.1405    5.4821   53.3812 C   0  0  0  0  0  0  0  0  0  0  0  0
   22.8620    6.6638   53.0044 C   0  0  0  0  0  0  0  0  0  0  0  0
   20.2886    3.7490   54.5706 H   0  0  0  0  0  0  0  0  0  0  0  0
   19.3007    3.9755   53.0874 H   0  0  0  0  0  0  0  0  0  0  0  0
   24.2810    6.6796   53.4528 C   0  0  0  0  0  0  0  0  0  0  0  0
   24.9197    5.6768   52.9235 O   0  0  0  0  0  0  0  0  0  0  0  0
   24.9137    7.5172   54.2480 N   0  0  0  0  0  0  0  0  0  0  0  0
   26.1197    7.0326   53.7510 H   0  0  0  0  0  0  0  0  0  0  0  0
   25.5764    8.3946   55.0810 C   0  0  0  0  0  0  0  0  0  0  0  0
   26.9907    8.3935   55.1074 C   0  0  0  0  0  0  0  0  0  0  0  0
   27.7020    9.1867   55.9787 C   0  0  0  0  0  0  0  0  0  0  0  0
   27.0658   10.0183   56.8646 C   0  0  0  0  0  0  0  0  0  0  0  0
   25.6953   10.0436   56.8579 C   0  0  0  0  0  0  0  0  0  0  0  0
   24.9694    9.2500   55.9862 C   0  0  0  0  0  0  0  0  0  0  0  0
   27.7779   10.8265   57.8282 C   0  0  0  0  0  0  0  0  0  0  0  0
   27.7385   12.2074   57.7814 C   0  0  0  0  0  0  0  0  0  0  0  0
   28.4396   12.9839   58.6683 C   0  0  0  0  0  0  0  0  0  0  0  0
   29.2066   12.3708   59.6349 C   0  0  0  0  0  0  0  0  0  0  0  0
   29.2574   11.0051   59.6979 C   0  0  0  0  0  0  0  0  0  0  0  0
   28.5428   10.2234   58.7962 C   0  0  0  0  0  0  0  0  0  0  0  0
   28.6341    8.5185   58.9605 S   0  0  0  0  0  0  0  0  0  0  0  0
   29.6064    8.1432   60.3706 N   0  0  0  0  0  0  0  0  0  0  0  0
   29.4412    7.9336   57.8135 O   0  0  0  0  0  0  0  0  0  0  0  0
   27.3079    7.8303   59.1074 O   0  0  0  0  0  0  0  0  0  0  0  0
   30.6123    8.3504   60.1956 H   0  0  0  0  0  0  0  0  0  0  0  0
   29.2859    8.7186   61.1670 H   0  0  0  0  0  0  0  0  0  0  0  0
   22.6901    8.9231   52.1878 O   0  0  0  0  0  0  0  0  0  0  0  0
   21.4299   12.3449   52.5092 C   0  0  0  0  0  0  0  0  0  0  0  0
   21.0222   12.3902   53.8261 C   0  0  0  0  0  0  0  0  0  0  0  0
   21.1386   11.3078   54.6618 C   0  0  0  0  0  0  0  0  0  0  0  0
   21.6962   10.1407   54.1131 C   0  0  0  0  0  0  0  0  0  0  0  0
   22.1118   10.0378   52.8415 C   0  0  0  0  0  0  0  0  0  0  0  0
   21.9695   11.1865   52.0130 C   0  0  0  0  0  0  0  0  0  0  0  0
   22.0825   13.7727   50.6654 N   0  0  0  0  0  0  0  0  0  0  0  0
   21.3085   13.5182   51.6350 C   0  0  0  0  0  0  0  0  0  0  0  0
   20.2625   14.4406   51.9027 N   0  0  0  0  0  0  0  0  0  0  0  0
   22.8822   13.2533   50.3082 H   0  0  0  0  0  0  0  0  0  0  0  0
   20.5719   15.3981   52.2113 H   0  0  0  0  0  0  0  0  0  0  0  0
   19.2556   14.2710   51.8279 H   0  0  0  0  0  0  0  0  0  0  0  0
 39 40  2  0  0  0
 40 41  1  0  0  0
 40 33  1  0  0  0
 33 34  2  0  0  0
 34 35  1  0  0  0
 35 36  2  0  0  0
 36 37  1  0  0  0
 37 32  1  0  0  0
 32  1  1  0  0  0
  1  2  2  0  0  0
  2  3  1  0  0  0
  3  4  2  0  0  0
  4  5  1  0  0  0
  4  6  1  0  0  0
  6  7  2  0  0  0
  7 10  1  0  0  0
 10 11  2  0  0  0
 10 12  1  0  0  0
 12 14  1  0  0  0
 14 15  2  0  0  0
 15 16  1  0  0  0
 16 17  2  0  0  0
 17 20  1  0  0  0
 20 21  2  0  0  0
 21 22  1  0  0  0
 22 23  2  0  0  0
 23 24  1  0  0  0
 24 25  2  0  0  0
 25 26  1  0  0  0
 26 27  1  0  0  0
 26 28  2  0  0  0
 26 29  2  0  0  0
 17 18  1  0  0  0
 18 19  2  0  0  0
 37 38  2  0  0  0
 38 33  1  0  0  0
  7  1  1  0  0  0
 19 14  1  0  0  0
 25 20  1  0  0  0
 39 42  1  0  0  0
 41 43  1  0  0  0
 41 44  1  0  0  0
  5  8  1  0  0  0
  5  9  1  0  0  0
 12 13  1  0  0  0
 27 30  1  0  0  0
 27 31  1  0  0  0
M  END
> <minimizedAffinity>
26.06386

> <CNNscore>
0.3647833765

> <CNNaffinity>
6.2550363541

> <CNN_VS>
2.2817332745

> <CNNaffinity_variance>
0.3254448771

$$$$
[H]N=C(c1c([H])c([H])c([H])c(Oc2c([H])c([H])c(N([H])[H])c([H])c2C(=O)N([H])c2c([H])c([H])c(-c3c([H])c([H])c([H])c([H])c3S(=O)(=O)N([H])[H])c([H])c2[H])c1[H])N([H])[H]


 44 47  0  0  0  0  0  0  0  0999 V2000
   27.9668    9.4981   52.4358 C   0  0  0  0  0  0  0  0  0  0  0  0
   28.7802   10.6087   52.0955 C   0  0  0  0  0  0  0  0  0  0  0  0
   29.4296   11.3135   53.0730 C   0  0  0  0  0  0  0  0  0  0  0  0
   29.2674   10.9144   54.3760 C   0  0  0  0  0  0  0  0  0  0  0  0
   29.9381   11.6671   55.3710 N   0  0  0  0  0  0  0  0  0  0  0  0
   28.4851    9.8360   54.7032 C   0  0  0  0  0  0  0  0  0  0  0  0
   27.8002    9.0770   53.6963 C   0  0  0  0  0  0  0  0  0  0  0  0
   30.4703   11.2142   56.1201 H   0  0  0  0  0  0  0  0  0  0  0  0
   29.8569   12.6947   55.3083 H   0  0  0  0  0  0  0  0  0  0  0  0
   27.3321    7.7407   54.1544 C   0  0  0  0  0  0  0  0  0  0  0  0
   28.3250    7.0846   54.6812 O   0  0  0  0  0  0  0  0  0  0  0  0
   26.1360    7.1924   54.0997 N   0  0  0  0  0  0  0  0  0  0  0  0
   26.5486    6.2665   55.0530 H   0  0  0  0  0  0  0  0  0  0  0  0
   24.8831    6.6181   54.0423 C   0  0  0  0  0  0  0  0  0  0  0  0
   24.3792    6.1729   52.7978 C   0  0  0  0  0  0  0  0  0  0  0  0
   23.1046    5.6702   52.6676 C   0  0  0  0  0  0  0  0  0  0  0  0
   22.2626    5.5781   53.7463 C   0  0  0  0  0  0  0  0  0  0  0  0
   22.7261    5.9978   54.9662 C   0  0  0  0  0  0  0  0  0  0  0  0
   24.0061    6.5054   55.1091 C   0  0  0  0  0  0  0  0  0  0  0  0
   20.9017    5.1039   53.6380 C   0  0  0  0  0  0  0  0  0  0  0  0
   20.5721    3.7890   53.9080 C   0  0  0  0  0  0  0  0  0  0  0  0
   19.2904    3.3196   53.7733 C   0  0  0  0  0  0  0  0  0  0  0  0
   18.3011    4.1832   53.3561 C   0  0  0  0  0  0  0  0  0  0  0  0
   18.6076    5.4887   53.0851 C   0  0  0  0  0  0  0  0  0  0  0  0
   19.9092    5.9586   53.2252 C   0  0  0  0  0  0  0  0  0  0  0  0
   20.2064    7.6154   52.8959 S   0  0  0  0  0  0  0  0  0  0  0  0
   19.4578    8.0248   51.3640 N   0  0  0  0  0  0  0  0  0  0  0  0
   21.6871    7.8295   52.6297 O   0  0  0  0  0  0  0  0  0  0  0  0
   19.6918    8.5647   53.9389 O   0  0  0  0  0  0  0  0  0  0  0  0
   19.9786    7.5982   50.5689 H   0  0  0  0  0  0  0  0  0  0  0  0
   18.4888    7.6657   51.3528 H   0  0  0  0  0  0  0  0  0  0  0  0
   27.3219    8.8682   51.3450 O   0  0  0  0  0  0  0  0  0  0  0  0
   27.8200   11.3141   48.6675 C   0  0  0  0  0  0  0  0  0  0  0  0
   28.5663   10.6042   47.7500 C   0  0  0  0  0  0  0  0  0  0  0  0
   28.9397    9.3016   47.9671 C   0  0  0  0  0  0  0  0  0  0  0  0
   28.5253    8.7167   49.1755 C   0  0  0  0  0  0  0  0  0  0  0  0
   27.7975    9.3561   50.1040 C   0  0  0  0  0  0  0  0  0  0  0  0
   27.4355   10.7060   49.8343 C   0  0  0  0  0  0  0  0  0  0  0  0
   26.5533   13.3356   49.0832 N   0  0  0  0  0  0  0  0  0  0  0  0
   27.4200   12.7031   48.4102 C   0  0  0  0  0  0  0  0  0  0  0  0
   28.0332   13.3806   47.3233 N   0  0  0  0  0  0  0  0  0  0  0  0
   26.0026   13.0422   49.8879 H   0  0  0  0  0  0  0  0  0  0  0  0
   27.3910   13.6362   46.5294 H   0  0  0  0  0  0  0  0  0  0  0  0
   29.0196   13.6402   47.2350 H   0  0  0  0  0  0  0  0  0  0  0  0
 39 40  2  0  0  0
 40 41  1  0  0  0
 40 33  1  0  0  0
 33 34  2  0  0  0
 34 35  1  0  0  0
 35 36  2  0  0  0
 36 37  1  0  0  0
 37 32  1  0  0  0
 32  1  1  0  0  0
  1  2  2  0  0  0
  2  3  1  0  0  0
  3  4  2  0  0  0
  4  5  1  0  0  0
  4  6  1  0  0  0
  6  7  2  0  0  0
  7 10  1  0  0  0
 10 11  2  0  0  0
 10 12  1  0  0  0
 12 14  1  0  0  0
 14 15  2  0  0  0
 15 16  1  0  0  0
 16 17  2  0  0  0
 17 20  1  0  0  0
 20 21  2  0  0  0
 21 22  1  0  0  0
 22 23  2  0  0  0
 23 24  1  0  0  0
 24 25  2  0  0  0
 25 26  1  0  0  0
 26 27  1  0  0  0
 26 28  2  0  0  0
 26 29  2  0  0  0
 17 18  1  0  0  0
 18 19  2  0  0  0
 37 38  2  0  0  0
 38 33  1  0  0  0
  7  1  1  0  0  0
 19 14  1  0  0  0
 25 20  1  0  0  0
 39 42  1  0  0  0
 41 43  1  0  0  0
 41 44  1  0  0  0
  5  8  1  0  0  0
  5  9  1  0  0  0
 12 13  1  0  0  0
 27 30  1  0  0  0
 27 31  1  0  0  0
M  END
> <minimizedAffinity>
53.04554

> <CNNscore>
0.3568117321

> <CNNaffinity>
5.8688397408

> <CNN_VS>
2.0940709114

> <CNNaffinity_variance>
0.4998839498

$$$$
[H]N=C(c1c([H])c([H])c([H])c(Oc2c([H])c([H])c(N([H])[H])c([H])c2C(=O)N([H])c2c([H])c([H])c(-c3c([H])c([H])c([H])c([H])c3S(=O)(=O)N([H])[H])c([H])c2[H])c1[H])N([H])[H]


 44 47  0  0  0  0  0  0  0  0999 V2000
   18.3079    5.5490   54.0812 C   0  0  0  0  0  0  0  0  0  0  0  0
   16.9318    5.5714   54.4229 C   0  0  0  0  0  0  0  0  0  0  0  0
   16.1144    4.5343   54.0621 C   0  0  0  0  0  0  0  0  0  0  0  0
   16.6649    3.4870   53.3666 C   0  0  0  0  0  0  0  0  0  0  0  0
   15.7968    2.4321   52.9925 N   0  0  0  0  0  0  0  0  0  0  0  0
   17.9976    3.4637   53.0423 C   0  0  0  0  0  0  0  0  0  0  0  0
   18.8761    4.5352   53.4154 C   0  0  0  0  0  0  0  0  0  0  0  0
   16.0522    1.4501   53.1341 H   0  0  0  0  0  0  0  0  0  0  0  0
   14.8976    2.7020   52.5624 H   0  0  0  0  0  0  0  0  0  0  0  0
   20.3219    4.1890   53.3466 C   0  0  0  0  0  0  0  0  0  0  0  0
   20.4602    2.9600   52.9413 O   0  0  0  0  0  0  0  0  0  0  0  0
   21.3857    4.9161   53.6184 N   0  0  0  0  0  0  0  0  0  0  0  0
   22.1569    4.0006   52.9090 H   0  0  0  0  0  0  0  0  0  0  0  0
   22.4999    5.6778   53.9031 C   0  0  0  0  0  0  0  0  0  0  0  0
   23.0761    6.4736   52.8853 C   0  0  0  0  0  0  0  0  0  0  0  0
   24.2354    7.1869   53.0891 C   0  0  0  0  0  0  0  0  0  0  0  0
   24.8861    7.1570   54.2961 C   0  0  0  0  0  0  0  0  0  0  0  0
   24.3477    6.3979   55.3025 C   0  0  0  0  0  0  0  0  0  0  0  0
   23.1823    5.6760   55.1089 C   0  0  0  0  0  0  0  0  0  0  0  0
   26.1317    7.8515   54.5305 C   0  0  0  0  0  0  0  0  0  0  0  0
   27.3262    7.3848   54.0150 C   0  0  0  0  0  0  0  0  0  0  0  0
   28.5188    8.0156   54.2615 C   0  0  0  0  0  0  0  0  0  0  0  0
   28.5281    9.1480   55.0464 C   0  0  0  0  0  0  0  0  0  0  0  0
   27.3557    9.6260   55.5648 C   0  0  0  0  0  0  0  0  0  0  0  0
   26.1494    8.9823   55.3098 C   0  0  0  0  0  0  0  0  0  0  0  0
   24.7195    9.6613   55.9702 S   0  0  0  0  0  0  0  0  0  0  0  0
   24.5887    9.1681   57.6479 N   0  0  0  0  0  0  0  0  0  0  0  0
   23.5010    9.0248   55.3228 O   0  0  0  0  0  0  0  0  0  0  0  0
   24.6527   11.1600   55.9144 O   0  0  0  0  0  0  0  0  0  0  0  0
   24.3459    8.1577   57.7215 H   0  0  0  0  0  0  0  0  0  0  0  0
   25.4952    9.3235   58.1192 H   0  0  0  0  0  0  0  0  0  0  0  0
   19.0453    6.6892   54.4797 O   0  0  0  0  0  0  0  0  0  0  0  0
   20.9223    9.2968   52.7257 C   0  0  0  0  0  0  0  0  0  0  0  0
   20.9477    8.8256   51.4296 C   0  0  0  0  0  0  0  0  0  0  0  0
   20.3571    7.6387   51.0749 C   0  0  0  0  0  0  0  0  0  0  0  0
   19.7195    6.9175   52.0983 C   0  0  0  0  0  0  0  0  0  0  0  0
   19.6609    7.3258   53.3751 C   0  0  0  0  0  0  0  0  0  0  0  0
   20.2891    8.5625   53.6947 C   0  0  0  0  0  0  0  0  0  0  0  0
   21.8970   10.9010   54.2557 N   0  0  0  0  0  0  0  0  0  0  0  0
   21.5494   10.5757   53.0820 C   0  0  0  0  0  0  0  0  0  0  0  0
   21.7675   11.5204   52.0446 N   0  0  0  0  0  0  0  0  0  0  0  0
   21.8308   10.3818   55.1292 H   0  0  0  0  0  0  0  0  0  0  0  0
   21.2110   12.4107   52.1193 H   0  0  0  0  0  0  0  0  0  0  0  0
   22.3997   11.4244   51.2450 H   0  0  0  0  0  0  0  0  0  0  0  0
 39 40  2  0  0  0
 40 41  1  0  0  0
 40 33  1  0  0  0
 33 34  2  0  0  0
 34 35  1  0  0  0
 35 36  2  0  0  0
 36 37  1  0  0  0
 37 32  1  0  0  0
 32  1  1  0  0  0
  1  2  2  0  0  0
  2  3  1  0  0  0
  3  4  2  0  0  0
  4  5  1  0  0  0
  4  6  1  0  0  0
  6  7  2  0  0  0
  7 10  1  0  0  0
 10 11  2  0  0  0
 10 12  1  0  0  0
 12 14  1  0  0  0
 14 15  2  0  0  0
 15 16  1  0  0  0
 16 17  2  0  0  0
 17 20  1  0  0  0
 20 21  2  0  0  0
 21 22  1  0  0  0
 22 23  2  0  0  0
 23 24  1  0  0  0
 24 25  2  0  0  0
 25 26  1  0  0  0
 26 27  1  0  0  0
 26 28  2  0  0  0
 26 29  2  0  0  0
 17 18  1  0  0  0
 18 19  2  0  0  0
 37 38  2  0  0  0
 38 33  1  0  0  0
  7  1  1  0  0  0
 19 14  1  0  0  0
 25 20  1  0  0  0
 39 42  1  0  0  0
 41 43  1  0  0  0
 41 44  1  0  0  0
  5  8  1  0  0  0
  5  9  1  0  0  0
 12 13  1  0  0  0
 27 30  1  0  0  0
 27 31  1  0  0  0
M  END
> <minimizedAffinity>
37.05790

> <CNNscore>
0.3499479592

> <CNNaffinity>
6.4224190712

> <CNN_VS>
2.2475123405

> <CNNaffinity_variance>
0.6576890945

$$$$
[H]N=C(c1c([H])c([H])c([H])c(Oc2c([H])c([H])c(N([H])[H])c([H])c2C(=O)N([H])c2c([H])c([H])c(-c3c([H])c([H])c([H])c([H])c3S(=O)(=O)N([H])[H])c([H])c2[H])c1[H])N([H])[H]


 44 47  0  0  0  0  0  0  0  0999 V2000
   21.9095    7.9852   52.4329 C   0  0  0  0  0  0  0  0  0  0  0  0
   20.5174    7.8827   52.6828 C   0  0  0  0  0  0  0  0  0  0  0  0
   19.9959    6.7380   53.2232 C   0  0  0  0  0  0  0  0  0  0  0  0
   20.8551    5.7068   53.5095 C   0  0  0  0  0  0  0  0  0  0  0  0
   20.2906    4.5278   54.0552 N   0  0  0  0  0  0  0  0  0  0  0  0
   22.2024    5.8097   53.2730 C   0  0  0  0  0  0  0  0  0  0  0  0
   22.7739    7.0014   52.7141 C   0  0  0  0  0  0  0  0  0  0  0  0
   20.7044    4.0598   54.8673 H   0  0  0  0  0  0  0  0  0  0  0  0
   19.4463    4.1591   53.5887 H   0  0  0  0  0  0  0  0  0  0  0  0
   24.2484    7.1076   52.8852 C   0  0  0  0  0  0  0  0  0  0  0  0
   24.8489    6.5439   51.8775 O   0  0  0  0  0  0  0  0  0  0  0  0
   24.9565    7.6601   53.8483 N   0  0  0  0  0  0  0  0  0  0  0  0
   26.0594    7.6564   52.9999 H   0  0  0  0  0  0  0  0  0  0  0  0
   25.6982    8.2388   54.8571 C   0  0  0  0  0  0  0  0  0  0  0  0
   27.1107    8.1881   54.7977 C   0  0  0  0  0  0  0  0  0  0  0  0
   27.8988    8.6738   55.8161 C   0  0  0  0  0  0  0  0  0  0  0  0
   27.3450    9.2321   56.9398 C   0  0  0  0  0  0  0  0  0  0  0  0
   25.9784    9.2989   57.0225 C   0  0  0  0  0  0  0  0  0  0  0  0
   25.1756    8.8134   56.0045 C   0  0  0  0  0  0  0  0  0  0  0  0
   28.1392    9.7054   58.0507 C   0  0  0  0  0  0  0  0  0  0  0  0
   28.6800    8.8317   58.9751 C   0  0  0  0  0  0  0  0  0  0  0  0
   29.4045    9.2724   60.0531 C   0  0  0  0  0  0  0  0  0  0  0  0
   29.5994   10.6261   60.2210 C   0  0  0  0  0  0  0  0  0  0  0  0
   29.0728   11.5065   59.3159 C   0  0  0  0  0  0  0  0  0  0  0  0
   28.3403   11.0528   58.2241 C   0  0  0  0  0  0  0  0  0  0  0  0
   27.7397   12.2177   57.1177 S   0  0  0  0  0  0  0  0  0  0  0  0
   28.7115   12.1580   55.6594 N   0  0  0  0  0  0  0  0  0  0  0  0
   27.9977   13.6164   57.6527 O   0  0  0  0  0  0  0  0  0  0  0  0
   26.3008   12.0330   56.7314 O   0  0  0  0  0  0  0  0  0  0  0  0
   29.6594   12.5565   55.8267 H   0  0  0  0  0  0  0  0  0  0  0  0
   28.8164   11.1741   55.3613 H   0  0  0  0  0  0  0  0  0  0  0  0
   22.3268    9.2024   51.8442 O   0  0  0  0  0  0  0  0  0  0  0  0
   21.3109   12.6769   52.3875 C   0  0  0  0  0  0  0  0  0  0  0  0
   21.0142   12.6939   53.7344 C   0  0  0  0  0  0  0  0  0  0  0  0
   21.1303   11.5743   54.5196 C   0  0  0  0  0  0  0  0  0  0  0  0
   21.5685   10.3991   53.8864 C   0  0  0  0  0  0  0  0  0  0  0  0
   21.8732   10.3224   52.5819 C   0  0  0  0  0  0  0  0  0  0  0  0
   21.7359   11.5094   51.8084 C   0  0  0  0  0  0  0  0  0  0  0  0
   21.9987   14.2130   50.6463 N   0  0  0  0  0  0  0  0  0  0  0  0
   21.1923   13.8892   51.5676 C   0  0  0  0  0  0  0  0  0  0  0  0
   20.1096   14.7684   51.8347 N   0  0  0  0  0  0  0  0  0  0  0  0
   22.8275   13.7339   50.2991 H   0  0  0  0  0  0  0  0  0  0  0  0
   20.3778   15.7171   52.2032 H   0  0  0  0  0  0  0  0  0  0  0  0
   19.1121   14.5757   51.7079 H   0  0  0  0  0  0  0  0  0  0  0  0
 39 40  2  0  0  0
 40 41  1  0  0  0
 40 33  1  0  0  0
 33 34  2  0  0  0
 34 35  1  0  0  0
 35 36  2  0  0  0
 36 37  1  0  0  0
 37 32  1  0  0  0
 32  1  1  0  0  0
  1  2  2  0  0  0
  2  3  1  0  0  0
  3  4  2  0  0  0
  4  5  1  0  0  0
  4  6  1  0  0  0
  6  7  2  0  0  0
  7 10  1  0  0  0
 10 11  2  0  0  0
 10 12  1  0  0  0
 12 14  1  0  0  0
 14 15  2  0  0  0
 15 16  1  0  0  0
 16 17  2  0  0  0
 17 20  1  0  0  0
 20 21  2  0  0  0
 21 22  1  0  0  0
 22 23  2  0  0  0
 23 24  1  0  0  0
 24 25  2  0  0  0
 25 26  1  0  0  0
 26 27  1  0  0  0
 26 28  2  0  0  0
 26 29  2  0  0  0
 17 18  1  0  0  0
 18 19  2  0  0  0
 37 38  2  0  0  0
 38 33  1  0  0  0
  7  1  1  0  0  0
 19 14  1  0  0  0
 25 20  1  0  0  0
 39 42  1  0  0  0
 41 43  1  0  0  0
 41 44  1  0  0  0
  5  8  1  0  0  0
  5  9  1  0  0  0
 12 13  1  0  0  0
 27 30  1  0  0  0
 27 31  1  0  0  0
M  END
> <minimizedAffinity>
29.47871

> <CNNscore>
0.3466624618

> <CNNaffinity>
5.9513087273

> <CNN_VS>
2.0630953312

> <CNNaffinity_variance>
0.7862406969

$$$$
[H]N=C(c1c([H])c([H])c([H])c(Oc2c([H])c([H])c(N([H])[H])c([H])c2C(=O)N([H])c2c([H])c([H])c(-c3c([H])c([H])c([H])c([H])c3S(=O)(=O)N([H])[H])c([H])c2[H])c1[H])N([H])[H]


 44 47  0  0  0  0  0  0  0  0999 V2000
   21.9260   11.9041   52.0550 C   0  0  0  0  0  0  0  0  0  0  0  0
   21.8093   12.8564   51.0108 C   0  0  0  0  0  0  0  0  0  0  0  0
   20.9445   13.9107   51.1321 C   0  0  0  0  0  0  0  0  0  0  0  0
   20.2035   14.0119   52.2828 C   0  0  0  0  0  0  0  0  0  0  0  0
   19.3057   15.1033   52.3796 N   0  0  0  0  0  0  0  0  0  0  0  0
   20.3219   13.0933   53.2947 C   0  0  0  0  0  0  0  0  0  0  0  0
   21.2264   11.9839   53.1945 C   0  0  0  0  0  0  0  0  0  0  0  0
   19.2510   15.6810   53.2239 H   0  0  0  0  0  0  0  0  0  0  0  0
   18.7035   15.2823   51.5600 H   0  0  0  0  0  0  0  0  0  0  0  0
   21.5263   11.3235   54.4940 C   0  0  0  0  0  0  0  0  0  0  0  0
   20.4210   11.1292   55.1530 O   0  0  0  0  0  0  0  0  0  0  0  0
   22.6761   10.9411   55.0097 N   0  0  0  0  0  0  0  0  0  0  0  0
   21.9750   10.1354   55.9016 H   0  0  0  0  0  0  0  0  0  0  0  0
   23.8805   10.5406   55.5499 C   0  0  0  0  0  0  0  0  0  0  0  0
   24.2009    9.1633   55.5885 C   0  0  0  0  0  0  0  0  0  0  0  0
   25.3487    8.7007   56.1908 C   0  0  0  0  0  0  0  0  0  0  0  0
   26.2376    9.5610   56.7831 C   0  0  0  0  0  0  0  0  0  0  0  0
   25.9552   10.9021   56.7567 C   0  0  0  0  0  0  0  0  0  0  0  0
   24.8036   11.3789   56.1540 C   0  0  0  0  0  0  0  0  0  0  0  0
   27.4261    9.1076   57.4691 C   0  0  0  0  0  0  0  0  0  0  0  0
   27.4729    9.0152   58.8474 C   0  0  0  0  0  0  0  0  0  0  0  0
   28.6070    8.6210   59.5103 C   0  0  0  0  0  0  0  0  0  0  0  0
   29.7341    8.3079   58.7821 C   0  0  0  0  0  0  0  0  0  0  0  0
   29.7069    8.3922   57.4169 C   0  0  0  0  0  0  0  0  0  0  0  0
   28.5530    8.7912   56.7507 C   0  0  0  0  0  0  0  0  0  0  0  0
   28.5901    8.8418   55.0367 S   0  0  0  0  0  0  0  0  0  0  0  0
   27.1682    8.0205   54.4215 N   0  0  0  0  0  0  0  0  0  0  0  0
   29.7370    7.9885   54.5214 O   0  0  0  0  0  0  0  0  0  0  0  0
   28.6252   10.2234   54.4502 O   0  0  0  0  0  0  0  0  0  0  0  0
   27.2425    6.9909   54.5621 H   0  0  0  0  0  0  0  0  0  0  0  0
   26.3337    8.3619   54.9266 H   0  0  0  0  0  0  0  0  0  0  0  0
   22.8275   10.8428   51.8032 O   0  0  0  0  0  0  0  0  0  0  0  0
   20.4498    8.0641   51.9609 C   0  0  0  0  0  0  0  0  0  0  0  0
   21.0268    7.2305   52.8961 C   0  0  0  0  0  0  0  0  0  0  0  0
   22.2145    7.5379   53.5111 C   0  0  0  0  0  0  0  0  0  0  0  0
   22.8231    8.7498   53.1437 C   0  0  0  0  0  0  0  0  0  0  0  0
   22.3090    9.6010   52.2428 C   0  0  0  0  0  0  0  0  0  0  0  0
   21.0761    9.2380   51.6309 C   0  0  0  0  0  0  0  0  0  0  0  0
   18.0479    7.7609   51.9063 N   0  0  0  0  0  0  0  0  0  0  0  0
   19.1718    7.7226   51.3237 C   0  0  0  0  0  0  0  0  0  0  0  0
   19.1967    7.3053   49.9667 N   0  0  0  0  0  0  0  0  0  0  0  0
   17.8100    8.0261   52.8603 H   0  0  0  0  0  0  0  0  0  0  0  0
   18.9103    6.3071   49.7952 H   0  0  0  0  0  0  0  0  0  0  0  0
   19.4612    7.8671   49.1527 H   0  0  0  0  0  0  0  0  0  0  0  0
 39 40  2  0  0  0
 40 41  1  0  0  0
 40 33  1  0  0  0
 33 34  2  0  0  0
 34 35  1  0  0  0
 35 36  2  0  0  0
 36 37  1  0  0  0
 37 32  1  0  0  0
 32  1  1  0  0  0
  1  2  2  0  0  0
  2  3  1  0  0  0
  3  4  2  0  0  0
  4  5  1  0  0  0
  4  6  1  0  0  0
  6  7  2  0  0  0
  7 10  1  0  0  0
 10 11  2  0  0  0
 10 12  1  0  0  0
 12 14  1  0  0  0
 14 15  2  0  0  0
 15 16  1  0  0  0
 16 17  2  0  0  0
 17 20  1  0  0  0
 20 21  2  0  0  0
 21 22  1  0  0  0
 22 23  2  0  0  0
 23 24  1  0  0  0
 24 25  2  0  0  0
 25 26  1  0  0  0
 26 27  1  0  0  0
 26 28  2  0  0  0
 26 29  2  0  0  0
 17 18  1  0  0  0
 18 19  2  0  0  0
 37 38  2  0  0  0
 38 33  1  0  0  0
  7  1  1  0  0  0
 19 14  1  0  0  0
 25 20  1  0  0  0
 39 42  1  0  0  0
 41 43  1  0  0  0
 41 44  1  0  0  0
  5  8  1  0  0  0
  5  9  1  0  0  0
 12 13  1  0  0  0
 27 30  1  0  0  0
 27 31  1  0  0  0
M  END
> <minimizedAffinity>
60.10428

> <CNNscore>
0.3401588500

> <CNNaffinity>
5.7173771858

> <CNN_VS>
1.9448164701

> <CNNaffinity_variance>
0.8410065770

$$$$
[H]N=C(c1c([H])c([H])c([H])c(Oc2c([H])c([H])c(N([H])[H])c([H])c2C(=O)N([H])c2c([H])c([H])c(-c3c([H])c([H])c([H])c([H])c3S(=O)(=O)N([H])[H])c([H])c2[H])c1[H])N([H])[H]


 44 47  0  0  0  0  0  0  0  0999 V2000
   19.3947    6.5143   52.7701 C   0  0  0  0  0  0  0  0  0  0  0  0
   18.0389    6.8794   52.9693 C   0  0  0  0  0  0  0  0  0  0  0  0
   17.2000    6.0589   53.6745 C   0  0  0  0  0  0  0  0  0  0  0  0
   17.7092    4.8864   54.1739 C   0  0  0  0  0  0  0  0  0  0  0  0
   16.8189    4.0475   54.8882 N   0  0  0  0  0  0  0  0  0  0  0  0
   19.0224    4.5376   53.9857 C   0  0  0  0  0  0  0  0  0  0  0  0
   19.9231    5.3839   53.2566 C   0  0  0  0  0  0  0  0  0  0  0  0
   17.0784    3.6300   55.7871 H   0  0  0  0  0  0  0  0  0  0  0  0
   15.8988    3.8712   54.4538 H   0  0  0  0  0  0  0  0  0  0  0  0
   21.3620    5.0728   53.4748 C   0  0  0  0  0  0  0  0  0  0  0  0
   21.5898    3.8243   53.1862 O   0  0  0  0  0  0  0  0  0  0  0  0
   22.3476    5.8441   53.8847 N   0  0  0  0  0  0  0  0  0  0  0  0
   23.2486    4.9057   53.3911 H   0  0  0  0  0  0  0  0  0  0  0  0
   23.3799    6.6521   54.3140 C   0  0  0  0  0  0  0  0  0  0  0  0
   24.7049    6.1572   54.2915 C   0  0  0  0  0  0  0  0  0  0  0  0
   25.7618    6.8872   54.7858 C   0  0  0  0  0  0  0  0  0  0  0  0
   25.5747    8.1345   55.3246 C   0  0  0  0  0  0  0  0  0  0  0  0
   24.3015    8.6415   55.3551 C   0  0  0  0  0  0  0  0  0  0  0  0
   23.2307    7.9162   54.8611 C   0  0  0  0  0  0  0  0  0  0  0  0
   26.6519    8.9080   55.8991 C   0  0  0  0  0  0  0  0  0  0  0  0
   26.5996    9.3598   57.2043 C   0  0  0  0  0  0  0  0  0  0  0  0
   27.5995   10.1251   57.7480 C   0  0  0  0  0  0  0  0  0  0  0  0
   28.6888   10.4545   56.9713 C   0  0  0  0  0  0  0  0  0  0  0  0
   28.7592   10.0157   55.6774 C   0  0  0  0  0  0  0  0  0  0  0  0
   27.7424    9.2386   55.1325 C   0  0  0  0  0  0  0  0  0  0  0  0
   27.9195    8.7019   53.5131 S   0  0  0  0  0  0  0  0  0  0  0  0
   28.7169    7.1403   53.5249 N   0  0  0  0  0  0  0  0  0  0  0  0
   28.9081    9.5937   52.7807 O   0  0  0  0  0  0  0  0  0  0  0  0
   26.6322    8.5664   52.7525 O   0  0  0  0  0  0  0  0  0  0  0  0
   29.7218    7.2369   53.7820 H   0  0  0  0  0  0  0  0  0  0  0  0
   28.2570    6.5294   54.2201 H   0  0  0  0  0  0  0  0  0  0  0  0
   20.1559    7.4254   52.0001 O   0  0  0  0  0  0  0  0  0  0  0  0
   21.3415   10.8352   52.6062 C   0  0  0  0  0  0  0  0  0  0  0  0
   21.4512   10.8730   53.9806 C   0  0  0  0  0  0  0  0  0  0  0  0
   21.1411    9.7909   54.7657 C   0  0  0  0  0  0  0  0  0  0  0  0
   20.7030    8.6321   54.1030 C   0  0  0  0  0  0  0  0  0  0  0  0
   20.5783    8.5355   52.7705 C   0  0  0  0  0  0  0  0  0  0  0  0
   20.9105    9.6844   51.9986 C   0  0  0  0  0  0  0  0  0  0  0  0
   22.3216   13.0133   52.2069 N   0  0  0  0  0  0  0  0  0  0  0  0
   21.6907   12.0000   51.7834 C   0  0  0  0  0  0  0  0  0  0  0  0
   21.2800   12.0003   50.4241 N   0  0  0  0  0  0  0  0  0  0  0  0
   22.7001   13.2139   53.1307 H   0  0  0  0  0  0  0  0  0  0  0  0
   20.5688   12.7322   50.1666 H   0  0  0  0  0  0  0  0  0  0  0  0
   21.5997   11.3709   49.6825 H   0  0  0  0  0  0  0  0  0  0  0  0
 39 40  2  0  0  0
 40 41  1  0  0  0
 40 33  1  0  0  0
 33 34  2  0  0  0
 34 35  1  0  0  0
 35 36  2  0  0  0
 36 37  1  0  0  0
 37 32  1  0  0  0
 32  1  1  0  0  0
  1  2  2  0  0  0
  2  3  1  0  0  0
  3  4  2  0  0  0
  4  5  1  0  0  0
  4  6  1  0  0  0
  6  7  2  0  0  0
  7 10  1  0  0  0
 10 11  2  0  0  0
 10 12  1  0  0  0
 12 14  1  0  0  0
 14 15  2  0  0  0
 15 16  1  0  0  0
 16 17  2  0  0  0
 17 20  1  0  0  0
 20 21  2  0  0  0
 21 22  1  0  0  0
 22 23  2  0  0  0
 23 24  1  0  0  0
 24 25  2  0  0  0
 25 26  1  0  0  0
 26 27  1  0  0  0
 26 28  2  0  0  0
 26 29  2  0  0  0
 17 18  1  0  0  0
 18 19  2  0  0  0
 37 38  2  0  0  0
 38 33  1  0  0  0
  7  1  1  0  0  0
 19 14  1  0  0  0
 25 20  1  0  0  0
 39 42  1  0  0  0
 41 43  1  0  0  0
 41 44  1  0  0  0
  5  8  1  0  0  0
  5  9  1  0  0  0
 12 13  1  0  0  0
 27 30  1  0  0  0
 27 31  1  0  0  0
M  END
> <minimizedAffinity>
37.24578

> <CNNscore>
0.3349228203

> <CNNaffinity>
6.4196443558

> <CNN_VS>
2.1500854492

> <CNNaffinity_variance>
0.5648756027

$$$$
[H]N=C(c1c([H])c([H])c([H])c(Oc2c([H])c([H])c(N([H])[H])c([H])c2C(=O)N([H])c2c([H])c([H])c(-c3c([H])c([H])c([H])c([H])c3S(=O)(=O)N([H])[H])c([H])c2[H])c1[H])N([H])[H]


 44 47  0  0  0  0  0  0  0  0999 V2000
   20.2180    4.5558   53.6554 C   0  0  0  0  0  0  0  0  0  0  0  0
   19.5282    3.4105   53.1826 C   0  0  0  0  0  0  0  0  0  0  0  0
   18.1613    3.3573   53.2367 C   0  0  0  0  0  0  0  0  0  0  0  0
   17.4910    4.4352   53.7583 C   0  0  0  0  0  0  0  0  0  0  0  0
   16.0782    4.3515   53.8165 N   0  0  0  0  0  0  0  0  0  0  0  0
   18.1593    5.5450   54.2095 C   0  0  0  0  0  0  0  0  0  0  0  0
   19.5909    5.6278   54.1569 C   0  0  0  0  0  0  0  0  0  0  0  0
   15.4807    5.1235   53.5056 H   0  0  0  0  0  0  0  0  0  0  0  0
   15.6808    3.4769   54.1955 H   0  0  0  0  0  0  0  0  0  0  0  0
   20.1267    7.0082   54.3055 C   0  0  0  0  0  0  0  0  0  0  0  0
   19.2147    7.8721   53.9654 O   0  0  0  0  0  0  0  0  0  0  0  0
   21.3092    7.4239   54.7096 N   0  0  0  0  0  0  0  0  0  0  0  0
   20.7623    8.6866   54.9163 H   0  0  0  0  0  0  0  0  0  0  0  0
   22.5477    7.8594   55.1330 C   0  0  0  0  0  0  0  0  0  0  0  0
   22.8054    9.2479   55.2146 C   0  0  0  0  0  0  0  0  0  0  0  0
   24.0471    9.7382   55.5491 C   0  0  0  0  0  0  0  0  0  0  0  0
   25.0952    8.8959   55.8201 C   0  0  0  0  0  0  0  0  0  0  0  0
   24.8731    7.5449   55.7534 C   0  0  0  0  0  0  0  0  0  0  0  0
   23.6283    7.0403   55.4177 C   0  0  0  0  0  0  0  0  0  0  0  0
   26.4246    9.3743   56.1244 C   0  0  0  0  0  0  0  0  0  0  0  0
   26.6747   10.1483   57.2419 C   0  0  0  0  0  0  0  0  0  0  0  0
   27.9252   10.6379   57.5205 C   0  0  0  0  0  0  0  0  0  0  0  0
   28.9638   10.3508   56.6618 C   0  0  0  0  0  0  0  0  0  0  0  0
   28.7361    9.5853   55.5510 C   0  0  0  0  0  0  0  0  0  0  0  0
   27.4658    9.0907   55.2750 C   0  0  0  0  0  0  0  0  0  0  0  0
   27.2684    8.1132   53.8795 S   0  0  0  0  0  0  0  0  0  0  0  0
   28.5979    6.9724   53.8025 N   0  0  0  0  0  0  0  0  0  0  0  0
   27.4585    8.9563   52.6296 O   0  0  0  0  0  0  0  0  0  0  0  0
   25.9824    7.3400   53.8316 O   0  0  0  0  0  0  0  0  0  0  0  0
   29.4868    7.4526   53.5484 H   0  0  0  0  0  0  0  0  0  0  0  0
   28.7174    6.5273   54.7275 H   0  0  0  0  0  0  0  0  0  0  0  0
   21.6291    4.4829   53.5772 O   0  0  0  0  0  0  0  0  0  0  0  0
   21.6138    7.7202   51.8688 C   0  0  0  0  0  0  0  0  0  0  0  0
   22.9509    8.0587   51.8590 C   0  0  0  0  0  0  0  0  0  0  0  0
   23.9111    7.2480   52.4106 C   0  0  0  0  0  0  0  0  0  0  0  0
   23.4694    6.0472   52.9910 C   0  0  0  0  0  0  0  0  0  0  0  0
   22.1839    5.6643   53.0289 C   0  0  0  0  0  0  0  0  0  0  0  0
   21.2246    6.5389   52.4450 C   0  0  0  0  0  0  0  0  0  0  0  0
   19.5229    8.1896   50.7409 N   0  0  0  0  0  0  0  0  0  0  0  0
   20.6035    8.5959   51.2618 C   0  0  0  0  0  0  0  0  0  0  0  0
   20.8605    9.9922   51.2415 N   0  0  0  0  0  0  0  0  0  0  0  0
   19.1503    7.2463   50.6500 H   0  0  0  0  0  0  0  0  0  0  0  0
   20.9923   10.4141   50.2862 H   0  0  0  0  0  0  0  0  0  0  0  0
   20.9302   10.6189   52.0482 H   0  0  0  0  0  0  0  0  0  0  0  0
 39 40  2  0  0  0
 40 41  1  0  0  0
 40 33  1  0  0  0
 33 34  2  0  0  0
 34 35  1  0  0  0
 35 36  2  0  0  0
 36 37  1  0  0  0
 37 32  1  0  0  0
 32  1  1  0  0  0
  1  2  2  0  0  0
  2  3  1  0  0  0
  3  4  2  0  0  0
  4  5  1  0  0  0
  4  6  1  0  0  0
  6  7  2  0  0  0
  7 10  1  0  0  0
 10 11  2  0  0  0
 10 12  1  0  0  0
 12 14  1  0  0  0
 14 15  2  0  0  0
 15 16  1  0  0  0
 16 17  2  0  0  0
 17 20  1  0  0  0
 20 21  2  0  0  0
 21 22  1  0  0  0
 22 23  2  0  0  0
 23 24  1  0  0  0
 24 25  2  0  0  0
 25 26  1  0  0  0
 26 27  1  0  0  0
 26 28  2  0  0  0
 26 29  2  0  0  0
 17 18  1  0  0  0
 18 19  2  0  0  0
 37 38  2  0  0  0
 38 33  1  0  0  0
  7  1  1  0  0  0
 19 14  1  0  0  0
 25 20  1  0  0  0
 39 42  1  0  0  0
 41 43  1  0  0  0
 41 44  1  0  0  0
  5  8  1  0  0  0
  5  9  1  0  0  0
 12 13  1  0  0  0
 27 30  1  0  0  0
 27 31  1  0  0  0
M  END
> <minimizedAffinity>
39.41435

> <CNNscore>
0.3345600069

> <CNNaffinity>
6.3650093079

> <CNN_VS>
2.1294775009

> <CNNaffinity_variance>
0.6838334203

$$$$
[H]N1C(=NC2([H])C([H])([H])C([H])([H])C([H])([H])C([H])([H])C([H])([H])C([H])([H])C2([H])[H])O[C@@]2([H])C([H])([H])C([H])([H])C([H])([H])C([H])([H])[C@@]2([H])S1(=O)=O


 22 24  0  0  0  0  0  0  0  0999 V2000
   22.3942    9.1138   56.8723 O   0  0  0  0  0  0  0  0  0  0  0  0
   23.0857    9.1045   55.5448 S   0  0  0  0  0  0  0  0  0  0  0  0
   23.3095   10.4944   55.0176 O   0  0  0  0  0  0  0  0  0  0  0  0
   22.1771    8.1828   54.3723 N   0  0  0  0  0  0  0  0  0  0  0  0
   22.8924    7.4981   53.3666 C   0  0  0  0  0  0  0  0  0  0  0  0
   22.3272    7.2542   52.2505 N   0  0  0  0  0  0  0  0  0  0  0  0
   24.1802    7.0928   53.5699 O   0  0  0  0  0  0  0  0  0  0  0  0
   25.1116    7.6629   54.4188 C   0  0  0  0  0  0  0  0  0  0  0  0
   25.9562    8.6320   53.5779 C   0  0  0  0  0  0  0  0  0  0  0  0
   27.2708    8.7884   54.2880 C   0  0  0  0  0  0  0  0  0  0  0  0
   27.0805    8.8381   55.7679 C   0  0  0  0  0  0  0  0  0  0  0  0
   25.6723    9.3379   56.0964 C   0  0  0  0  0  0  0  0  0  0  0  0
   24.6535    8.3056   55.6595 C   0  0  0  0  0  0  0  0  0  0  0  0
   21.1698    8.1908   54.4855 H   0  0  0  0  0  0  0  0  0  0  0  0
   20.9811    7.6339   51.9296 C   0  0  0  0  0  0  0  0  0  0  0  0
   20.0132    7.3379   53.0499 C   0  0  0  0  0  0  0  0  0  0  0  0
   19.7650    8.4838   53.9711 C   0  0  0  0  0  0  0  0  0  0  0  0
   20.9471    8.9346   54.7600 C   0  0  0  0  0  0  0  0  0  0  0  0
   21.2276   10.4226   54.5852 C   0  0  0  0  0  0  0  0  0  0  0  0
   21.1383   10.8642   53.1607 C   0  0  0  0  0  0  0  0  0  0  0  0
   21.9136    9.9334   52.2858 C   0  0  0  0  0  0  0  0  0  0  0  0
   20.9364    9.0829   51.5076 C   0  0  0  0  0  0  0  0  0  0  0  0
  1  2  2  0  0  0
  2  3  2  0  0  0
  2  4  1  0  0  0
  4  5  1  0  0  0
  5  6  2  0  0  0
  6 15  1  0  0  0
 15 16  1  0  0  0
 16 17  1  0  0  0
 17 18  1  0  0  0
 18 19  1  0  0  0
 19 20  1  0  0  0
 20 21  1  0  0  0
 21 22  1  0  0  0
  5  7  1  0  0  0
  7  8  1  0  0  0
  8  9  1  0  0  0
  9 10  1  0  0  0
 10 11  1  0  0  0
 11 12  1  0  0  0
 12 13  1  0  0  0
 13  2  1  0  0  0
 22 15  1  0  0  0
 13  8  1  0  0  0
  4 14  1  0  0  0
M  END
> <minimizedAffinity>
6.56696

> <CNNscore>
0.6451206803

> <CNNaffinity>
5.9728479385

> <CNN_VS>
3.8532078266

> <CNNaffinity_variance>
0.3488070071

$$$$
[H]N1C(=NC2([H])C([H])([H])C([H])([H])C([H])([H])C([H])([H])C([H])([H])C([H])([H])C2([H])[H])O[C@@]2([H])C([H])([H])C([H])([H])C([H])([H])C([H])([H])[C@@]2([H])S1(=O)=O


 22 24  0  0  0  0  0  0  0  0999 V2000
   23.9238    4.8299   54.2742 O   0  0  0  0  0  0  0  0  0  0  0  0
   24.1314    6.3123   54.2836 S   0  0  0  0  0  0  0  0  0  0  0  0
   23.8680    6.9084   55.6383 O   0  0  0  0  0  0  0  0  0  0  0  0
   23.1113    7.0946   53.1015 N   0  0  0  0  0  0  0  0  0  0  0  0
   23.5903    8.2700   52.4844 C   0  0  0  0  0  0  0  0  0  0  0  0
   22.7594    9.1266   52.0366 N   0  0  0  0  0  0  0  0  0  0  0  0
   24.9294    8.5046   52.3594 O   0  0  0  0  0  0  0  0  0  0  0  0
   25.9408    8.0285   53.1741 C   0  0  0  0  0  0  0  0  0  0  0  0
   26.2376    9.1214   54.2120 C   0  0  0  0  0  0  0  0  0  0  0  0
   27.6456    8.8976   54.6855 C   0  0  0  0  0  0  0  0  0  0  0  0
   27.9405    7.4409   54.8274 C   0  0  0  0  0  0  0  0  0  0  0  0
   26.6430    6.6669   55.0681 C   0  0  0  0  0  0  0  0  0  0  0  0
   25.7841    6.7175   53.8214 C   0  0  0  0  0  0  0  0  0  0  0  0
   22.2185    6.6494   52.9215 H   0  0  0  0  0  0  0  0  0  0  0  0
   21.3337    8.9827   52.1148 C   0  0  0  0  0  0  0  0  0  0  0  0
   20.9151    7.8385   53.0065 C   0  0  0  0  0  0  0  0  0  0  0  0
   20.6207    8.2286   54.4152 C   0  0  0  0  0  0  0  0  0  0  0  0
   21.7842    8.7496   55.1883 C   0  0  0  0  0  0  0  0  0  0  0  0
   21.5086   10.1191   55.7983 C   0  0  0  0  0  0  0  0  0  0  0  0
   20.8395   11.0531   54.8432 C   0  0  0  0  0  0  0  0  0  0  0  0
   21.5519   11.0406   53.5297 C   0  0  0  0  0  0  0  0  0  0  0  0
   20.7016   10.2891   52.5316 C   0  0  0  0  0  0  0  0  0  0  0  0
  1  2  2  0  0  0
  2  3  2  0  0  0
  2  4  1  0  0  0
  4  5  1  0  0  0
  5  6  2  0  0  0
  6 15  1  0  0  0
 15 16  1  0  0  0
 16 17  1  0  0  0
 17 18  1  0  0  0
 18 19  1  0  0  0
 19 20  1  0  0  0
 20 21  1  0  0  0
 21 22  1  0  0  0
  5  7  1  0  0  0
  7  8  1  0  0  0
  8  9  1  0  0  0
  9 10  1  0  0  0
 10 11  1  0  0  0
 11 12  1  0  0  0
 12 13  1  0  0  0
 13  2  1  0  0  0
 22 15  1  0  0  0
 13  8  1  0  0  0
  4 14  1  0  0  0
M  END
> <minimizedAffinity>
16.72238

> <CNNscore>
0.6105527878

> <CNNaffinity>
6.1700415611

> <CNN_VS>
3.7671360970

> <CNNaffinity_variance>
0.4259220660

$$$$
[H]N1C(=NC2([H])C([H])([H])C([H])([H])C([H])([H])C([H])([H])C([H])([H])C([H])([H])C2([H])[H])O[C@@]2([H])C([H])([H])C([H])([H])C([H])([H])C([H])([H])[C@@]2([H])S1(=O)=O


 22 24  0  0  0  0  0  0  0  0999 V2000
   24.8766    6.4773   52.6970 O   0  0  0  0  0  0  0  0  0  0  0  0
   25.0809    7.1347   54.0262 S   0  0  0  0  0  0  0  0  0  0  0  0
   25.1900    6.1304   55.1394 O   0  0  0  0  0  0  0  0  0  0  0  0
   23.7828    8.2482   54.3798 N   0  0  0  0  0  0  0  0  0  0  0  0
   24.0808    9.3934   55.1489 C   0  0  0  0  0  0  0  0  0  0  0  0
   23.1614    9.9399   55.8423 N   0  0  0  0  0  0  0  0  0  0  0  0
   25.3380    9.9255   55.1623 O   0  0  0  0  0  0  0  0  0  0  0  0
   26.5299    9.2591   54.9414 C   0  0  0  0  0  0  0  0  0  0  0  0
   27.0946    8.8748   56.3173 C   0  0  0  0  0  0  0  0  0  0  0  0
   28.5777    8.7085   56.1451 C   0  0  0  0  0  0  0  0  0  0  0  0
   28.8981    8.0511   54.8436 C   0  0  0  0  0  0  0  0  0  0  0  0
   27.7112    7.2038   54.3809 C   0  0  0  0  0  0  0  0  0  0  0  0
   26.5503    8.1094   54.0249 C   0  0  0  0  0  0  0  0  0  0  0  0
   22.8739    8.0045   54.0028 H   0  0  0  0  0  0  0  0  0  0  0  0
   21.8084    9.4655   55.9024 C   0  0  0  0  0  0  0  0  0  0  0  0
   20.7978   10.5797   55.7727 C   0  0  0  0  0  0  0  0  0  0  0  0
   20.3057   10.8092   54.3839 C   0  0  0  0  0  0  0  0  0  0  0  0
   21.3355   11.2766   53.4124 C   0  0  0  0  0  0  0  0  0  0  0  0
   21.4122   10.3878   52.1764 C   0  0  0  0  0  0  0  0  0  0  0  0
   21.3870    8.9315   52.5094 C   0  0  0  0  0  0  0  0  0  0  0  0
   22.3633    8.6383   53.6020 C   0  0  0  0  0  0  0  0  0  0  0  0
   21.5924    8.3796   54.8757 C   0  0  0  0  0  0  0  0  0  0  0  0
  1  2  2  0  0  0
  2  3  2  0  0  0
  2  4  1  0  0  0
  4  5  1  0  0  0
  5  6  2  0  0  0
  6 15  1  0  0  0
 15 16  1  0  0  0
 16 17  1  0  0  0
 17 18  1  0  0  0
 18 19  1  0  0  0
 19 20  1  0  0  0
 20 21  1  0  0  0
 21 22  1  0  0  0
  5  7  1  0  0  0
  7  8  1  0  0  0
  8  9  1  0  0  0
  9 10  1  0  0  0
 10 11  1  0  0  0
 11 12  1  0  0  0
 12 13  1  0  0  0
 13  2  1  0  0  0
 22 15  1  0  0  0
 13  8  1  0  0  0
  4 14  1  0  0  0
M  END
> <minimizedAffinity>
13.71977

> <CNNscore>
0.5892556906

> <CNNaffinity>
5.8650002480

> <CNN_VS>
3.4559848309

> <CNNaffinity_variance>
0.3848659992

$$$$
[H]N1C(=NC2([H])C([H])([H])C([H])([H])C([H])([H])C([H])([H])C([H])([H])C([H])([H])C2([H])[H])O[C@@]2([H])C([H])([H])C([H])([H])C([H])([H])C([H])([H])[C@@]2([H])S1(=O)=O


 22 24  0  0  0  0  0  0  0  0999 V2000
   23.7077    4.9238   54.7212 O   0  0  0  0  0  0  0  0  0  0  0  0
   23.8855    6.2999   54.1595 S   0  0  0  0  0  0  0  0  0  0  0  0
   24.1638    6.2727   52.6825 O   0  0  0  0  0  0  0  0  0  0  0  0
   25.1780    7.1460   54.9741 N   0  0  0  0  0  0  0  0  0  0  0  0
   25.0752    8.5474   55.1060 C   0  0  0  0  0  0  0  0  0  0  0  0
   26.1355    9.2471   55.2097 N   0  0  0  0  0  0  0  0  0  0  0  0
   23.8582    9.1659   55.1241 O   0  0  0  0  0  0  0  0  0  0  0  0
   22.6868    8.7228   54.5369 C   0  0  0  0  0  0  0  0  0  0  0  0
   22.5826    9.4054   53.1647 C   0  0  0  0  0  0  0  0  0  0  0  0
   21.1261    9.4182   52.7972 C   0  0  0  0  0  0  0  0  0  0  0  0
   20.4571    8.1472   53.2048 C   0  0  0  0  0  0  0  0  0  0  0  0
   21.4855    7.0169   53.2795 C   0  0  0  0  0  0  0  0  0  0  0  0
   22.4421    7.2772   54.4248 C   0  0  0  0  0  0  0  0  0  0  0  0
   25.9404    6.5707   55.3138 H   0  0  0  0  0  0  0  0  0  0  0  0
   27.4633    8.7029   55.2020 C   0  0  0  0  0  0  0  0  0  0  0  0
   28.4833    9.6719   54.6541 C   0  0  0  0  0  0  0  0  0  0  0  0
   29.1801   10.4872   55.6900 C   0  0  0  0  0  0  0  0  0  0  0  0
   28.3097   11.4278   56.4521 C   0  0  0  0  0  0  0  0  0  0  0  0
   28.4197   11.2275   57.9591 C   0  0  0  0  0  0  0  0  0  0  0  0
   28.3926    9.7869   58.3543 C   0  0  0  0  0  0  0  0  0  0  0  0
   27.2618    9.0889   57.6708 C   0  0  0  0  0  0  0  0  0  0  0  0
   27.8309    8.2099   56.5811 C   0  0  0  0  0  0  0  0  0  0  0  0
  1  2  2  0  0  0
  2  3  2  0  0  0
  2  4  1  0  0  0
  4  5  1  0  0  0
  5  6  2  0  0  0
  6 15  1  0  0  0
 15 16  1  0  0  0
 16 17  1  0  0  0
 17 18  1  0  0  0
 18 19  1  0  0  0
 19 20  1  0  0  0
 20 21  1  0  0  0
 21 22  1  0  0  0
  5  7  1  0  0  0
  7  8  1  0  0  0
  8  9  1  0  0  0
  9 10  1  0  0  0
 10 11  1  0  0  0
 11 12  1  0  0  0
 12 13  1  0  0  0
 13  2  1  0  0  0
 22 15  1  0  0  0
 13  8  1  0  0  0
  4 14  1  0  0  0
M  END
> <minimizedAffinity>
13.72274

> <CNNscore>
0.5852794647

> <CNNaffinity>
6.1009588242

> <CNN_VS>
3.5707659721

> <CNNaffinity_variance>
0.5746529698

$$$$
[H]N1C(=NC2([H])C([H])([H])C([H])([H])C([H])([H])C([H])([H])C([H])([H])C([H])([H])C2([H])[H])O[C@@]2([H])C([H])([H])C([H])([H])C([H])([H])C([H])([H])[C@@]2([H])S1(=O)=O


 22 24  0  0  0  0  0  0  0  0999 V2000
   24.2576    5.6339   53.5264 O   0  0  0  0  0  0  0  0  0  0  0  0
   22.9402    6.1840   53.9764 S   0  0  0  0  0  0  0  0  0  0  0  0
   22.9272    6.4768   55.4509 O   0  0  0  0  0  0  0  0  0  0  0  0
   21.6393    5.0827   53.5960 N   0  0  0  0  0  0  0  0  0  0  0  0
   20.3721    5.6285   53.2991 C   0  0  0  0  0  0  0  0  0  0  0  0
   19.3247    4.9338   53.5111 N   0  0  0  0  0  0  0  0  0  0  0  0
   20.2500    6.8888   52.7885 O   0  0  0  0  0  0  0  0  0  0  0  0
   21.1220    7.9485   52.9610 C   0  0  0  0  0  0  0  0  0  0  0  0
   20.5883    8.7871   54.1322 C   0  0  0  0  0  0  0  0  0  0  0  0
   21.1339   10.1754   53.9544 C   0  0  0  0  0  0  0  0  0  0  0  0
   22.5431   10.1409   53.4626 C   0  0  0  0  0  0  0  0  0  0  0  0
   23.2059    8.8235   53.8700 C   0  0  0  0  0  0  0  0  0  0  0  0
   22.5585    7.6775   53.1203 C   0  0  0  0  0  0  0  0  0  0  0  0
   21.8746    4.0967   53.6080 H   0  0  0  0  0  0  0  0  0  0  0  0
   19.3364    3.6015   54.0441 C   0  0  0  0  0  0  0  0  0  0  0  0
   18.6847    3.5157   55.4033 C   0  0  0  0  0  0  0  0  0  0  0  0
   17.2430    3.1362   55.3747 C   0  0  0  0  0  0  0  0  0  0  0  0
   16.3384    4.1197   54.7133 C   0  0  0  0  0  0  0  0  0  0  0  0
   15.5043    3.4866   53.6058 C   0  0  0  0  0  0  0  0  0  0  0  0
   16.3037    2.5822   52.7252 C   0  0  0  0  0  0  0  0  0  0  0  0
   17.5655    3.2620   52.3025 C   0  0  0  0  0  0  0  0  0  0  0  0
   18.7190    2.6411   53.0559 C   0  0  0  0  0  0  0  0  0  0  0  0
  1  2  2  0  0  0
  2  3  2  0  0  0
  2  4  1  0  0  0
  4  5  1  0  0  0
  5  6  2  0  0  0
  6 15  1  0  0  0
 15 16  1  0  0  0
 16 17  1  0  0  0
 17 18  1  0  0  0
 18 19  1  0  0  0
 19 20  1  0  0  0
 20 21  1  0  0  0
 21 22  1  0  0  0
  5  7  1  0  0  0
  7  8  1  0  0  0
  8  9  1  0  0  0
  9 10  1  0  0  0
 10 11  1  0  0  0
 11 12  1  0  0  0
 12 13  1  0  0  0
 13  2  1  0  0  0
 22 15  1  0  0  0
 13  8  1  0  0  0
  4 14  1  0  0  0
M  END
> <minimizedAffinity>
21.75652

> <CNNscore>
0.5606454611

> <CNNaffinity>
6.3171992302

> <CNN_VS>
3.5417091846

> <CNNaffinity_variance>
0.4444668889

$$$$
[H]N1C(=NC2([H])C([H])([H])C([H])([H])C([H])([H])C([H])([H])C([H])([H])C([H])([H])C2([H])[H])O[C@@]2([H])C([H])([H])C([H])([H])C([H])([H])C([H])([H])[C@@]2([H])S1(=O)=O


 22 24  0  0  0  0  0  0  0  0999 V2000
   27.1604    8.6455   52.4673 O   0  0  0  0  0  0  0  0  0  0  0  0
   26.4934    8.4405   53.7917 S   0  0  0  0  0  0  0  0  0  0  0  0
   26.5397    7.0026   54.2279 O   0  0  0  0  0  0  0  0  0  0  0  0
   24.8316    8.9754   53.7449 N   0  0  0  0  0  0  0  0  0  0  0  0
   24.2684    9.4982   54.9286 C   0  0  0  0  0  0  0  0  0  0  0  0
   23.0085    9.4268   55.1085 N   0  0  0  0  0  0  0  0  0  0  0  0
   25.0512   10.0792   55.8844 O   0  0  0  0  0  0  0  0  0  0  0  0
   26.3838    9.8167   56.1463 C   0  0  0  0  0  0  0  0  0  0  0  0
   26.4263    8.7871   57.2855 C   0  0  0  0  0  0  0  0  0  0  0  0
   27.7626    8.9379   57.9553 C   0  0  0  0  0  0  0  0  0  0  0  0
   28.8405    9.1931   56.9545 C   0  0  0  0  0  0  0  0  0  0  0  0
   28.4346    8.6237   55.5937 C   0  0  0  0  0  0  0  0  0  0  0  0
   27.2669    9.4148   55.0413 C   0  0  0  0  0  0  0  0  0  0  0  0
   24.3596    8.8801   52.8528 H   0  0  0  0  0  0  0  0  0  0  0  0
   22.0936    8.8383   54.1726 C   0  0  0  0  0  0  0  0  0  0  0  0
   22.7983    8.1021   53.0586 C   0  0  0  0  0  0  0  0  0  0  0  0
   22.9751    6.6411   53.2984 C   0  0  0  0  0  0  0  0  0  0  0  0
   23.8589    6.2862   54.4455 C   0  0  0  0  0  0  0  0  0  0  0  0
   23.1729    5.3571   55.4402 C   0  0  0  0  0  0  0  0  0  0  0  0
   21.7724    5.7752   55.7505 C   0  0  0  0  0  0  0  0  0  0  0  0
   21.7311    7.2353   56.0656 C   0  0  0  0  0  0  0  0  0  0  0  0
   21.1026    7.9592   54.8973 C   0  0  0  0  0  0  0  0  0  0  0  0
  1  2  2  0  0  0
  2  3  2  0  0  0
  2  4  1  0  0  0
  4  5  1  0  0  0
  5  6  2  0  0  0
  6 15  1  0  0  0
 15 16  1  0  0  0
 16 17  1  0  0  0
 17 18  1  0  0  0
 18 19  1  0  0  0
 19 20  1  0  0  0
 20 21  1  0  0  0
 21 22  1  0  0  0
  5  7  1  0  0  0
  7  8  1  0  0  0
  8  9  1  0  0  0
  9 10  1  0  0  0
 10 11  1  0  0  0
 11 12  1  0  0  0
 12 13  1  0  0  0
 13  2  1  0  0  0
 22 15  1  0  0  0
 13  8  1  0  0  0
  4 14  1  0  0  0
M  END
> <minimizedAffinity>
18.04546

> <CNNscore>
0.5576693416

> <CNNaffinity>
5.7161154747

> <CNN_VS>
3.1877024174

> <CNNaffinity_variance>
0.7320871949

$$$$
[H]N1C(=NC2([H])C([H])([H])C([H])([H])C([H])([H])C([H])([H])C([H])([H])C([H])([H])C2([H])[H])O[C@@]2([H])C([H])([H])C([H])([H])C([H])([H])C([H])([H])[C@@]2([H])S1(=O)=O


 22 24  0  0  0  0  0  0  0  0999 V2000
   21.5211    9.9735   51.9481 O   0  0  0  0  0  0  0  0  0  0  0  0
   21.8154    9.0246   53.0678 S   0  0  0  0  0  0  0  0  0  0  0  0
   20.9573    9.2932   54.2726 O   0  0  0  0  0  0  0  0  0  0  0  0
   23.4978    9.1038   53.5294 N   0  0  0  0  0  0  0  0  0  0  0  0
   24.1106    7.9272   54.0111 C   0  0  0  0  0  0  0  0  0  0  0  0
   25.1061    8.0172   54.8020 N   0  0  0  0  0  0  0  0  0  0  0  0
   23.6543    6.6940   53.6437 O   0  0  0  0  0  0  0  0  0  0  0  0
   22.3679    6.3587   53.2615 C   0  0  0  0  0  0  0  0  0  0  0  0
   21.6492    5.8275   54.5109 C   0  0  0  0  0  0  0  0  0  0  0  0
   20.5331    4.9465   54.0262 C   0  0  0  0  0  0  0  0  0  0  0  0
   19.8838    5.5201   52.8104 C   0  0  0  0  0  0  0  0  0  0  0  0
   20.0781    7.0374   52.7818 C   0  0  0  0  0  0  0  0  0  0  0  0
   21.5428    7.3568   52.5649 C   0  0  0  0  0  0  0  0  0  0  0  0
   23.9461   10.0064   53.4201 H   0  0  0  0  0  0  0  0  0  0  0  0
   25.6667    9.2589   55.2529 C   0  0  0  0  0  0  0  0  0  0  0  0
   26.4016    9.1203   56.5644 C   0  0  0  0  0  0  0  0  0  0  0  0
   27.8684    8.8885   56.4295 C   0  0  0  0  0  0  0  0  0  0  0  0
   28.2530    7.6038   55.7779 C   0  0  0  0  0  0  0  0  0  0  0  0
   29.1818    7.8128   54.5875 C   0  0  0  0  0  0  0  0  0  0  0  0
   28.7427    8.9327   53.7013 C   0  0  0  0  0  0  0  0  0  0  0  0
   27.2860    8.8027   53.3944 C   0  0  0  0  0  0  0  0  0  0  0  0
   26.5368    9.8584   54.1742 C   0  0  0  0  0  0  0  0  0  0  0  0
  1  2  2  0  0  0
  2  3  2  0  0  0
  2  4  1  0  0  0
  4  5  1  0  0  0
  5  6  2  0  0  0
  6 15  1  0  0  0
 15 16  1  0  0  0
 16 17  1  0  0  0
 17 18  1  0  0  0
 18 19  1  0  0  0
 19 20  1  0  0  0
 20 21  1  0  0  0
 21 22  1  0  0  0
  5  7  1  0  0  0
  7  8  1  0  0  0
  8  9  1  0  0  0
  9 10  1  0  0  0
 10 11  1  0  0  0
 11 12  1  0  0  0
 12 13  1  0  0  0
 13  2  1  0  0  0
 22 15  1  0  0  0
 13  8  1  0  0  0
  4 14  1  0  0  0
M  END
> <minimizedAffinity>
23.23350

> <CNNscore>
0.5477966070

> <CNNaffinity>
5.8707060814

> <CNN_VS>
3.2159528732

> <CNNaffinity_variance>
0.7566660643

$$$$
[H]N1C(=NC2([H])C([H])([H])C([H])([H])C([H])([H])C([H])([H])C([H])([H])C([H])([H])C2([H])[H])O[C@@]2([H])C([H])([H])C([H])([H])C([H])([H])C([H])([H])[C@@]2([H])S1(=O)=O


 22 24  0  0  0  0  0  0  0  0999 V2000
   22.3120    5.8303   56.0649 O   0  0  0  0  0  0  0  0  0  0  0  0
   22.8137    6.4106   54.7795 S   0  0  0  0  0  0  0  0  0  0  0  0
   22.8733    5.3829   53.6840 O   0  0  0  0  0  0  0  0  0  0  0  0
   24.3948    7.1220   54.9890 N   0  0  0  0  0  0  0  0  0  0  0  0
   24.7304    8.2406   54.1966 C   0  0  0  0  0  0  0  0  0  0  0  0
   25.9544    8.4760   53.9302 N   0  0  0  0  0  0  0  0  0  0  0  0
   23.7650    9.0747   53.7104 O   0  0  0  0  0  0  0  0  0  0  0  0
   22.4480    8.7562   53.4324 C   0  0  0  0  0  0  0  0  0  0  0  0
   22.3702    8.4218   51.9351 C   0  0  0  0  0  0  0  0  0  0  0  0
   20.9476    8.6559   51.5128 C   0  0  0  0  0  0  0  0  0  0  0  0
   19.9921    8.2080   52.5689 C   0  0  0  0  0  0  0  0  0  0  0  0
   20.6397    7.1240   53.4327 C   0  0  0  0  0  0  0  0  0  0  0  0
   21.7732    7.7266   54.2367 C   0  0  0  0  0  0  0  0  0  0  0  0
   24.9903    6.6839   55.6826 H   0  0  0  0  0  0  0  0  0  0  0  0
   27.0480    7.6672   54.3875 C   0  0  0  0  0  0  0  0  0  0  0  0
   28.3634    8.0643   53.7617 C   0  0  0  0  0  0  0  0  0  0  0  0
   29.1679    9.0241   54.5710 C   0  0  0  0  0  0  0  0  0  0  0  0
   28.5530   10.3689   54.7611 C   0  0  0  0  0  0  0  0  0  0  0  0
   28.4461   10.7548   56.2319 C   0  0  0  0  0  0  0  0  0  0  0  0
   27.9433    9.6379   57.0875 C   0  0  0  0  0  0  0  0  0  0  0  0
   26.7281    9.0258   56.4698 C   0  0  0  0  0  0  0  0  0  0  0  0
   27.1090    7.6806   55.8961 C   0  0  0  0  0  0  0  0  0  0  0  0
  1  2  2  0  0  0
  2  3  2  0  0  0
  2  4  1  0  0  0
  4  5  1  0  0  0
  5  6  2  0  0  0
  6 15  1  0  0  0
 15 16  1  0  0  0
 16 17  1  0  0  0
 17 18  1  0  0  0
 18 19  1  0  0  0
 19 20  1  0  0  0
 20 21  1  0  0  0
 21 22  1  0  0  0
  5  7  1  0  0  0
  7  8  1  0  0  0
  8  9  1  0  0  0
  9 10  1  0  0  0
 10 11  1  0  0  0
 11 12  1  0  0  0
 12 13  1  0  0  0
 13  2  1  0  0  0
 22 15  1  0  0  0
 13  8  1  0  0  0
  4 14  1  0  0  0
M  END
> <minimizedAffinity>
15.28631

> <CNNscore>
0.5468780398

> <CNNaffinity>
5.8412914276

> <CNN_VS>
3.1944739819

> <CNNaffinity_variance>
0.5239555240

$$$$
[H]N1C(=NC2([H])C([H])([H])C([H])([H])C([H])([H])C([H])([H])C([H])([H])C([H])([H])C2([H])[H])O[C@@]2([H])C([H])([H])C([H])([H])C([H])([H])C([H])([H])[C@@]2([H])S1(=O)=O


 22 24  0  0  0  0  0  0  0  0999 V2000
   23.9957    4.9824   55.6234 O   0  0  0  0  0  0  0  0  0  0  0  0
   24.2087    6.3064   54.9582 S   0  0  0  0  0  0  0  0  0  0  0  0
   24.0837    7.4491   55.9270 O   0  0  0  0  0  0  0  0  0  0  0  0
   23.0789    6.5366   53.6465 N   0  0  0  0  0  0  0  0  0  0  0  0
   23.4985    7.2969   52.5340 C   0  0  0  0  0  0  0  0  0  0  0  0
   22.6303    7.9077   51.8283 N   0  0  0  0  0  0  0  0  0  0  0  0
   24.8194    7.3889   52.2013 O   0  0  0  0  0  0  0  0  0  0  0  0
   25.9051    7.2722   53.0504 C   0  0  0  0  0  0  0  0  0  0  0  0
   26.3077    8.6947   53.4676 C   0  0  0  0  0  0  0  0  0  0  0  0
   27.7551    8.6355   53.8659 C   0  0  0  0  0  0  0  0  0  0  0  0
   28.0572    7.3774   54.6108 C   0  0  0  0  0  0  0  0  0  0  0  0
   26.7871    6.8503   55.2816 C   0  0  0  0  0  0  0  0  0  0  0  0
   25.8087    6.3883   54.2216 C   0  0  0  0  0  0  0  0  0  0  0  0
   22.1710    6.1004   53.7610 H   0  0  0  0  0  0  0  0  0  0  0  0
   21.2190    7.8804   52.0866 C   0  0  0  0  0  0  0  0  0  0  0  0
   20.9018    7.7226   53.5543 C   0  0  0  0  0  0  0  0  0  0  0  0
   20.6740    9.0058   54.2788 C   0  0  0  0  0  0  0  0  0  0  0  0
   21.8578    9.9083   54.3634 C   0  0  0  0  0  0  0  0  0  0  0  0
   21.5608   11.3054   53.8311 C   0  0  0  0  0  0  0  0  0  0  0  0
   20.7983   11.2844   52.5464 C   0  0  0  0  0  0  0  0  0  0  0  0
   21.4326   10.3281   51.5892 C   0  0  0  0  0  0  0  0  0  0  0  0
   20.5579    9.0998   51.4900 C   0  0  0  0  0  0  0  0  0  0  0  0
  1  2  2  0  0  0
  2  3  2  0  0  0
  2  4  1  0  0  0
  4  5  1  0  0  0
  5  6  2  0  0  0
  6 15  1  0  0  0
 15 16  1  0  0  0
 16 17  1  0  0  0
 17 18  1  0  0  0
 18 19  1  0  0  0
 19 20  1  0  0  0
 20 21  1  0  0  0
 21 22  1  0  0  0
  5  7  1  0  0  0
  7  8  1  0  0  0
  8  9  1  0  0  0
  9 10  1  0  0  0
 10 11  1  0  0  0
 11 12  1  0  0  0
 12 13  1  0  0  0
 13  2  1  0  0  0
 22 15  1  0  0  0
 13  8  1  0  0  0
  4 14  1  0  0  0
M  END
> <minimizedAffinity>
22.90603

> <CNNscore>
0.5205178857

> <CNNaffinity>
6.1280794144

> <CNN_VS>
3.1897749901

> <CNNaffinity_variance>
0.4336820543

$$$$
[H]C(=NN([H])C(=S)N([H])C([H])([H])c1c([H])c([H])c(OC([H])(C([H])([H])[H])C([H])([H])[H])c([H])c1[H])c1c([H])c([H])c([N+](=O)[O-])c([H])c1[H]


 28 29  0  0  0  0  0  0  0  0999 V2000
   22.3265    6.7381   54.0193 C   0  0  0  0  0  0  0  0  0  0  0  0
   23.3956    5.5216   54.1706 S   0  0  0  0  0  0  0  0  0  0  0  0
   22.0512    7.2638   52.7428 N   0  0  0  0  0  0  0  0  0  0  0  0
   22.7188    7.1303   51.9605 H   0  0  0  0  0  0  0  0  0  0  0  0
   20.8311    7.9985   52.5055 C   0  0  0  0  0  0  0  0  0  0  0  0
   21.5724   12.1832   51.9081 C   0  0  0  0  0  0  0  0  0  0  0  0
   21.2937   11.3272   50.8417 C   0  0  0  0  0  0  0  0  0  0  0  0
   21.0586    9.9886   51.0521 C   0  0  0  0  0  0  0  0  0  0  0  0
   21.0894    9.4454   52.3176 C   0  0  0  0  0  0  0  0  0  0  0  0
   21.3663   10.3154   53.3426 C   0  0  0  0  0  0  0  0  0  0  0  0
   21.6088   11.6742   53.1656 C   0  0  0  0  0  0  0  0  0  0  0  0
   21.7997   13.5100   51.6468 O   0  0  0  0  0  0  0  0  0  0  0  0
   21.5432   15.7461   50.7549 C   0  0  0  0  0  0  0  0  0  0  0  0
   20.8833   14.4383   51.1899 C   0  0  0  0  0  0  0  0  0  0  0  0
   19.9130   14.7917   52.3182 C   0  0  0  0  0  0  0  0  0  0  0  0
   21.6690    7.2734   55.1651 N   0  0  0  0  0  0  0  0  0  0  0  0
   20.9627    6.6968   55.7088 H   0  0  0  0  0  0  0  0  0  0  0  0
   21.9113    8.5321   55.6076 N   0  0  0  0  0  0  0  0  0  0  0  0
   22.8810    9.2774   55.7022 C   0  0  0  0  0  0  0  0  0  0  0  0
   24.2476    9.0126   55.3220 C   0  0  0  0  0  0  0  0  0  0  0  0
   24.6502    8.5076   54.1074 C   0  0  0  0  0  0  0  0  0  0  0  0
   25.9869    8.2710   53.7931 C   0  0  0  0  0  0  0  0  0  0  0  0
   26.9879    8.5354   54.6985 C   0  0  0  0  0  0  0  0  0  0  0  0
   26.6162    9.0410   55.9221 C   0  0  0  0  0  0  0  0  0  0  0  0
   25.2995    9.2694   56.2192 C   0  0  0  0  0  0  0  0  0  0  0  0
   28.3564    8.2895   54.3673 N   0  0  0  0  0  0  0  0  0  0  0  0
   29.1869    9.2078   54.5014 O   0  0  0  0  0  0  0  0  0  0  0  0
   28.6813    7.0369   53.9137 O   0  0  0  0  0  0  0  0  0  0  0  0
 13 14  1  0  0  0
 14 15  1  0  0  0
 14 12  1  0  0  0
 12  6  1  0  0  0
  6  7  2  0  0  0
  7  8  1  0  0  0
  8  9  2  0  0  0
  9  5  1  0  0  0
  5  3  1  0  0  0
  3  1  1  0  0  0
  1  2  2  0  0  0
  1 16  1  0  0  0
 16 18  1  0  0  0
 18 19  2  0  0  0
 19 20  1  0  0  0
 20 21  2  0  0  0
 21 22  1  0  0  0
 22 23  2  0  0  0
 23 26  1  0  0  0
 26 27  2  0  0  0
 26 28  1  0  0  0
 23 24  1  0  0  0
 24 25  2  0  0  0
  9 10  1  0  0  0
 10 11  2  0  0  0
 11  6  1  0  0  0
 25 20  1  0  0  0
  3  4  1  0  0  0
 16 17  1  0  0  0
M  CHG 1  26   1
M  CHG 1  28  -1
M  END
> <minimizedAffinity>
7.27357

> <CNNscore>
0.6766691804

> <CNNaffinity>
6.2005434036

> <CNN_VS>
4.1957168579

> <CNNaffinity_variance>
0.2771330178

$$$$
[H]C(=NN([H])C(=S)N([H])C([H])([H])c1c([H])c([H])c(OC([H])(C([H])([H])[H])C([H])([H])[H])c([H])c1[H])c1c([H])c([H])c([N+](=O)[O-])c([H])c1[H]


 28 29  0  0  0  0  0  0  0  0999 V2000
   23.2241    6.2261   53.9428 C   0  0  0  0  0  0  0  0  0  0  0  0
   22.0001    5.6167   53.0618 S   0  0  0  0  0  0  0  0  0  0  0  0
   24.4463    6.5299   53.3137 N   0  0  0  0  0  0  0  0  0  0  0  0
   25.0763    5.7730   52.9884 H   0  0  0  0  0  0  0  0  0  0  0  0
   24.8399    7.9045   53.1125 C   0  0  0  0  0  0  0  0  0  0  0  0
   27.4915    9.2698   56.1984 C   0  0  0  0  0  0  0  0  0  0  0  0
   27.9708    8.7356   55.0016 C   0  0  0  0  0  0  0  0  0  0  0  0
   27.1059    8.3030   54.0236 C   0  0  0  0  0  0  0  0  0  0  0  0
   25.7405    8.3806   54.1884 C   0  0  0  0  0  0  0  0  0  0  0  0
   25.3039    8.9110   55.3767 C   0  0  0  0  0  0  0  0  0  0  0  0
   26.1504    9.3580   56.3868 C   0  0  0  0  0  0  0  0  0  0  0  0
   28.3940    9.6873   57.1426 O   0  0  0  0  0  0  0  0  0  0  0  0
   28.9172   10.9171   59.1614 C   0  0  0  0  0  0  0  0  0  0  0  0
   28.2085    9.7294   58.5116 C   0  0  0  0  0  0  0  0  0  0  0  0
   28.7995    8.4679   59.1430 C   0  0  0  0  0  0  0  0  0  0  0  0
   23.0690    6.4538   55.3412 N   0  0  0  0  0  0  0  0  0  0  0  0
   23.8568    6.2407   56.0201 H   0  0  0  0  0  0  0  0  0  0  0  0
   21.9187    6.9459   55.8639 N   0  0  0  0  0  0  0  0  0  0  0  0
   21.1703    7.8937   55.6487 C   0  0  0  0  0  0  0  0  0  0  0  0
   21.2969    8.9164   54.6386 C   0  0  0  0  0  0  0  0  0  0  0  0
   21.6225   10.2316   54.8768 C   0  0  0  0  0  0  0  0  0  0  0  0
   21.7315   11.1789   53.8608 C   0  0  0  0  0  0  0  0  0  0  0  0
   21.5148   10.8395   52.5457 C   0  0  0  0  0  0  0  0  0  0  0  0
   21.1874    9.5314   52.2762 C   0  0  0  0  0  0  0  0  0  0  0  0
   21.0834    8.6095   53.2830 C   0  0  0  0  0  0  0  0  0  0  0  0
   21.6287   11.8180   51.5102 N   0  0  0  0  0  0  0  0  0  0  0  0
   21.1750   11.5595   50.3795 O   0  0  0  0  0  0  0  0  0  0  0  0
   22.2409   13.0036   51.8260 O   0  0  0  0  0  0  0  0  0  0  0  0
 13 14  1  0  0  0
 14 15  1  0  0  0
 14 12  1  0  0  0
 12  6  1  0  0  0
  6  7  2  0  0  0
  7  8  1  0  0  0
  8  9  2  0  0  0
  9  5  1  0  0  0
  5  3  1  0  0  0
  3  1  1  0  0  0
  1  2  2  0  0  0
  1 16  1  0  0  0
 16 18  1  0  0  0
 18 19  2  0  0  0
 19 20  1  0  0  0
 20 21  2  0  0  0
 21 22  1  0  0  0
 22 23  2  0  0  0
 23 26  1  0  0  0
 26 27  2  0  0  0
 26 28  1  0  0  0
 23 24  1  0  0  0
 24 25  2  0  0  0
  9 10  1  0  0  0
 10 11  2  0  0  0
 11  6  1  0  0  0
 25 20  1  0  0  0
  3  4  1  0  0  0
 16 17  1  0  0  0
M  CHG 1  26   1
M  CHG 1  28  -1
M  END
> <minimizedAffinity>
0.42491

> <CNNscore>
0.6510642767

> <CNNaffinity>
6.0121741295

> <CNN_VS>
3.9143118858

> <CNNaffinity_variance>
0.5341553092

$$$$
[H]C(=NN([H])C(=S)N([H])C([H])([H])c1c([H])c([H])c(OC([H])(C([H])([H])[H])C([H])([H])[H])c([H])c1[H])c1c([H])c([H])c([N+](=O)[O-])c([H])c1[H]


 28 29  0  0  0  0  0  0  0  0999 V2000
   21.6581    9.1237   53.1457 C   0  0  0  0  0  0  0  0  0  0  0  0
   21.4702    9.8324   51.6937 S   0  0  0  0  0  0  0  0  0  0  0  0
   22.7997    8.3370   53.3901 N   0  0  0  0  0  0  0  0  0  0  0  0
   22.7297    7.4593   53.9381 H   0  0  0  0  0  0  0  0  0  0  0  0
   24.0873    8.7437   52.8790 C   0  0  0  0  0  0  0  0  0  0  0  0
   27.0764    8.9286   55.9529 C   0  0  0  0  0  0  0  0  0  0  0  0
   27.3742    8.4812   54.6650 C   0  0  0  0  0  0  0  0  0  0  0  0
   26.4032    8.4287   53.6924 C   0  0  0  0  0  0  0  0  0  0  0  0
   25.1065    8.8141   53.9522 C   0  0  0  0  0  0  0  0  0  0  0  0
   24.8489    9.2486   55.2285 C   0  0  0  0  0  0  0  0  0  0  0  0
   25.8065    9.3145   56.2360 C   0  0  0  0  0  0  0  0  0  0  0  0
   28.0792    8.9625   56.8876 O   0  0  0  0  0  0  0  0  0  0  0  0
   28.5305   10.9570   58.1836 C   0  0  0  0  0  0  0  0  0  0  0  0
   28.0209    9.5167   58.1525 C   0  0  0  0  0  0  0  0  0  0  0  0
   28.9153    8.7153   59.0996 C   0  0  0  0  0  0  0  0  0  0  0  0
   20.6795    9.2927   54.1681 N   0  0  0  0  0  0  0  0  0  0  0  0
   19.8551    9.9476   54.0322 H   0  0  0  0  0  0  0  0  0  0  0  0
   20.7569    8.6332   55.3503 N   0  0  0  0  0  0  0  0  0  0  0  0
   21.3216    7.6342   55.7836 C   0  0  0  0  0  0  0  0  0  0  0  0
   22.1954    6.7288   55.0772 C   0  0  0  0  0  0  0  0  0  0  0  0
   23.4336    6.3179   55.5136 C   0  0  0  0  0  0  0  0  0  0  0  0
   24.2370    5.4399   54.7891 C   0  0  0  0  0  0  0  0  0  0  0  0
   23.8242    4.9316   53.5796 C   0  0  0  0  0  0  0  0  0  0  0  0
   22.5902    5.3244   53.1169 C   0  0  0  0  0  0  0  0  0  0  0  0
   21.8097    6.1876   53.8379 C   0  0  0  0  0  0  0  0  0  0  0  0
   24.6551    4.0314   52.8433 N   0  0  0  0  0  0  0  0  0  0  0  0
   24.8597    2.8888   53.2946 O   0  0  0  0  0  0  0  0  0  0  0  0
   25.1877    4.4848   51.6639 O   0  0  0  0  0  0  0  0  0  0  0  0
 13 14  1  0  0  0
 14 15  1  0  0  0
 14 12  1  0  0  0
 12  6  1  0  0  0
  6  7  2  0  0  0
  7  8  1  0  0  0
  8  9  2  0  0  0
  9  5  1  0  0  0
  5  3  1  0  0  0
  3  1  1  0  0  0
  1  2  2  0  0  0
  1 16  1  0  0  0
 16 18  1  0  0  0
 18 19  2  0  0  0
 19 20  1  0  0  0
 20 21  2  0  0  0
 21 22  1  0  0  0
 22 23  2  0  0  0
 23 26  1  0  0  0
 26 27  2  0  0  0
 26 28  1  0  0  0
 23 24  1  0  0  0
 24 25  2  0  0  0
  9 10  1  0  0  0
 10 11  2  0  0  0
 11  6  1  0  0  0
 25 20  1  0  0  0
  3  4  1  0  0  0
 16 17  1  0  0  0
M  CHG 1  26   1
M  CHG 1  28  -1
M  END
> <minimizedAffinity>
14.95630

> <CNNscore>
0.6449771523

> <CNNaffinity>
6.1434602737

> <CNN_VS>
3.9623916149

> <CNNaffinity_variance>
0.6998847127

$$$$
[H]C(=NN([H])C(=S)N([H])C([H])([H])c1c([H])c([H])c(OC([H])(C([H])([H])[H])C([H])([H])[H])c([H])c1[H])c1c([H])c([H])c([N+](=O)[O-])c([H])c1[H]


 28 29  0  0  0  0  0  0  0  0999 V2000
   22.2586    7.0188   53.4774 C   0  0  0  0  0  0  0  0  0  0  0  0
   21.7045    6.9314   51.9506 S   0  0  0  0  0  0  0  0  0  0  0  0
   21.3659    7.3250   54.5220 N   0  0  0  0  0  0  0  0  0  0  0  0
   20.6811    6.6214   54.8559 H   0  0  0  0  0  0  0  0  0  0  0  0
   21.3925    8.6277   55.1442 C   0  0  0  0  0  0  0  0  0  0  0  0
   21.5047   11.8146   52.2722 C   0  0  0  0  0  0  0  0  0  0  0  0
   21.5986   12.0579   53.6432 C   0  0  0  0  0  0  0  0  0  0  0  0
   21.5608   11.0238   54.5492 C   0  0  0  0  0  0  0  0  0  0  0  0
   21.4295    9.7154   54.1389 C   0  0  0  0  0  0  0  0  0  0  0  0
   21.3399    9.5125   52.7843 C   0  0  0  0  0  0  0  0  0  0  0  0
   21.3747   10.5346   51.8406 C   0  0  0  0  0  0  0  0  0  0  0  0
   21.5474   12.8792   51.4090 O   0  0  0  0  0  0  0  0  0  0  0  0
   19.8975   14.6031   51.8189 C   0  0  0  0  0  0  0  0  0  0  0  0
   21.3722   14.2139   51.7225 C   0  0  0  0  0  0  0  0  0  0  0  0
   21.9820   15.0791   50.6186 C   0  0  0  0  0  0  0  0  0  0  0  0
   23.6357    6.7886   53.7642 N   0  0  0  0  0  0  0  0  0  0  0  0
   23.9313    6.2645   54.6388 H   0  0  0  0  0  0  0  0  0  0  0  0
   24.6217    7.2262   52.9427 N   0  0  0  0  0  0  0  0  0  0  0  0
   25.6724    7.8488   53.0565 C   0  0  0  0  0  0  0  0  0  0  0  0
   26.2660    8.3805   54.2595 C   0  0  0  0  0  0  0  0  0  0  0  0
   25.5689    8.8415   55.3521 C   0  0  0  0  0  0  0  0  0  0  0  0
   26.1950    9.3456   56.4902 C   0  0  0  0  0  0  0  0  0  0  0  0
   27.5661    9.4085   56.5788 C   0  0  0  0  0  0  0  0  0  0  0  0
   28.2905    8.9548   55.5016 C   0  0  0  0  0  0  0  0  0  0  0  0
   27.6639    8.4615   54.3888 C   0  0  0  0  0  0  0  0  0  0  0  0
   28.1997    9.9272   57.7502 N   0  0  0  0  0  0  0  0  0  0  0  0
   28.4063   11.1524   57.8354 O   0  0  0  0  0  0  0  0  0  0  0  0
   28.5492    9.0320   58.7283 O   0  0  0  0  0  0  0  0  0  0  0  0
 13 14  1  0  0  0
 14 15  1  0  0  0
 14 12  1  0  0  0
 12  6  1  0  0  0
  6  7  2  0  0  0
  7  8  1  0  0  0
  8  9  2  0  0  0
  9  5  1  0  0  0
  5  3  1  0  0  0
  3  1  1  0  0  0
  1  2  2  0  0  0
  1 16  1  0  0  0
 16 18  1  0  0  0
 18 19  2  0  0  0
 19 20  1  0  0  0
 20 21  2  0  0  0
 21 22  1  0  0  0
 22 23  2  0  0  0
 23 26  1  0  0  0
 26 27  2  0  0  0
 26 28  1  0  0  0
 23 24  1  0  0  0
 24 25  2  0  0  0
  9 10  1  0  0  0
 10 11  2  0  0  0
 11  6  1  0  0  0
 25 20  1  0  0  0
  3  4  1  0  0  0
 16 17  1  0  0  0
M  CHG 1  26   1
M  CHG 1  28  -1
M  END
> <minimizedAffinity>
6.69964

> <CNNscore>
0.6373385191

> <CNNaffinity>
6.0261468887

> <CNN_VS>
3.8406956196

> <CNNaffinity_variance>
0.3553576469

$$$$
[H]C(=NN([H])C(=S)N([H])C([H])([H])c1c([H])c([H])c(OC([H])(C([H])([H])[H])C([H])([H])[H])c([H])c1[H])c1c([H])c([H])c([N+](=O)[O-])c([H])c1[H]


 28 29  0  0  0  0  0  0  0  0999 V2000
   23.0339    6.1951   53.8995 C   0  0  0  0  0  0  0  0  0  0  0  0
   21.7617    5.5895   53.0869 S   0  0  0  0  0  0  0  0  0  0  0  0
   24.2047    6.5385   53.1973 N   0  0  0  0  0  0  0  0  0  0  0  0
   24.8118    5.8031   52.7895 H   0  0  0  0  0  0  0  0  0  0  0  0
   24.5767    7.9242   53.0352 C   0  0  0  0  0  0  0  0  0  0  0  0
   27.4922    9.1368   55.9416 C   0  0  0  0  0  0  0  0  0  0  0  0
   26.1226    9.2222   56.1955 C   0  0  0  0  0  0  0  0  0  0  0  0
   25.2025    8.8288   55.2520 C   0  0  0  0  0  0  0  0  0  0  0  0
   25.5969    8.3382   54.0267 C   0  0  0  0  0  0  0  0  0  0  0  0
   26.9506    8.2678   53.8107 C   0  0  0  0  0  0  0  0  0  0  0  0
   27.9083    8.6568   54.7423 C   0  0  0  0  0  0  0  0  0  0  0  0
   28.3698    9.5414   56.9144 O   0  0  0  0  0  0  0  0  0  0  0  0
   28.7120   10.9858   58.8270 C   0  0  0  0  0  0  0  0  0  0  0  0
   28.1046    9.7028   58.2613 C   0  0  0  0  0  0  0  0  0  0  0  0
   28.7238    8.5433   59.0432 C   0  0  0  0  0  0  0  0  0  0  0  0
   22.9723    6.3799   55.3115 N   0  0  0  0  0  0  0  0  0  0  0  0
   23.7536    6.0352   55.9421 H   0  0  0  0  0  0  0  0  0  0  0  0
   21.9223    6.9961   55.9084 N   0  0  0  0  0  0  0  0  0  0  0  0
   21.2238    7.9821   55.6971 C   0  0  0  0  0  0  0  0  0  0  0  0
   21.3131    8.9181   54.6025 C   0  0  0  0  0  0  0  0  0  0  0  0
   21.1322    8.6068   53.2749 C   0  0  0  0  0  0  0  0  0  0  0  0
   21.2302    9.5529   52.2568 C   0  0  0  0  0  0  0  0  0  0  0  0
   21.5182   10.8689   52.5342 C   0  0  0  0  0  0  0  0  0  0  0  0
   21.7045   11.2107   53.8530 C   0  0  0  0  0  0  0  0  0  0  0  0
   21.6055   10.2721   54.8447 C   0  0  0  0  0  0  0  0  0  0  0  0
   21.6168   11.8326   51.4833 N   0  0  0  0  0  0  0  0  0  0  0  0
   21.0912   11.5842   50.3819 O   0  0  0  0  0  0  0  0  0  0  0  0
   22.2954   12.9934   51.7523 O   0  0  0  0  0  0  0  0  0  0  0  0
 13 14  1  0  0  0
 14 15  1  0  0  0
 14 12  1  0  0  0
 12  6  1  0  0  0
  6  7  2  0  0  0
  7  8  1  0  0  0
  8  9  2  0  0  0
  9  5  1  0  0  0
  5  3  1  0  0  0
  3  1  1  0  0  0
  1  2  2  0  0  0
  1 16  1  0  0  0
 16 18  1  0  0  0
 18 19  2  0  0  0
 19 20  1  0  0  0
 20 21  2  0  0  0
 21 22  1  0  0  0
 22 23  2  0  0  0
 23 26  1  0  0  0
 26 27  2  0  0  0
 26 28  1  0  0  0
 23 24  1  0  0  0
 24 25  2  0  0  0
  9 10  1  0  0  0
 10 11  2  0  0  0
 11  6  1  0  0  0
 25 20  1  0  0  0
  3  4  1  0  0  0
 16 17  1  0  0  0
M  CHG 1  26   1
M  CHG 1  28  -1
M  END
> <minimizedAffinity>
0.18080

> <CNNscore>
0.6324943900

> <CNNaffinity>
6.0258307457

> <CNN_VS>
3.8113040924

> <CNNaffinity_variance>
0.5901495218

$$$$
[H]C(=NN([H])C(=S)N([H])C([H])([H])c1c([H])c([H])c(OC([H])(C([H])([H])[H])C([H])([H])[H])c([H])c1[H])c1c([H])c([H])c([N+](=O)[O-])c([H])c1[H]


 28 29  0  0  0  0  0  0  0  0999 V2000
   20.4704    7.1351   53.9680 C   0  0  0  0  0  0  0  0  0  0  0  0
   19.1701    6.8132   53.0453 S   0  0  0  0  0  0  0  0  0  0  0  0
   20.4634    8.2677   54.8040 N   0  0  0  0  0  0  0  0  0  0  0  0
   19.6306    8.4959   55.3786 H   0  0  0  0  0  0  0  0  0  0  0  0
   21.6199    9.1293   54.8726 C   0  0  0  0  0  0  0  0  0  0  0  0
   21.5024   12.2322   51.9101 C   0  0  0  0  0  0  0  0  0  0  0  0
   21.6019   12.5204   53.2719 C   0  0  0  0  0  0  0  0  0  0  0  0
   21.6383   11.5128   54.2073 C   0  0  0  0  0  0  0  0  0  0  0  0
   21.5781   10.1876   53.8364 C   0  0  0  0  0  0  0  0  0  0  0  0
   21.4808    9.9402   52.4897 C   0  0  0  0  0  0  0  0  0  0  0  0
   21.4416   10.9346   51.5170 C   0  0  0  0  0  0  0  0  0  0  0  0
   21.4698   13.2717   51.0165 O   0  0  0  0  0  0  0  0  0  0  0  0
   21.3149   15.6534   50.6102 C   0  0  0  0  0  0  0  0  0  0  0  0
   20.6194   14.3611   51.0361 C   0  0  0  0  0  0  0  0  0  0  0  0
   20.1142   14.5853   52.4622 C   0  0  0  0  0  0  0  0  0  0  0  0
   21.6121    6.2825   53.9363 N   0  0  0  0  0  0  0  0  0  0  0  0
   21.8980    5.7204   54.7903 H   0  0  0  0  0  0  0  0  0  0  0  0
   22.3793    6.1531   52.8258 N   0  0  0  0  0  0  0  0  0  0  0  0
   23.5128    6.4679   52.4782 C   0  0  0  0  0  0  0  0  0  0  0  0
   24.5167    7.1668   53.2437 C   0  0  0  0  0  0  0  0  0  0  0  0
   25.4604    8.0214   52.7227 C   0  0  0  0  0  0  0  0  0  0  0  0
   26.4083    8.6712   53.5104 C   0  0  0  0  0  0  0  0  0  0  0  0
   26.4480    8.4867   54.8728 C   0  0  0  0  0  0  0  0  0  0  0  0
   25.5168    7.6375   55.4230 C   0  0  0  0  0  0  0  0  0  0  0  0
   24.5902    7.0048   54.6387 C   0  0  0  0  0  0  0  0  0  0  0  0
   27.4241    9.1574   55.6729 N   0  0  0  0  0  0  0  0  0  0  0  0
   27.0710    9.6839   56.7449 O   0  0  0  0  0  0  0  0  0  0  0  0
   28.7134    9.1833   55.2069 O   0  0  0  0  0  0  0  0  0  0  0  0
 13 14  1  0  0  0
 14 15  1  0  0  0
 14 12  1  0  0  0
 12  6  1  0  0  0
  6  7  2  0  0  0
  7  8  1  0  0  0
  8  9  2  0  0  0
  9  5  1  0  0  0
  5  3  1  0  0  0
  3  1  1  0  0  0
  1  2  2  0  0  0
  1 16  1  0  0  0
 16 18  1  0  0  0
 18 19  2  0  0  0
 19 20  1  0  0  0
 20 21  2  0  0  0
 21 22  1  0  0  0
 22 23  2  0  0  0
 23 26  1  0  0  0
 26 27  2  0  0  0
 26 28  1  0  0  0
 23 24  1  0  0  0
 24 25  2  0  0  0
  9 10  1  0  0  0
 10 11  2  0  0  0
 11  6  1  0  0  0
 25 20  1  0  0  0
  3  4  1  0  0  0
 16 17  1  0  0  0
M  CHG 1  26   1
M  CHG 1  28  -1
M  END
> <minimizedAffinity>
10.73093

> <CNNscore>
0.6207340360

> <CNNaffinity>
6.0431737900

> <CNN_VS>
3.7512037754

> <CNNaffinity_variance>
0.2770713568

$$$$
[H]C(=NN([H])C(=S)N([H])C([H])([H])c1c([H])c([H])c(OC([H])(C([H])([H])[H])C([H])([H])[H])c([H])c1[H])c1c([H])c([H])c([N+](=O)[O-])c([H])c1[H]


 28 29  0  0  0  0  0  0  0  0999 V2000
   22.0183    8.7858   52.3727 C   0  0  0  0  0  0  0  0  0  0  0  0
   21.7596   10.3816   52.5526 S   0  0  0  0  0  0  0  0  0  0  0  0
   23.3302    8.2826   52.4591 N   0  0  0  0  0  0  0  0  0  0  0  0
   24.0375    8.5232   51.7399 H   0  0  0  0  0  0  0  0  0  0  0  0
   23.7091    7.4218   53.5547 C   0  0  0  0  0  0  0  0  0  0  0  0
   26.9761    9.0564   55.8070 C   0  0  0  0  0  0  0  0  0  0  0  0
   25.6476    9.2975   56.1597 C   0  0  0  0  0  0  0  0  0  0  0  0
   24.6132    8.7652   55.4260 C   0  0  0  0  0  0  0  0  0  0  0  0
   24.8491    7.9779   54.3206 C   0  0  0  0  0  0  0  0  0  0  0  0
   26.1666    7.7613   54.0023 C   0  0  0  0  0  0  0  0  0  0  0  0
   27.2368    8.2839   54.7221 C   0  0  0  0  0  0  0  0  0  0  0  0
   27.9720    9.6094   56.5703 O   0  0  0  0  0  0  0  0  0  0  0  0
   28.5882   11.2678   58.2231 C   0  0  0  0  0  0  0  0  0  0  0  0
   27.9106    9.9338   57.9125 C   0  0  0  0  0  0  0  0  0  0  0  0
   28.6470    8.8687   58.7264 C   0  0  0  0  0  0  0  0  0  0  0  0
   20.9310    7.8970   52.1291 N   0  0  0  0  0  0  0  0  0  0  0  0
   20.8286    7.4022   51.1955 H   0  0  0  0  0  0  0  0  0  0  0  0
   19.9856    7.6470   53.0684 N   0  0  0  0  0  0  0  0  0  0  0  0
   19.5282    6.6623   53.6393 C   0  0  0  0  0  0  0  0  0  0  0  0
   19.9028    5.2795   53.4668 C   0  0  0  0  0  0  0  0  0  0  0  0
   21.1623    4.8329   53.1406 C   0  0  0  0  0  0  0  0  0  0  0  0
   21.4687    3.4824   52.9864 C   0  0  0  0  0  0  0  0  0  0  0  0
   20.5093    2.5116   53.1557 C   0  0  0  0  0  0  0  0  0  0  0  0
   19.2399    2.9276   53.4822 C   0  0  0  0  0  0  0  0  0  0  0  0
   18.9510    4.2575   53.6312 C   0  0  0  0  0  0  0  0  0  0  0  0
   20.8327    1.1287   52.9954 N   0  0  0  0  0  0  0  0  0  0  0  0
   21.8792    0.8165   52.3967 O   0  0  0  0  0  0  0  0  0  0  0  0
   19.9585    0.2107   53.5181 O   0  0  0  0  0  0  0  0  0  0  0  0
 13 14  1  0  0  0
 14 15  1  0  0  0
 14 12  1  0  0  0
 12  6  1  0  0  0
  6  7  2  0  0  0
  7  8  1  0  0  0
  8  9  2  0  0  0
  9  5  1  0  0  0
  5  3  1  0  0  0
  3  1  1  0  0  0
  1  2  2  0  0  0
  1 16  1  0  0  0
 16 18  1  0  0  0
 18 19  2  0  0  0
 19 20  1  0  0  0
 20 21  2  0  0  0
 21 22  1  0  0  0
 22 23  2  0  0  0
 23 26  1  0  0  0
 26 27  2  0  0  0
 26 28  1  0  0  0
 23 24  1  0  0  0
 24 25  2  0  0  0
  9 10  1  0  0  0
 10 11  2  0  0  0
 11  6  1  0  0  0
 25 20  1  0  0  0
  3  4  1  0  0  0
 16 17  1  0  0  0
M  CHG 1  26   1
M  CHG 1  28  -1
M  END
> <minimizedAffinity>
22.98771

> <CNNscore>
0.6150251627

> <CNNaffinity>
5.8507094383

> <CNN_VS>
3.5983335972

> <CNNaffinity_variance>
0.4793005586

$$$$
[H]C(=NN([H])C(=S)N([H])C([H])([H])c1c([H])c([H])c(OC([H])(C([H])([H])[H])C([H])([H])[H])c([H])c1[H])c1c([H])c([H])c([N+](=O)[O-])c([H])c1[H]


 28 29  0  0  0  0  0  0  0  0999 V2000
   21.2533   10.7816   52.3567 C   0  0  0  0  0  0  0  0  0  0  0  0
   21.8908   11.8788   51.3391 S   0  0  0  0  0  0  0  0  0  0  0  0
   21.5251   10.8747   53.7348 N   0  0  0  0  0  0  0  0  0  0  0  0
   21.5466   11.7971   54.2086 H   0  0  0  0  0  0  0  0  0  0  0  0
   21.7782    9.6827   54.5093 C   0  0  0  0  0  0  0  0  0  0  0  0
   25.9284    8.5952   54.4073 C   0  0  0  0  0  0  0  0  0  0  0  0
   25.1203    8.5153   53.2725 C   0  0  0  0  0  0  0  0  0  0  0  0
   23.7919    8.8681   53.3238 C   0  0  0  0  0  0  0  0  0  0  0  0
   23.2125    9.3115   54.4922 C   0  0  0  0  0  0  0  0  0  0  0  0
   24.0359    9.3778   55.5885 C   0  0  0  0  0  0  0  0  0  0  0  0
   25.3830    9.0290   55.5718 C   0  0  0  0  0  0  0  0  0  0  0  0
   27.2468    8.2321   54.3051 O   0  0  0  0  0  0  0  0  0  0  0  0
   29.5977    7.9999   54.8353 C   0  0  0  0  0  0  0  0  0  0  0  0
   28.3301    8.8510   54.8998 C   0  0  0  0  0  0  0  0  0  0  0  0
   28.0324    9.0814   56.3823 C   0  0  0  0  0  0  0  0  0  0  0  0
   20.4251    9.7308   51.8652 N   0  0  0  0  0  0  0  0  0  0  0  0
   19.3784    9.7320   52.0424 H   0  0  0  0  0  0  0  0  0  0  0  0
   20.9312    8.6906   51.1579 N   0  0  0  0  0  0  0  0  0  0  0  0
   21.4544    7.6090   51.4052 C   0  0  0  0  0  0  0  0  0  0  0  0
   21.7313    7.0290   52.6971 C   0  0  0  0  0  0  0  0  0  0  0  0
   20.9153    7.1220   53.8006 C   0  0  0  0  0  0  0  0  0  0  0  0
   21.2330    6.5408   55.0265 C   0  0  0  0  0  0  0  0  0  0  0  0
   22.3997    5.8327   55.1967 C   0  0  0  0  0  0  0  0  0  0  0  0
   23.2364    5.7225   54.1110 C   0  0  0  0  0  0  0  0  0  0  0  0
   22.9132    6.2979   52.9115 C   0  0  0  0  0  0  0  0  0  0  0  0
   22.7174    5.2399   56.4579 N   0  0  0  0  0  0  0  0  0  0  0  0
   23.7840    4.6085   56.5793 O   0  0  0  0  0  0  0  0  0  0  0  0
   21.8152    5.4029   57.4776 O   0  0  0  0  0  0  0  0  0  0  0  0
 13 14  1  0  0  0
 14 15  1  0  0  0
 14 12  1  0  0  0
 12  6  1  0  0  0
  6  7  2  0  0  0
  7  8  1  0  0  0
  8  9  2  0  0  0
  9  5  1  0  0  0
  5  3  1  0  0  0
  3  1  1  0  0  0
  1  2  2  0  0  0
  1 16  1  0  0  0
 16 18  1  0  0  0
 18 19  2  0  0  0
 19 20  1  0  0  0
 20 21  2  0  0  0
 21 22  1  0  0  0
 22 23  2  0  0  0
 23 26  1  0  0  0
 26 27  2  0  0  0
 26 28  1  0  0  0
 23 24  1  0  0  0
 24 25  2  0  0  0
  9 10  1  0  0  0
 10 11  2  0  0  0
 11  6  1  0  0  0
 25 20  1  0  0  0
  3  4  1  0  0  0
 16 17  1  0  0  0
M  CHG 1  26   1
M  CHG 1  28  -1
M  END
> <minimizedAffinity>
9.44937

> <CNNscore>
0.5858176351

> <CNNaffinity>
6.3883028030

> <CNN_VS>
3.7423803806

> <CNNaffinity_variance>
0.4517992139

$$$$
[H]C(=NN([H])C(=S)N([H])C([H])([H])c1c([H])c([H])c(OC([H])(C([H])([H])[H])C([H])([H])[H])c([H])c1[H])c1c([H])c([H])c([N+](=O)[O-])c([H])c1[H]


 28 29  0  0  0  0  0  0  0  0999 V2000
   21.0790    9.5363   53.2093 C   0  0  0  0  0  0  0  0  0  0  0  0
   21.6759   10.9319   52.6247 S   0  0  0  0  0  0  0  0  0  0  0  0
   20.8635    9.4009   54.5938 N   0  0  0  0  0  0  0  0  0  0  0  0
   20.2614   10.0740   55.1038 H   0  0  0  0  0  0  0  0  0  0  0  0
   21.4803    8.3189   55.3244 C   0  0  0  0  0  0  0  0  0  0  0  0
   25.6664    8.0109   54.4301 C   0  0  0  0  0  0  0  0  0  0  0  0
   25.1273    9.1443   55.0400 C   0  0  0  0  0  0  0  0  0  0  0  0
   23.7830    9.2255   55.3192 C   0  0  0  0  0  0  0  0  0  0  0  0
   22.9227    8.1955   55.0085 C   0  0  0  0  0  0  0  0  0  0  0  0
   23.4864    7.0964   54.4098 C   0  0  0  0  0  0  0  0  0  0  0  0
   24.8411    6.9812   54.1134 C   0  0  0  0  0  0  0  0  0  0  0  0
   27.0128    7.9779   54.1725 O   0  0  0  0  0  0  0  0  0  0  0  0
   27.5085    9.1050   56.2571 C   0  0  0  0  0  0  0  0  0  0  0  0
   28.0313    8.4013   55.0054 C   0  0  0  0  0  0  0  0  0  0  0  0
   28.9041    9.4158   54.2650 C   0  0  0  0  0  0  0  0  0  0  0  0
   20.7738    8.4539   52.3336 N   0  0  0  0  0  0  0  0  0  0  0  0
   19.9767    8.5237   51.6359 H   0  0  0  0  0  0  0  0  0  0  0  0
   21.4791    7.2959   52.3526 N   0  0  0  0  0  0  0  0  0  0  0  0
   21.2665    6.1220   52.6379 C   0  0  0  0  0  0  0  0  0  0  0  0
   20.0369    5.5278   53.1040 C   0  0  0  0  0  0  0  0  0  0  0  0
   19.8345    4.1836   53.3146 C   0  0  0  0  0  0  0  0  0  0  0  0
   18.6235    3.6635   53.7668 C   0  0  0  0  0  0  0  0  0  0  0  0
   17.5512    4.4837   54.0296 C   0  0  0  0  0  0  0  0  0  0  0  0
   17.7232    5.8331   53.8283 C   0  0  0  0  0  0  0  0  0  0  0  0
   18.9179    6.3322   53.3837 C   0  0  0  0  0  0  0  0  0  0  0  0
   16.3127    3.9413   54.4931 N   0  0  0  0  0  0  0  0  0  0  0  0
   15.3768    3.7908   53.6854 O   0  0  0  0  0  0  0  0  0  0  0  0
   16.2248    3.6128   55.8215 O   0  0  0  0  0  0  0  0  0  0  0  0
 13 14  1  0  0  0
 14 15  1  0  0  0
 14 12  1  0  0  0
 12  6  1  0  0  0
  6  7  2  0  0  0
  7  8  1  0  0  0
  8  9  2  0  0  0
  9  5  1  0  0  0
  5  3  1  0  0  0
  3  1  1  0  0  0
  1  2  2  0  0  0
  1 16  1  0  0  0
 16 18  1  0  0  0
 18 19  2  0  0  0
 19 20  1  0  0  0
 20 21  2  0  0  0
 21 22  1  0  0  0
 22 23  2  0  0  0
 23 26  1  0  0  0
 26 27  2  0  0  0
 26 28  1  0  0  0
 23 24  1  0  0  0
 24 25  2  0  0  0
  9 10  1  0  0  0
 10 11  2  0  0  0
 11  6  1  0  0  0
 25 20  1  0  0  0
  3  4  1  0  0  0
 16 17  1  0  0  0
M  CHG 1  26   1
M  CHG 1  28  -1
M  END
> <minimizedAffinity>
11.83673

> <CNNscore>
0.5773420930

> <CNNaffinity>
6.2441353798

> <CNN_VS>
3.6050021648

> <CNNaffinity_variance>
0.4326926768

$$$$
[H]c1nc(N([H])[H])c(C(=O)N([H])c2c([H])nc([H])c([H])c2N2C([H])([H])C([H])([H])C([H])(N([H])[H])C([H])([H])C2([H])[H])nc1-c1c([H])c([H])c(OC([H])([H])[H])c([H])c1[H]


 36 39  0  0  0  0  0  0  0  0999 V2000
   24.9167    8.5370   54.8367 C   0  0  0  0  0  0  0  0  0  0  0  0
   24.5914    7.3399   54.9580 O   0  0  0  0  0  0  0  0  0  0  0  0
   24.1162    9.6683   55.0476 N   0  0  0  0  0  0  0  0  0  0  0  0
   24.6149   10.6017   54.9020 H   0  0  0  0  0  0  0  0  0  0  0  0
   27.8767    9.0128   52.6402 C   0  0  0  0  0  0  0  0  0  0  0  0
   28.8734    9.1133   53.5727 C   0  0  0  0  0  0  0  0  0  0  0  0
   28.6088    9.0303   54.9125 N   0  0  0  0  0  0  0  0  0  0  0  0
   27.3330    8.8447   55.3309 C   0  0  0  0  0  0  0  0  0  0  0  0
   27.0200    8.7543   56.7241 N   0  0  0  0  0  0  0  0  0  0  0  0
   26.3292    8.7426   54.4174 C   0  0  0  0  0  0  0  0  0  0  0  0
   26.6260    8.8293   53.0909 N   0  0  0  0  0  0  0  0  0  0  0  0
   26.8661    7.8353   57.1857 H   0  0  0  0  0  0  0  0  0  0  0  0
   26.9469    9.6147   57.2732 H   0  0  0  0  0  0  0  0  0  0  0  0
   28.5591    9.3473   48.4392 C   0  0  0  0  0  0  0  0  0  0  0  0
   28.6716    8.1245   49.0532 C   0  0  0  0  0  0  0  0  0  0  0  0
   28.4488    8.0373   50.4054 C   0  0  0  0  0  0  0  0  0  0  0  0
   28.1154    9.0934   51.2137 C   0  0  0  0  0  0  0  0  0  0  0  0
   28.0081   10.3280   50.5572 C   0  0  0  0  0  0  0  0  0  0  0  0
   28.2244   10.4565   49.1998 C   0  0  0  0  0  0  0  0  0  0  0  0
   29.0426    8.2785   46.3323 C   0  0  0  0  0  0  0  0  0  0  0  0
   28.7821    9.4387   47.0813 O   0  0  0  0  0  0  0  0  0  0  0  0
   22.7646    9.7316   55.4443 C   0  0  0  0  0  0  0  0  0  0  0  0
   22.3523   10.3746   56.5722 C   0  0  0  0  0  0  0  0  0  0  0  0
   21.0526   10.4605   56.9063 N   0  0  0  0  0  0  0  0  0  0  0  0
   20.0936    9.9182   56.1471 C   0  0  0  0  0  0  0  0  0  0  0  0
   20.4471    9.2569   54.9987 C   0  0  0  0  0  0  0  0  0  0  0  0
   21.7898    9.1568   54.6365 C   0  0  0  0  0  0  0  0  0  0  0  0
   22.1425    8.4381   53.4711 N   0  0  0  0  0  0  0  0  0  0  0  0
   22.1077    7.0087   53.3472 C   0  0  0  0  0  0  0  0  0  0  0  0
   21.3751    6.6220   52.0833 C   0  0  0  0  0  0  0  0  0  0  0  0
   20.6627    7.8025   51.5043 C   0  0  0  0  0  0  0  0  0  0  0  0
   20.0651    7.4439   50.2107 N   0  0  0  0  0  0  0  0  0  0  0  0
   21.5431    8.9905   51.2259 C   0  0  0  0  0  0  0  0  0  0  0  0
   22.5702    9.1924   52.3009 C   0  0  0  0  0  0  0  0  0  0  0  0
   19.7896    8.2931   49.7079 H   0  0  0  0  0  0  0  0  0  0  0  0
   19.3133    6.7356   50.3275 H   0  0  0  0  0  0  0  0  0  0  0  0
 20 21  1  0  0  0
 21 14  1  0  0  0
 14 15  2  0  0  0
 15 16  1  0  0  0
 16 17  2  0  0  0
 17  5  1  0  0  0
  5  6  2  0  0  0
  6  7  1  0  0  0
  7  8  2  0  0  0
  8  9  1  0  0  0
  8 10  1  0  0  0
 10  1  1  0  0  0
  1  2  2  0  0  0
  1  3  1  0  0  0
  3 22  1  0  0  0
 22 23  2  0  0  0
 23 24  1  0  0  0
 24 25  2  0  0  0
 25 26  1  0  0  0
 26 27  2  0  0  0
 27 28  1  0  0  0
 28 29  1  0  0  0
 29 30  1  0  0  0
 30 31  1  0  0  0
 31 32  1  0  0  0
 31 33  1  0  0  0
 33 34  1  0  0  0
 10 11  2  0  0  0
 17 18  1  0  0  0
 18 19  2  0  0  0
 19 14  1  0  0  0
 11  5  1  0  0  0
 27 22  1  0  0  0
 34 28  1  0  0  0
  9 12  1  0  0  0
  9 13  1  0  0  0
  3  4  1  0  0  0
 32 35  1  0  0  0
 32 36  1  0  0  0
M  END
> <minimizedAffinity>
35.97496

> <CNNscore>
0.5192947388

> <CNNaffinity>
6.4512252808

> <CNN_VS>
3.3500874043

> <CNNaffinity_variance>
0.7947735190

$$$$
[H]c1nc(N([H])[H])c(C(=O)N([H])c2c([H])nc([H])c([H])c2N2C([H])([H])C([H])([H])C([H])(N([H])[H])C([H])([H])C2([H])[H])nc1-c1c([H])c([H])c(OC([H])([H])[H])c([H])c1[H]


 36 39  0  0  0  0  0  0  0  0999 V2000
   21.8963    9.2637   52.1213 C   0  0  0  0  0  0  0  0  0  0  0  0
   20.8306    8.8352   51.6375 O   0  0  0  0  0  0  0  0  0  0  0  0
   22.2993   10.5993   52.2585 N   0  0  0  0  0  0  0  0  0  0  0  0
   23.2520   10.7329   52.7230 H   0  0  0  0  0  0  0  0  0  0  0  0
   24.7693    7.6299   53.8210 C   0  0  0  0  0  0  0  0  0  0  0  0
   24.5459    6.3190   53.4974 C   0  0  0  0  0  0  0  0  0  0  0  0
   23.4746    5.9448   52.7330 N   0  0  0  0  0  0  0  0  0  0  0  0
   22.6124    6.8892   52.2840 C   0  0  0  0  0  0  0  0  0  0  0  0
   21.4812    6.5336   51.4833 N   0  0  0  0  0  0  0  0  0  0  0  0
   22.8190    8.1978   52.5963 C   0  0  0  0  0  0  0  0  0  0  0  0
   23.8951    8.5374   53.3591 N   0  0  0  0  0  0  0  0  0  0  0  0
   21.4930    6.6459   50.4496 H   0  0  0  0  0  0  0  0  0  0  0  0
   20.6455    6.1616   51.9421 H   0  0  0  0  0  0  0  0  0  0  0  0
   28.0138    8.9567   56.2580 C   0  0  0  0  0  0  0  0  0  0  0  0
   28.2699    8.3177   55.0701 C   0  0  0  0  0  0  0  0  0  0  0  0
   27.2130    7.8980   54.3004 C   0  0  0  0  0  0  0  0  0  0  0  0
   25.8918    8.0671   54.6256 C   0  0  0  0  0  0  0  0  0  0  0  0
   25.6632    8.7227   55.8441 C   0  0  0  0  0  0  0  0  0  0  0  0
   26.6988    9.1596   56.6458 C   0  0  0  0  0  0  0  0  0  0  0  0
   28.8344   10.1132   58.2084 C   0  0  0  0  0  0  0  0  0  0  0  0
   29.0728    9.3798   57.0336 O   0  0  0  0  0  0  0  0  0  0  0  0
   21.6087   11.7720   51.8895 C   0  0  0  0  0  0  0  0  0  0  0  0
   21.4993   12.1927   50.5985 C   0  0  0  0  0  0  0  0  0  0  0  0
   20.7970   13.2902   50.2659 N   0  0  0  0  0  0  0  0  0  0  0  0
   20.1672   14.0284   51.1871 C   0  0  0  0  0  0  0  0  0  0  0  0
   20.2414   13.6551   52.5048 C   0  0  0  0  0  0  0  0  0  0  0  0
   20.9657   12.5207   52.8688 C   0  0  0  0  0  0  0  0  0  0  0  0
   21.0664   12.1704   54.2349 N   0  0  0  0  0  0  0  0  0  0  0  0
   19.9516   11.8861   55.0929 C   0  0  0  0  0  0  0  0  0  0  0  0
   20.1942   10.5927   55.8359 C   0  0  0  0  0  0  0  0  0  0  0  0
   21.3582    9.8585   55.2508 C   0  0  0  0  0  0  0  0  0  0  0  0
   21.6629    8.6718   56.0620 N   0  0  0  0  0  0  0  0  0  0  0  0
   22.6364   10.6505   55.1994 C   0  0  0  0  0  0  0  0  0  0  0  0
   22.3945   12.0836   54.8266 C   0  0  0  0  0  0  0  0  0  0  0  0
   22.5873    8.3079   55.8115 H   0  0  0  0  0  0  0  0  0  0  0  0
   20.8888    7.9793   56.0204 H   0  0  0  0  0  0  0  0  0  0  0  0
 20 21  1  0  0  0
 21 14  1  0  0  0
 14 15  2  0  0  0
 15 16  1  0  0  0
 16 17  2  0  0  0
 17  5  1  0  0  0
  5  6  2  0  0  0
  6  7  1  0  0  0
  7  8  2  0  0  0
  8  9  1  0  0  0
  8 10  1  0  0  0
 10  1  1  0  0  0
  1  2  2  0  0  0
  1  3  1  0  0  0
  3 22  1  0  0  0
 22 23  2  0  0  0
 23 24  1  0  0  0
 24 25  2  0  0  0
 25 26  1  0  0  0
 26 27  2  0  0  0
 27 28  1  0  0  0
 28 29  1  0  0  0
 29 30  1  0  0  0
 30 31  1  0  0  0
 31 32  1  0  0  0
 31 33  1  0  0  0
 33 34  1  0  0  0
 10 11  2  0  0  0
 17 18  1  0  0  0
 18 19  2  0  0  0
 19 14  1  0  0  0
 11  5  1  0  0  0
 27 22  1  0  0  0
 34 28  1  0  0  0
  9 12  1  0  0  0
  9 13  1  0  0  0
  3  4  1  0  0  0
 32 35  1  0  0  0
 32 36  1  0  0  0
M  END
> <minimizedAffinity>
38.32509

> <CNNscore>
0.5075573325

> <CNNaffinity>
6.5426206589

> <CNN_VS>
3.3207550049

> <CNNaffinity_variance>
0.7878332138

$$$$
[H]c1nc(N([H])[H])c(C(=O)N([H])c2c([H])nc([H])c([H])c2N2C([H])([H])C([H])([H])C([H])(N([H])[H])C([H])([H])C2([H])[H])nc1-c1c([H])c([H])c(OC([H])([H])[H])c([H])c1[H]


 36 39  0  0  0  0  0  0  0  0999 V2000
   25.6867    7.7165   54.1796 C   0  0  0  0  0  0  0  0  0  0  0  0
   25.6622    7.2905   55.3507 O   0  0  0  0  0  0  0  0  0  0  0  0
   24.7231    7.5287   53.1791 N   0  0  0  0  0  0  0  0  0  0  0  0
   24.9460    8.0051   52.2492 H   0  0  0  0  0  0  0  0  0  0  0  0
   28.1995    9.5917   52.1842 C   0  0  0  0  0  0  0  0  0  0  0  0
   29.0820    9.9582   53.1639 C   0  0  0  0  0  0  0  0  0  0  0  0
   28.8821    9.6097   54.4718 N   0  0  0  0  0  0  0  0  0  0  0  0
   27.7874    8.8858   54.8100 C   0  0  0  0  0  0  0  0  0  0  0  0
   27.5464    8.5047   56.1679 N   0  0  0  0  0  0  0  0  0  0  0  0
   26.8991    8.5126   53.8487 C   0  0  0  0  0  0  0  0  0  0  0  0
   27.1271    8.8754   52.5558 N   0  0  0  0  0  0  0  0  0  0  0  0
   27.7725    7.5492   56.5103 H   0  0  0  0  0  0  0  0  0  0  0  0
   27.1428    9.1903   56.8117 H   0  0  0  0  0  0  0  0  0  0  0  0
   28.7332   10.7089   48.0985 C   0  0  0  0  0  0  0  0  0  0  0  0
   28.4488    9.4042   48.4172 C   0  0  0  0  0  0  0  0  0  0  0  0
   28.2811    9.0643   49.7370 C   0  0  0  0  0  0  0  0  0  0  0  0
   28.3758    9.9387   50.7889 C   0  0  0  0  0  0  0  0  0  0  0  0
   28.6671   11.2631   50.4309 C   0  0  0  0  0  0  0  0  0  0  0  0
   28.8427   11.6440   49.1156 C   0  0  0  0  0  0  0  0  0  0  0  0
   29.2082   12.3810   46.4271 C   0  0  0  0  0  0  0  0  0  0  0  0
   28.9022   11.0541   46.7740 O   0  0  0  0  0  0  0  0  0  0  0  0
   23.5046    6.8225   53.2485 C   0  0  0  0  0  0  0  0  0  0  0  0
   23.4168    5.4756   53.0644 C   0  0  0  0  0  0  0  0  0  0  0  0
   22.2501    4.8172   53.1803 N   0  0  0  0  0  0  0  0  0  0  0  0
   21.1115    5.4511   53.4834 C   0  0  0  0  0  0  0  0  0  0  0  0
   21.1364    6.8083   53.6799 C   0  0  0  0  0  0  0  0  0  0  0  0
   22.3367    7.5081   53.5630 C   0  0  0  0  0  0  0  0  0  0  0  0
   22.3403    8.9122   53.7292 N   0  0  0  0  0  0  0  0  0  0  0  0
   21.5524    9.8312   52.9581 C   0  0  0  0  0  0  0  0  0  0  0  0
   20.8317   10.7869   53.8806 C   0  0  0  0  0  0  0  0  0  0  0  0
   20.9155   10.3164   55.2976 C   0  0  0  0  0  0  0  0  0  0  0  0
   20.3255   11.3189   56.1955 N   0  0  0  0  0  0  0  0  0  0  0  0
   22.3156   10.0972   55.8029 C   0  0  0  0  0  0  0  0  0  0  0  0
   23.1993    9.4808   54.7587 C   0  0  0  0  0  0  0  0  0  0  0  0
   20.5916   11.1171   57.1641 H   0  0  0  0  0  0  0  0  0  0  0  0
   19.3042   11.4180   56.0289 H   0  0  0  0  0  0  0  0  0  0  0  0
 20 21  1  0  0  0
 21 14  1  0  0  0
 14 15  2  0  0  0
 15 16  1  0  0  0
 16 17  2  0  0  0
 17  5  1  0  0  0
  5  6  2  0  0  0
  6  7  1  0  0  0
  7  8  2  0  0  0
  8  9  1  0  0  0
  8 10  1  0  0  0
 10  1  1  0  0  0
  1  2  2  0  0  0
  1  3  1  0  0  0
  3 22  1  0  0  0
 22 23  2  0  0  0
 23 24  1  0  0  0
 24 25  2  0  0  0
 25 26  1  0  0  0
 26 27  2  0  0  0
 27 28  1  0  0  0
 28 29  1  0  0  0
 29 30  1  0  0  0
 30 31  1  0  0  0
 31 32  1  0  0  0
 31 33  1  0  0  0
 33 34  1  0  0  0
 10 11  2  0  0  0
 17 18  1  0  0  0
 18 19  2  0  0  0
 19 14  1  0  0  0
 11  5  1  0  0  0
 27 22  1  0  0  0
 34 28  1  0  0  0
  9 12  1  0  0  0
  9 13  1  0  0  0
  3  4  1  0  0  0
 32 35  1  0  0  0
 32 36  1  0  0  0
M  END
> <minimizedAffinity>
30.01496

> <CNNscore>
0.4737859070

> <CNNaffinity>
6.4659934044

> <CNN_VS>
3.0634965897

> <CNNaffinity_variance>
0.6235526204

$$$$
[H]c1nc(N([H])[H])c(C(=O)N([H])c2c([H])nc([H])c([H])c2N2C([H])([H])C([H])([H])C([H])(N([H])[H])C([H])([H])C2([H])[H])nc1-c1c([H])c([H])c(OC([H])([H])[H])c([H])c1[H]


 36 39  0  0  0  0  0  0  0  0999 V2000
   24.5823    8.0213   54.5126 C   0  0  0  0  0  0  0  0  0  0  0  0
   24.1129    8.4684   55.5772 O   0  0  0  0  0  0  0  0  0  0  0  0
   23.9526    7.1799   53.5850 N   0  0  0  0  0  0  0  0  0  0  0  0
   24.5435    6.9380   52.7284 H   0  0  0  0  0  0  0  0  0  0  0  0
   27.6292    8.9882   52.6168 C   0  0  0  0  0  0  0  0  0  0  0  0
   28.4979    9.2445   53.6427 C   0  0  0  0  0  0  0  0  0  0  0  0
   28.1180    9.1111   54.9503 N   0  0  0  0  0  0  0  0  0  0  0  0
   26.8544    8.7168   55.2416 C   0  0  0  0  0  0  0  0  0  0  0  0
   26.4228    8.5678   56.5975 N   0  0  0  0  0  0  0  0  0  0  0  0
   25.9770    8.4576   54.2338 C   0  0  0  0  0  0  0  0  0  0  0  0
   26.3865    8.5999   52.9426 N   0  0  0  0  0  0  0  0  0  0  0  0
   26.3757    7.6331   57.0509 H   0  0  0  0  0  0  0  0  0  0  0  0
   26.1558    9.4012   57.1279 H   0  0  0  0  0  0  0  0  0  0  0  0
   28.6803    9.4607   48.5061 C   0  0  0  0  0  0  0  0  0  0  0  0
   28.7254    8.2156   49.0829 C   0  0  0  0  0  0  0  0  0  0  0  0
   28.3841    8.0840   50.4064 C   0  0  0  0  0  0  0  0  0  0  0  0
   27.9926    9.1156   51.2204 C   0  0  0  0  0  0  0  0  0  0  0  0
   27.9566   10.3740   50.6022 C   0  0  0  0  0  0  0  0  0  0  0  0
   28.2923   10.5470   49.2743 C   0  0  0  0  0  0  0  0  0  0  0  0
   29.0342    8.4711   46.3357 C   0  0  0  0  0  0  0  0  0  0  0  0
   29.0223    9.5967   47.1770 O   0  0  0  0  0  0  0  0  0  0  0  0
   22.6510    6.6393   53.6251 C   0  0  0  0  0  0  0  0  0  0  0  0
   22.3513    5.4746   54.2650 C   0  0  0  0  0  0  0  0  0  0  0  0
   21.0940    5.0018   54.3284 N   0  0  0  0  0  0  0  0  0  0  0  0
   20.0688    5.6516   53.7655 C   0  0  0  0  0  0  0  0  0  0  0  0
   20.3082    6.8303   53.1062 C   0  0  0  0  0  0  0  0  0  0  0  0
   21.6054    7.3355   53.0293 C   0  0  0  0  0  0  0  0  0  0  0  0
   21.8431    8.5308   52.3125 N   0  0  0  0  0  0  0  0  0  0  0  0
   20.9783    9.0654   51.2996 C   0  0  0  0  0  0  0  0  0  0  0  0
   20.7158   10.5288   51.5706 C   0  0  0  0  0  0  0  0  0  0  0  0
   21.1807   10.9030   52.9418 C   0  0  0  0  0  0  0  0  0  0  0  0
   21.0394   12.3519   53.1421 N   0  0  0  0  0  0  0  0  0  0  0  0
   22.6279   10.5974   53.2174 C   0  0  0  0  0  0  0  0  0  0  0  0
   23.0493    9.2879   52.6183 C   0  0  0  0  0  0  0  0  0  0  0  0
   21.5691   12.6413   53.9701 H   0  0  0  0  0  0  0  0  0  0  0  0
   20.0397   12.6365   53.1349 H   0  0  0  0  0  0  0  0  0  0  0  0
 20 21  1  0  0  0
 21 14  1  0  0  0
 14 15  2  0  0  0
 15 16  1  0  0  0
 16 17  2  0  0  0
 17  5  1  0  0  0
  5  6  2  0  0  0
  6  7  1  0  0  0
  7  8  2  0  0  0
  8  9  1  0  0  0
  8 10  1  0  0  0
 10  1  1  0  0  0
  1  2  2  0  0  0
  1  3  1  0  0  0
  3 22  1  0  0  0
 22 23  2  0  0  0
 23 24  1  0  0  0
 24 25  2  0  0  0
 25 26  1  0  0  0
 26 27  2  0  0  0
 27 28  1  0  0  0
 28 29  1  0  0  0
 29 30  1  0  0  0
 30 31  1  0  0  0
 31 32  1  0  0  0
 31 33  1  0  0  0
 33 34  1  0  0  0
 10 11  2  0  0  0
 17 18  1  0  0  0
 18 19  2  0  0  0
 19 14  1  0  0  0
 11  5  1  0  0  0
 27 22  1  0  0  0
 34 28  1  0  0  0
  9 12  1  0  0  0
  9 13  1  0  0  0
  3  4  1  0  0  0
 32 35  1  0  0  0
 32 36  1  0  0  0
M  END
> <minimizedAffinity>
32.33517

> <CNNscore>
0.4443290234

> <CNNaffinity>
6.5166549683

> <CNN_VS>
2.8955390453

> <CNNaffinity_variance>
0.9117636681

$$$$
[H]c1nc(N([H])[H])c(C(=O)N([H])c2c([H])nc([H])c([H])c2N2C([H])([H])C([H])([H])C([H])(N([H])[H])C([H])([H])C2([H])[H])nc1-c1c([H])c([H])c(OC([H])([H])[H])c([H])c1[H]


 36 39  0  0  0  0  0  0  0  0999 V2000
   24.2793    7.4910   53.1177 C   0  0  0  0  0  0  0  0  0  0  0  0
   24.2199    6.2843   53.4240 O   0  0  0  0  0  0  0  0  0  0  0  0
   23.2263    8.3277   52.7227 N   0  0  0  0  0  0  0  0  0  0  0  0
   23.5090    9.3390   52.5259 H   0  0  0  0  0  0  0  0  0  0  0  0
   27.4167    9.1945   52.0845 C   0  0  0  0  0  0  0  0  0  0  0  0
   28.1310    9.1438   53.2508 C   0  0  0  0  0  0  0  0  0  0  0  0
   27.6166    8.5648   54.3787 N   0  0  0  0  0  0  0  0  0  0  0  0
   26.3723    8.0284   54.3457 C   0  0  0  0  0  0  0  0  0  0  0  0
   25.8026    7.4160   55.5066 N   0  0  0  0  0  0  0  0  0  0  0  0
   25.6475    8.0700   53.1944 C   0  0  0  0  0  0  0  0  0  0  0  0
   26.1885    8.6534   52.0888 N   0  0  0  0  0  0  0  0  0  0  0  0
   25.7948    6.3829   55.6248 H   0  0  0  0  0  0  0  0  0  0  0  0
   25.3956    8.0113   56.2327 H   0  0  0  0  0  0  0  0  0  0  0  0
   28.8964   10.8839   48.4538 C   0  0  0  0  0  0  0  0  0  0  0  0
   28.9441   11.6145   49.6152 C   0  0  0  0  0  0  0  0  0  0  0  0
   28.4629   11.0540   50.7727 C   0  0  0  0  0  0  0  0  0  0  0  0
   27.9258    9.7962   50.8692 C   0  0  0  0  0  0  0  0  0  0  0  0
   27.8912    9.0755   49.6665 C   0  0  0  0  0  0  0  0  0  0  0  0
   28.3652    9.6041   48.4825 C   0  0  0  0  0  0  0  0  0  0  0  0
   29.0247   12.7583   46.9422 C   0  0  0  0  0  0  0  0  0  0  0  0
   29.3790   11.4435   47.2893 O   0  0  0  0  0  0  0  0  0  0  0  0
   21.8587    8.0166   52.5769 C   0  0  0  0  0  0  0  0  0  0  0  0
   21.3194    7.5751   51.4064 C   0  0  0  0  0  0  0  0  0  0  0  0
   20.0209    7.2413   51.3037 N   0  0  0  0  0  0  0  0  0  0  0  0
   19.1881    7.3250   52.3475 C   0  0  0  0  0  0  0  0  0  0  0  0
   19.6730    7.7638   53.5532 C   0  0  0  0  0  0  0  0  0  0  0  0
   21.0163    8.1153   53.6786 C   0  0  0  0  0  0  0  0  0  0  0  0
   21.4932    8.6037   54.9169 N   0  0  0  0  0  0  0  0  0  0  0  0
   22.1968    7.8195   55.8914 C   0  0  0  0  0  0  0  0  0  0  0  0
   23.4471    8.5473   56.3284 C   0  0  0  0  0  0  0  0  0  0  0  0
   23.7295    9.7021   55.4211 C   0  0  0  0  0  0  0  0  0  0  0  0
   24.8692   10.4758   55.9326 N   0  0  0  0  0  0  0  0  0  0  0  0
   22.5997   10.6871   55.2909 C   0  0  0  0  0  0  0  0  0  0  0  0
   21.2640   10.0058   55.2376 C   0  0  0  0  0  0  0  0  0  0  0  0
   24.9131   11.3836   55.4595 H   0  0  0  0  0  0  0  0  0  0  0  0
   25.7461    9.9183   55.9018 H   0  0  0  0  0  0  0  0  0  0  0  0
 20 21  1  0  0  0
 21 14  1  0  0  0
 14 15  2  0  0  0
 15 16  1  0  0  0
 16 17  2  0  0  0
 17  5  1  0  0  0
  5  6  2  0  0  0
  6  7  1  0  0  0
  7  8  2  0  0  0
  8  9  1  0  0  0
  8 10  1  0  0  0
 10  1  1  0  0  0
  1  2  2  0  0  0
  1  3  1  0  0  0
  3 22  1  0  0  0
 22 23  2  0  0  0
 23 24  1  0  0  0
 24 25  2  0  0  0
 25 26  1  0  0  0
 26 27  2  0  0  0
 27 28  1  0  0  0
 28 29  1  0  0  0
 29 30  1  0  0  0
 30 31  1  0  0  0
 31 32  1  0  0  0
 31 33  1  0  0  0
 33 34  1  0  0  0
 10 11  2  0  0  0
 17 18  1  0  0  0
 18 19  2  0  0  0
 19 14  1  0  0  0
 11  5  1  0  0  0
 27 22  1  0  0  0
 34 28  1  0  0  0
  9 12  1  0  0  0
  9 13  1  0  0  0
  3  4  1  0  0  0
 32 35  1  0  0  0
 32 36  1  0  0  0
M  END
> <minimizedAffinity>
30.45124

> <CNNscore>
0.4321402311

> <CNNaffinity>
6.3427934647

> <CNN_VS>
2.7409763336

> <CNNaffinity_variance>
0.7477509975

$$$$
[H]c1nc(N([H])[H])c(C(=O)N([H])c2c([H])nc([H])c([H])c2N2C([H])([H])C([H])([H])C([H])(N([H])[H])C([H])([H])C2([H])[H])nc1-c1c([H])c([H])c(OC([H])([H])[H])c([H])c1[H]


 36 39  0  0  0  0  0  0  0  0999 V2000
   24.5269    7.4201   53.3663 C   0  0  0  0  0  0  0  0  0  0  0  0
   24.5663    6.2519   53.7990 O   0  0  0  0  0  0  0  0  0  0  0  0
   23.4052    8.1297   52.9155 N   0  0  0  0  0  0  0  0  0  0  0  0
   23.6057    9.1323   52.6059 H   0  0  0  0  0  0  0  0  0  0  0  0
   27.5037    9.2303   52.0723 C   0  0  0  0  0  0  0  0  0  0  0  0
   28.2427    9.3581   53.2170 C   0  0  0  0  0  0  0  0  0  0  0  0
   27.7965    8.8671   54.4136 N   0  0  0  0  0  0  0  0  0  0  0  0
   26.5965    8.2397   54.4720 C   0  0  0  0  0  0  0  0  0  0  0  0
   26.0985    7.7150   55.7065 N   0  0  0  0  0  0  0  0  0  0  0  0
   25.8481    8.1036   53.3433 C   0  0  0  0  0  0  0  0  0  0  0  0
   26.3209    8.6034   52.1678 N   0  0  0  0  0  0  0  0  0  0  0  0
   26.1720    6.7028   55.9333 H   0  0  0  0  0  0  0  0  0  0  0  0
   25.6614    8.3530   56.3767 H   0  0  0  0  0  0  0  0  0  0  0  0
   28.7983   10.8062   48.3217 C   0  0  0  0  0  0  0  0  0  0  0  0
   28.5012    9.4705   48.4343 C   0  0  0  0  0  0  0  0  0  0  0  0
   28.0869    8.9824   49.6491 C   0  0  0  0  0  0  0  0  0  0  0  0
   27.9412    9.7341   50.7865 C   0  0  0  0  0  0  0  0  0  0  0  0
   28.2520   11.0937   50.6391 C   0  0  0  0  0  0  0  0  0  0  0  0
   28.6717   11.6222   49.4347 C   0  0  0  0  0  0  0  0  0  0  0  0
   29.1399   12.6786   46.8411 C   0  0  0  0  0  0  0  0  0  0  0  0
   29.2146   11.3000   47.1032 O   0  0  0  0  0  0  0  0  0  0  0  0
   22.0628    7.7044   52.8417 C   0  0  0  0  0  0  0  0  0  0  0  0
   21.6237    6.7900   51.9324 C   0  0  0  0  0  0  0  0  0  0  0  0
   20.3478    6.3659   51.9105 N   0  0  0  0  0  0  0  0  0  0  0  0
   19.4404    6.8200   52.7825 C   0  0  0  0  0  0  0  0  0  0  0  0
   19.8228    7.7431   53.7222 C   0  0  0  0  0  0  0  0  0  0  0  0
   21.1412    8.1953   53.7596 C   0  0  0  0  0  0  0  0  0  0  0  0
   21.5116    9.1763   54.7080 N   0  0  0  0  0  0  0  0  0  0  0  0
   21.5748    8.9634   56.1259 C   0  0  0  0  0  0  0  0  0  0  0  0
   22.8945    9.4690   56.6613 C   0  0  0  0  0  0  0  0  0  0  0  0
   23.8409    9.7616   55.5410 C   0  0  0  0  0  0  0  0  0  0  0  0
   25.0687   10.3737   56.0675 N   0  0  0  0  0  0  0  0  0  0  0  0
   23.3166   10.7288   54.5147 C   0  0  0  0  0  0  0  0  0  0  0  0
   21.8620   10.5043   54.2231 C   0  0  0  0  0  0  0  0  0  0  0  0
   25.6066   10.7883   55.3004 H   0  0  0  0  0  0  0  0  0  0  0  0
   25.5946    9.7061   56.6661 H   0  0  0  0  0  0  0  0  0  0  0  0
 20 21  1  0  0  0
 21 14  1  0  0  0
 14 15  2  0  0  0
 15 16  1  0  0  0
 16 17  2  0  0  0
 17  5  1  0  0  0
  5  6  2  0  0  0
  6  7  1  0  0  0
  7  8  2  0  0  0
  8  9  1  0  0  0
  8 10  1  0  0  0
 10  1  1  0  0  0
  1  2  2  0  0  0
  1  3  1  0  0  0
  3 22  1  0  0  0
 22 23  2  0  0  0
 23 24  1  0  0  0
 24 25  2  0  0  0
 25 26  1  0  0  0
 26 27  2  0  0  0
 27 28  1  0  0  0
 28 29  1  0  0  0
 29 30  1  0  0  0
 30 31  1  0  0  0
 31 32  1  0  0  0
 31 33  1  0  0  0
 33 34  1  0  0  0
 10 11  2  0  0  0
 17 18  1  0  0  0
 18 19  2  0  0  0
 19 14  1  0  0  0
 11  5  1  0  0  0
 27 22  1  0  0  0
 34 28  1  0  0  0
  9 12  1  0  0  0
  9 13  1  0  0  0
  3  4  1  0  0  0
 32 35  1  0  0  0
 32 36  1  0  0  0
M  END
> <minimizedAffinity>
32.18726

> <CNNscore>
0.3990907967

> <CNNaffinity>
6.3105325699

> <CNN_VS>
2.5184755325

> <CNNaffinity_variance>
0.9024351239

$$$$
[H]c1nc(N([H])[H])c(C(=O)N([H])c2c([H])nc([H])c([H])c2N2C([H])([H])C([H])([H])C([H])(N([H])[H])C([H])([H])C2([H])[H])nc1-c1c([H])c([H])c(OC([H])([H])[H])c([H])c1[H]


 36 39  0  0  0  0  0  0  0  0999 V2000
   24.5694    7.6419   53.0342 C   0  0  0  0  0  0  0  0  0  0  0  0
   24.5631    6.4688   53.4553 O   0  0  0  0  0  0  0  0  0  0  0  0
   23.4761    8.3998   52.5924 N   0  0  0  0  0  0  0  0  0  0  0  0
   23.7157    9.3967   52.2923 H   0  0  0  0  0  0  0  0  0  0  0  0
   27.6108    9.3518   51.7541 C   0  0  0  0  0  0  0  0  0  0  0  0
   28.3587    9.4330   52.8974 C   0  0  0  0  0  0  0  0  0  0  0  0
   27.8978    8.9422   54.0885 N   0  0  0  0  0  0  0  0  0  0  0  0
   26.6741    8.3621   54.1429 C   0  0  0  0  0  0  0  0  0  0  0  0
   26.1602    7.8391   55.3716 N   0  0  0  0  0  0  0  0  0  0  0  0
   25.9166    8.2727   53.0156 C   0  0  0  0  0  0  0  0  0  0  0  0
   26.4044    8.7710   51.8455 N   0  0  0  0  0  0  0  0  0  0  0  0
   26.1944    6.8215   55.5830 H   0  0  0  0  0  0  0  0  0  0  0  0
   25.7514    8.4839   56.0531 H   0  0  0  0  0  0  0  0  0  0  0  0
   28.9482   10.9320   48.0204 C   0  0  0  0  0  0  0  0  0  0  0  0
   28.6551    9.5951   48.1295 C   0  0  0  0  0  0  0  0  0  0  0  0
   28.2268    9.1057   49.3389 C   0  0  0  0  0  0  0  0  0  0  0  0
   28.0631    9.8570   50.4740 C   0  0  0  0  0  0  0  0  0  0  0  0
   28.3704   11.2179   50.3303 C   0  0  0  0  0  0  0  0  0  0  0  0
   28.8038   11.7477   49.1315 C   0  0  0  0  0  0  0  0  0  0  0  0
   29.3314   12.8090   46.5559 C   0  0  0  0  0  0  0  0  0  0  0  0
   29.3785   11.4272   46.8073 O   0  0  0  0  0  0  0  0  0  0  0  0
   22.1178    8.0288   52.5168 C   0  0  0  0  0  0  0  0  0  0  0  0
   21.3652    8.1952   51.3935 C   0  0  0  0  0  0  0  0  0  0  0  0
   20.0839    7.7920   51.3306 N   0  0  0  0  0  0  0  0  0  0  0  0
   19.4792    7.2047   52.3696 C   0  0  0  0  0  0  0  0  0  0  0  0
   20.1858    7.0103   53.5290 C   0  0  0  0  0  0  0  0  0  0  0  0
   21.5150    7.4226   53.6133 C   0  0  0  0  0  0  0  0  0  0  0  0
   22.2189    7.2518   54.8275 N   0  0  0  0  0  0  0  0  0  0  0  0
   22.0433    8.0631   55.9983 C   0  0  0  0  0  0  0  0  0  0  0  0
   21.8584    7.1797   57.2104 C   0  0  0  0  0  0  0  0  0  0  0  0
   21.6212    5.7618   56.7985 C   0  0  0  0  0  0  0  0  0  0  0  0
   21.5738    4.8954   57.9844 N   0  0  0  0  0  0  0  0  0  0  0  0
   22.6912    5.1788   55.9160 C   0  0  0  0  0  0  0  0  0  0  0  0
   23.1942    6.1733   54.9114 C   0  0  0  0  0  0  0  0  0  0  0  0
   21.6521    3.9140   57.7008 H   0  0  0  0  0  0  0  0  0  0  0  0
   20.7524    5.1193   58.5808 H   0  0  0  0  0  0  0  0  0  0  0  0
 20 21  1  0  0  0
 21 14  1  0  0  0
 14 15  2  0  0  0
 15 16  1  0  0  0
 16 17  2  0  0  0
 17  5  1  0  0  0
  5  6  2  0  0  0
  6  7  1  0  0  0
  7  8  2  0  0  0
  8  9  1  0  0  0
  8 10  1  0  0  0
 10  1  1  0  0  0
  1  2  2  0  0  0
  1  3  1  0  0  0
  3 22  1  0  0  0
 22 23  2  0  0  0
 23 24  1  0  0  0
 24 25  2  0  0  0
 25 26  1  0  0  0
 26 27  2  0  0  0
 27 28  1  0  0  0
 28 29  1  0  0  0
 29 30  1  0  0  0
 30 31  1  0  0  0
 31 32  1  0  0  0
 31 33  1  0  0  0
 33 34  1  0  0  0
 10 11  2  0  0  0
 17 18  1  0  0  0
 18 19  2  0  0  0
 19 14  1  0  0  0
 11  5  1  0  0  0
 27 22  1  0  0  0
 34 28  1  0  0  0
  9 12  1  0  0  0
  9 13  1  0  0  0
  3  4  1  0  0  0
 32 35  1  0  0  0
 32 36  1  0  0  0
M  END
> <minimizedAffinity>
31.19302

> <CNNscore>
0.3362357616

> <CNNaffinity>
6.0737924576

> <CNN_VS>
2.0422263145

> <CNNaffinity_variance>
0.5822049379

$$$$
[H]c1nc(N([H])[H])c(C(=O)N([H])c2c([H])nc([H])c([H])c2N2C([H])([H])C([H])([H])C([H])(N([H])[H])C([H])([H])C2([H])[H])nc1-c1c([H])c([H])c(OC([H])([H])[H])c([H])c1[H]


 36 39  0  0  0  0  0  0  0  0999 V2000
   23.2789    6.4962   54.5994 C   0  0  0  0  0  0  0  0  0  0  0  0
   23.0776    6.3162   55.8163 O   0  0  0  0  0  0  0  0  0  0  0  0
   22.4516    6.1264   53.5300 N   0  0  0  0  0  0  0  0  0  0  0  0
   22.8191    6.4011   52.5653 H   0  0  0  0  0  0  0  0  0  0  0  0
   26.4070    8.4412   55.0936 C   0  0  0  0  0  0  0  0  0  0  0  0
   26.8947    8.4702   53.8152 C   0  0  0  0  0  0  0  0  0  0  0  0
   26.2283    7.8681   52.7830 N   0  0  0  0  0  0  0  0  0  0  0  0
   25.0592    7.2271   53.0266 C   0  0  0  0  0  0  0  0  0  0  0  0
   24.3365    6.5858   51.9714 N   0  0  0  0  0  0  0  0  0  0  0  0
   24.5595    7.1882   54.2920 C   0  0  0  0  0  0  0  0  0  0  0  0
   25.2471    7.7977   55.2975 N   0  0  0  0  0  0  0  0  0  0  0  0
   23.5151    7.0402   51.5239 H   0  0  0  0  0  0  0  0  0  0  0  0
   24.6379    5.6607   51.6541 H   0  0  0  0  0  0  0  0  0  0  0  0
   28.4084   10.3673   58.3357 C   0  0  0  0  0  0  0  0  0  0  0  0
   27.9255    9.0918   58.4934 C   0  0  0  0  0  0  0  0  0  0  0  0
   27.2842    8.4894   57.4392 C   0  0  0  0  0  0  0  0  0  0  0  0
   27.0805    9.0676   56.2128 C   0  0  0  0  0  0  0  0  0  0  0  0
   27.5851   10.3697   56.0832 C   0  0  0  0  0  0  0  0  0  0  0  0
   28.2354   11.0092   57.1196 C   0  0  0  0  0  0  0  0  0  0  0  0
   29.1307   12.3773   59.4551 C   0  0  0  0  0  0  0  0  0  0  0  0
   29.0531   10.9756   59.3923 O   0  0  0  0  0  0  0  0  0  0  0  0
   21.2044    5.4695   53.5651 C   0  0  0  0  0  0  0  0  0  0  0  0
   21.0813    4.1132   53.5964 C   0  0  0  0  0  0  0  0  0  0  0  0
   19.8820    3.5102   53.6755 N   0  0  0  0  0  0  0  0  0  0  0  0
   18.7439    4.2115   53.7278 C   0  0  0  0  0  0  0  0  0  0  0  0
   18.8035    5.5816   53.6992 C   0  0  0  0  0  0  0  0  0  0  0  0
   20.0380    6.2245   53.6165 C   0  0  0  0  0  0  0  0  0  0  0  0
   20.0820    7.6360   53.5477 N   0  0  0  0  0  0  0  0  0  0  0  0
   20.1533    8.5104   54.6835 C   0  0  0  0  0  0  0  0  0  0  0  0
   21.2562    9.5236   54.4812 C   0  0  0  0  0  0  0  0  0  0  0  0
   22.1195    9.1392   53.3221 C   0  0  0  0  0  0  0  0  0  0  0  0
   23.1044   10.1969   53.0567 N   0  0  0  0  0  0  0  0  0  0  0  0
   21.3788    8.9442   52.0271 C   0  0  0  0  0  0  0  0  0  0  0  0
   20.0585    8.2617   52.2327 C   0  0  0  0  0  0  0  0  0  0  0  0
   23.5293   10.0527   52.1356 H   0  0  0  0  0  0  0  0  0  0  0  0
   23.7766   10.2906   53.8440 H   0  0  0  0  0  0  0  0  0  0  0  0
 20 21  1  0  0  0
 21 14  1  0  0  0
 14 15  2  0  0  0
 15 16  1  0  0  0
 16 17  2  0  0  0
 17  5  1  0  0  0
  5  6  2  0  0  0
  6  7  1  0  0  0
  7  8  2  0  0  0
  8  9  1  0  0  0
  8 10  1  0  0  0
 10  1  1  0  0  0
  1  2  2  0  0  0
  1  3  1  0  0  0
  3 22  1  0  0  0
 22 23  2  0  0  0
 23 24  1  0  0  0
 24 25  2  0  0  0
 25 26  1  0  0  0
 26 27  2  0  0  0
 27 28  1  0  0  0
 28 29  1  0  0  0
 29 30  1  0  0  0
 30 31  1  0  0  0
 31 32  1  0  0  0
 31 33  1  0  0  0
 33 34  1  0  0  0
 10 11  2  0  0  0
 17 18  1  0  0  0
 18 19  2  0  0  0
 19 14  1  0  0  0
 11  5  1  0  0  0
 27 22  1  0  0  0
 34 28  1  0  0  0
  9 12  1  0  0  0
  9 13  1  0  0  0
  3  4  1  0  0  0
 32 35  1  0  0  0
 32 36  1  0  0  0
M  END
> <minimizedAffinity>
24.99572

> <CNNscore>
0.3315244913

> <CNNaffinity>
6.4044389725

> <CNN_VS>
2.1232283115

> <CNNaffinity_variance>
1.7131907940

$$$$
[H]c1nc(N([H])[H])c(C(=O)N([H])c2c([H])nc([H])c([H])c2N2C([H])([H])C([H])([H])C([H])(N([H])[H])C([H])([H])C2([H])[H])nc1-c1c([H])c([H])c(OC([H])([H])[H])c([H])c1[H]


 36 39  0  0  0  0  0  0  0  0999 V2000
   24.2211    8.0538   53.7933 C   0  0  0  0  0  0  0  0  0  0  0  0
   24.3265    7.6854   52.6072 O   0  0  0  0  0  0  0  0  0  0  0  0
   25.2512    8.2600   54.7214 N   0  0  0  0  0  0  0  0  0  0  0  0
   24.9263    8.5969   55.6817 H   0  0  0  0  0  0  0  0  0  0  0  0
   20.5981    7.4739   54.3850 C   0  0  0  0  0  0  0  0  0  0  0  0
   20.2489    8.6455   55.0002 C   0  0  0  0  0  0  0  0  0  0  0  0
   21.1682    9.6319   55.2320 N   0  0  0  0  0  0  0  0  0  0  0  0
   22.4546    9.4498   54.8461 C   0  0  0  0  0  0  0  0  0  0  0  0
   23.4424   10.4596   55.0735 N   0  0  0  0  0  0  0  0  0  0  0  0
   22.8198    8.2907   54.2329 C   0  0  0  0  0  0  0  0  0  0  0  0
   21.8804    7.3284   54.0167 N   0  0  0  0  0  0  0  0  0  0  0  0
   23.7415   11.1047   54.3148 H   0  0  0  0  0  0  0  0  0  0  0  0
   23.8604   10.5445   56.0037 H   0  0  0  0  0  0  0  0  0  0  0  0
   17.8954    4.2669   53.5875 C   0  0  0  0  0  0  0  0  0  0  0  0
   17.4051    5.5177   53.8703 C   0  0  0  0  0  0  0  0  0  0  0  0
   18.2903    6.5361   54.1246 C   0  0  0  0  0  0  0  0  0  0  0  0
   19.6552    6.4067   54.1198 C   0  0  0  0  0  0  0  0  0  0  0  0
   20.1246    5.1178   53.8276 C   0  0  0  0  0  0  0  0  0  0  0  0
   19.2668    4.0681   53.5665 C   0  0  0  0  0  0  0  0  0  0  0  0
   15.6473    3.3961   53.6409 C   0  0  0  0  0  0  0  0  0  0  0  0
   17.0093    3.2415   53.3315 O   0  0  0  0  0  0  0  0  0  0  0  0
   26.6416    8.1051   54.5457 C   0  0  0  0  0  0  0  0  0  0  0  0
   27.1866    7.4615   53.4758 C   0  0  0  0  0  0  0  0  0  0  0  0
   28.5172    7.3657   53.3065 N   0  0  0  0  0  0  0  0  0  0  0  0
   29.3780    7.8985   54.1812 C   0  0  0  0  0  0  0  0  0  0  0  0
   28.8889    8.5589   55.2794 C   0  0  0  0  0  0  0  0  0  0  0  0
   27.5123    8.6675   55.4723 C   0  0  0  0  0  0  0  0  0  0  0  0
   27.0228    9.3163   56.6292 N   0  0  0  0  0  0  0  0  0  0  0  0
   26.9870    8.7363   57.9415 C   0  0  0  0  0  0  0  0  0  0  0  0
   27.5815    9.6991   58.9432 C   0  0  0  0  0  0  0  0  0  0  0  0
   28.2844   10.8193   58.2451 C   0  0  0  0  0  0  0  0  0  0  0  0
   28.7430   11.8132   59.2256 N   0  0  0  0  0  0  0  0  0  0  0  0
   27.4315   11.5814   57.2677 C   0  0  0  0  0  0  0  0  0  0  0  0
   26.5188   10.6761   56.4940 C   0  0  0  0  0  0  0  0  0  0  0  0
   29.0048   12.6796   58.7454 H   0  0  0  0  0  0  0  0  0  0  0  0
   29.4727   11.4159   59.8503 H   0  0  0  0  0  0  0  0  0  0  0  0
 20 21  1  0  0  0
 21 14  1  0  0  0
 14 15  2  0  0  0
 15 16  1  0  0  0
 16 17  2  0  0  0
 17  5  1  0  0  0
  5  6  2  0  0  0
  6  7  1  0  0  0
  7  8  2  0  0  0
  8  9  1  0  0  0
  8 10  1  0  0  0
 10  1  1  0  0  0
  1  2  2  0  0  0
  1  3  1  0  0  0
  3 22  1  0  0  0
 22 23  2  0  0  0
 23 24  1  0  0  0
 24 25  2  0  0  0
 25 26  1  0  0  0
 26 27  2  0  0  0
 27 28  1  0  0  0
 28 29  1  0  0  0
 29 30  1  0  0  0
 30 31  1  0  0  0
 31 32  1  0  0  0
 31 33  1  0  0  0
 33 34  1  0  0  0
 10 11  2  0  0  0
 17 18  1  0  0  0
 18 19  2  0  0  0
 19 14  1  0  0  0
 11  5  1  0  0  0
 27 22  1  0  0  0
 34 28  1  0  0  0
  9 12  1  0  0  0
  9 13  1  0  0  0
  3  4  1  0  0  0
 32 35  1  0  0  0
 32 36  1  0  0  0
M  END
> <minimizedAffinity>
36.22280

> <CNNscore>
0.3173298836

> <CNNaffinity>
5.9215102196

> <CNN_VS>
1.8790721893

> <CNNaffinity_variance>
0.6205641627

$$$$
[H]c1c([H])c(N([H])C(=O)N([H])[C@]([H])(C(=O)N([H])[C@]([H])(C(=O)N([H])[H])C([H])([H])C([H])([H])C([H])([H])[H])C([H])([H])C([H])(C([H])([H])[H])C([H])([H])[H])c([H])c([H])c1Br


 31 31  0  0  0  0  0  0  0  0999 V2000
   26.7260    8.4318   54.9288 C   0  0  0  0  0  0  0  0  0  0  0  0
   27.3378    9.3052   53.9345 N   0  0  0  0  0  0  0  0  0  0  0  0
   27.4635    8.8583   52.5986 C   0  0  0  0  0  0  0  0  0  0  0  0
   27.0460    7.7012   52.2654 O   0  0  0  0  0  0  0  0  0  0  0  0
   28.0456    9.6764   51.6270 N   0  0  0  0  0  0  0  0  0  0  0  0
   27.6672   10.2251   54.2116 H   0  0  0  0  0  0  0  0  0  0  0  0
   28.3764   10.6300   51.9905 H   0  0  0  0  0  0  0  0  0  0  0  0
   28.2422    9.4090   50.2539 C   0  0  0  0  0  0  0  0  0  0  0  0
   28.6771    8.2275   49.7192 C   0  0  0  0  0  0  0  0  0  0  0  0
   28.8653    8.0569   48.3354 C   0  0  0  0  0  0  0  0  0  0  0  0
   28.6184    9.0764   47.4517 C   0  0  0  0  0  0  0  0  0  0  0  0
   28.8748    8.8428   45.5712 Br  0  0  0  0  0  0  0  0  0  0  0  0
   28.1814   10.2669   47.9732 C   0  0  0  0  0  0  0  0  0  0  0  0
   27.9976   10.4344   49.3240 C   0  0  0  0  0  0  0  0  0  0  0  0
   24.3162    8.8901   54.4101 N   0  0  0  0  0  0  0  0  0  0  0  0
   25.4418    8.0005   54.3767 C   0  0  0  0  0  0  0  0  0  0  0  0
   25.3104    6.8355   53.8740 O   0  0  0  0  0  0  0  0  0  0  0  0
   24.4624    9.8342   54.8169 H   0  0  0  0  0  0  0  0  0  0  0  0
   23.0266    8.4856   53.8964 C   0  0  0  0  0  0  0  0  0  0  0  0
   22.0484    9.5810   54.1028 C   0  0  0  0  0  0  0  0  0  0  0  0
   21.8694   10.1141   55.4251 N   0  0  0  0  0  0  0  0  0  0  0  0
   21.3611   10.0793   53.2005 O   0  0  0  0  0  0  0  0  0  0  0  0
   22.0705    9.4874   56.2219 H   0  0  0  0  0  0  0  0  0  0  0  0
   21.5485   11.0969   55.5893 H   0  0  0  0  0  0  0  0  0  0  0  0
   22.5375    7.2598   54.6072 C   0  0  0  0  0  0  0  0  0  0  0  0
   20.7016    6.6071   52.9794 C   0  0  0  0  0  0  0  0  0  0  0  0
   21.8511    6.2195   53.8285 C   0  0  0  0  0  0  0  0  0  0  0  0
   26.7587    9.0302   56.2732 C   0  0  0  0  0  0  0  0  0  0  0  0
   28.0180    9.4559   56.8857 C   0  0  0  0  0  0  0  0  0  0  0  0
   28.0995    8.8229   58.3093 C   0  0  0  0  0  0  0  0  0  0  0  0
   28.1662   10.9264   57.1596 C   0  0  0  0  0  0  0  0  0  0  0  0
 26 27  1  0  0  0
 27 25  1  0  0  0
 25 19  1  0  0  0
 19 15  1  0  0  0
 15 16  1  0  0  0
 16 17  2  0  0  0
 16  1  1  0  0  0
  1 28  1  0  0  0
 28 29  1  0  0  0
 29 30  1  0  0  0
 29 31  1  0  0  0
  1  2  1  0  0  0
  2  3  1  0  0  0
  3  4  2  0  0  0
  3  5  1  0  0  0
  5  8  1  0  0  0
  8  9  2  0  0  0
  9 10  1  0  0  0
 10 11  2  0  0  0
 11 12  1  0  0  0
 11 13  1  0  0  0
 13 14  2  0  0  0
 19 20  1  0  0  0
 20 21  1  0  0  0
 20 22  2  0  0  0
 14  8  1  0  0  0
 15 18  1  0  0  0
  2  6  1  0  0  0
  5  7  1  0  0  0
 21 23  1  0  0  0
 21 24  1  0  0  0
M  END
> <minimizedAffinity>
15.40197

> <CNNscore>
0.6224067211

> <CNNaffinity>
6.0786314011

> <CNN_VS>
3.7833809853

> <CNNaffinity_variance>
0.3943689466

$$$$
[H]c1c([H])c(N([H])C(=O)N([H])[C@]([H])(C(=O)N([H])[C@]([H])(C(=O)N([H])[H])C([H])([H])C([H])([H])C([H])([H])[H])C([H])([H])C([H])(C([H])([H])[H])C([H])([H])[H])c([H])c([H])c1Br


 31 31  0  0  0  0  0  0  0  0999 V2000
   24.6040    7.2589   53.5923 C   0  0  0  0  0  0  0  0  0  0  0  0
   25.8352    8.0001   53.8383 N   0  0  0  0  0  0  0  0  0  0  0  0
   26.1355    8.4352   55.1500 C   0  0  0  0  0  0  0  0  0  0  0  0
   25.3368    8.1823   56.1103 O   0  0  0  0  0  0  0  0  0  0  0  0
   27.3090    9.1467   55.4119 N   0  0  0  0  0  0  0  0  0  0  0  0
   26.4641    8.1961   53.0652 H   0  0  0  0  0  0  0  0  0  0  0  0
   27.9222    9.3236   54.5495 H   0  0  0  0  0  0  0  0  0  0  0  0
   27.7789    9.6458   56.6472 C   0  0  0  0  0  0  0  0  0  0  0  0
   28.0187   10.9592   56.9446 C   0  0  0  0  0  0  0  0  0  0  0  0
   28.5081   11.3647   58.1997 C   0  0  0  0  0  0  0  0  0  0  0  0
   28.7688   10.4534   59.1912 C   0  0  0  0  0  0  0  0  0  0  0  0
   29.4342   11.0062   60.8965 Br  0  0  0  0  0  0  0  0  0  0  0  0
   28.5327    9.1328   58.9076 C   0  0  0  0  0  0  0  0  0  0  0  0
   28.0551    8.7360   57.6824 C   0  0  0  0  0  0  0  0  0  0  0  0
   22.2082    7.9977   53.5717 N   0  0  0  0  0  0  0  0  0  0  0  0
   23.5824    8.2451   53.2405 C   0  0  0  0  0  0  0  0  0  0  0  0
   23.9010    9.3201   52.6322 O   0  0  0  0  0  0  0  0  0  0  0  0
   21.9869    7.1175   54.0761 H   0  0  0  0  0  0  0  0  0  0  0  0
   21.1707    8.9397   53.2153 C   0  0  0  0  0  0  0  0  0  0  0  0
   21.0311    8.9838   51.7396 C   0  0  0  0  0  0  0  0  0  0  0  0
   20.9528    7.7479   51.0108 N   0  0  0  0  0  0  0  0  0  0  0  0
   20.9760   10.0290   51.0767 O   0  0  0  0  0  0  0  0  0  0  0  0
   21.4053    6.9189   51.4302 H   0  0  0  0  0  0  0  0  0  0  0  0
   20.4597    7.6759   50.0901 H   0  0  0  0  0  0  0  0  0  0  0  0
   21.5134   10.3126   53.7101 C   0  0  0  0  0  0  0  0  0  0  0  0
   22.7286   10.1331   55.9322 C   0  0  0  0  0  0  0  0  0  0  0  0
   21.5376   10.5542   55.1596 C   0  0  0  0  0  0  0  0  0  0  0  0
   24.3235    6.2958   54.6696 C   0  0  0  0  0  0  0  0  0  0  0  0
   22.9878    5.7258   54.8512 C   0  0  0  0  0  0  0  0  0  0  0  0
   22.3239    5.5966   53.4453 C   0  0  0  0  0  0  0  0  0  0  0  0
   22.0009    6.5625   55.6164 C   0  0  0  0  0  0  0  0  0  0  0  0
 26 27  1  0  0  0
 27 25  1  0  0  0
 25 19  1  0  0  0
 19 15  1  0  0  0
 15 16  1  0  0  0
 16 17  2  0  0  0
 16  1  1  0  0  0
  1 28  1  0  0  0
 28 29  1  0  0  0
 29 30  1  0  0  0
 29 31  1  0  0  0
  1  2  1  0  0  0
  2  3  1  0  0  0
  3  4  2  0  0  0
  3  5  1  0  0  0
  5  8  1  0  0  0
  8  9  2  0  0  0
  9 10  1  0  0  0
 10 11  2  0  0  0
 11 12  1  0  0  0
 11 13  1  0  0  0
 13 14  2  0  0  0
 19 20  1  0  0  0
 20 21  1  0  0  0
 20 22  2  0  0  0
 14  8  1  0  0  0
 15 18  1  0  0  0
  2  6  1  0  0  0
  5  7  1  0  0  0
 21 23  1  0  0  0
 21 24  1  0  0  0
M  END
> <minimizedAffinity>
3.30455

> <CNNscore>
0.5907913446

> <CNNaffinity>
6.3922262192

> <CNN_VS>
3.7764718533

> <CNNaffinity_variance>
0.3847117424

$$$$
[H]c1c([H])c(N([H])C(=O)N([H])[C@]([H])(C(=O)N([H])[C@]([H])(C(=O)N([H])[H])C([H])([H])C([H])([H])C([H])([H])[H])C([H])([H])C([H])(C([H])([H])[H])C([H])([H])[H])c([H])c([H])c1Br


 31 31  0  0  0  0  0  0  0  0999 V2000
   27.2662    8.5589   54.7248 C   0  0  0  0  0  0  0  0  0  0  0  0
   27.6660    9.5209   53.7047 N   0  0  0  0  0  0  0  0  0  0  0  0
   27.7698    9.1040   52.3573 C   0  0  0  0  0  0  0  0  0  0  0  0
   27.5164    7.8971   52.0360 O   0  0  0  0  0  0  0  0  0  0  0  0
   28.1504   10.0066   51.3611 N   0  0  0  0  0  0  0  0  0  0  0  0
   27.8658   10.4800   53.9725 H   0  0  0  0  0  0  0  0  0  0  0  0
   28.3522   10.9990   51.7154 H   0  0  0  0  0  0  0  0  0  0  0  0
   28.2936    9.7783   49.9743 C   0  0  0  0  0  0  0  0  0  0  0  0
   28.0911   10.6989   48.9830 C   0  0  0  0  0  0  0  0  0  0  0  0
   28.2370   10.3763   47.6214 C   0  0  0  0  0  0  0  0  0  0  0  0
   28.5927    9.1130   47.2226 C   0  0  0  0  0  0  0  0  0  0  0  0
   28.7903    8.6762   45.3715 Br  0  0  0  0  0  0  0  0  0  0  0  0
   28.7994    8.1795   48.2054 C   0  0  0  0  0  0  0  0  0  0  0  0
   28.6570    8.4935   49.5350 C   0  0  0  0  0  0  0  0  0  0  0  0
   24.9402    8.0313   53.9518 N   0  0  0  0  0  0  0  0  0  0  0  0
   25.8172    8.6873   54.8792 C   0  0  0  0  0  0  0  0  0  0  0  0
   25.3252    9.3861   55.8261 O   0  0  0  0  0  0  0  0  0  0  0  0
   25.3752    7.4623   53.2000 H   0  0  0  0  0  0  0  0  0  0  0  0
   23.5041    8.1589   54.0608 C   0  0  0  0  0  0  0  0  0  0  0  0
   22.9466    6.9345   54.6848 C   0  0  0  0  0  0  0  0  0  0  0  0
   23.3387    5.6512   54.1709 N   0  0  0  0  0  0  0  0  0  0  0  0
   22.1520    6.9379   55.6353 O   0  0  0  0  0  0  0  0  0  0  0  0
   23.6232    5.6029   53.1785 H   0  0  0  0  0  0  0  0  0  0  0  0
   23.3409    4.7907   54.7671 H   0  0  0  0  0  0  0  0  0  0  0  0
   22.8868    8.3357   52.7063 C   0  0  0  0  0  0  0  0  0  0  0  0
   21.4285   10.3769   52.3142 C   0  0  0  0  0  0  0  0  0  0  0  0
   21.5465    8.9316   52.6143 C   0  0  0  0  0  0  0  0  0  0  0  0
   28.1206    8.6458   55.9202 C   0  0  0  0  0  0  0  0  0  0  0  0
   27.6680    9.3343   57.1298 C   0  0  0  0  0  0  0  0  0  0  0  0
   28.2091   10.7969   57.0827 C   0  0  0  0  0  0  0  0  0  0  0  0
   28.2038    8.8166   58.4354 C   0  0  0  0  0  0  0  0  0  0  0  0
 26 27  1  0  0  0
 27 25  1  0  0  0
 25 19  1  0  0  0
 19 15  1  0  0  0
 15 16  1  0  0  0
 16 17  2  0  0  0
 16  1  1  0  0  0
  1 28  1  0  0  0
 28 29  1  0  0  0
 29 30  1  0  0  0
 29 31  1  0  0  0
  1  2  1  0  0  0
  2  3  1  0  0  0
  3  4  2  0  0  0
  3  5  1  0  0  0
  5  8  1  0  0  0
  8  9  2  0  0  0
  9 10  1  0  0  0
 10 11  2  0  0  0
 11 12  1  0  0  0
 11 13  1  0  0  0
 13 14  2  0  0  0
 19 20  1  0  0  0
 20 21  1  0  0  0
 20 22  2  0  0  0
 14  8  1  0  0  0
 15 18  1  0  0  0
  2  6  1  0  0  0
  5  7  1  0  0  0
 21 23  1  0  0  0
 21 24  1  0  0  0
M  END
> <minimizedAffinity>
15.05700

> <CNNscore>
0.5893251300

> <CNNaffinity>
6.1372184753

> <CNN_VS>
3.6168169975

> <CNNaffinity_variance>
0.2641805410

$$$$
[H]c1c([H])c(N([H])C(=O)N([H])[C@]([H])(C(=O)N([H])[C@]([H])(C(=O)N([H])[H])C([H])([H])C([H])([H])C([H])([H])[H])C([H])([H])C([H])(C([H])([H])[H])C([H])([H])[H])c([H])c([H])c1Br


 31 31  0  0  0  0  0  0  0  0999 V2000
   20.6207    7.4634   54.0507 C   0  0  0  0  0  0  0  0  0  0  0  0
   21.8581    7.0239   54.6844 N   0  0  0  0  0  0  0  0  0  0  0  0
   23.0504    7.7515   54.4625 C   0  0  0  0  0  0  0  0  0  0  0  0
   23.0446    8.7832   53.7145 O   0  0  0  0  0  0  0  0  0  0  0  0
   24.2490    7.3511   55.0585 N   0  0  0  0  0  0  0  0  0  0  0  0
   21.8508    6.2000   55.2782 H   0  0  0  0  0  0  0  0  0  0  0  0
   24.1695    6.4707   55.6663 H   0  0  0  0  0  0  0  0  0  0  0  0
   25.5231    7.9540   54.9647 C   0  0  0  0  0  0  0  0  0  0  0  0
   26.1186    8.7279   55.9225 C   0  0  0  0  0  0  0  0  0  0  0  0
   27.3867    9.3075   55.7341 C   0  0  0  0  0  0  0  0  0  0  0  0
   28.0899    9.1206   54.5713 C   0  0  0  0  0  0  0  0  0  0  0  0
   29.8131    9.9093   54.3168 Br  0  0  0  0  0  0  0  0  0  0  0  0
   27.5055    8.3466   53.6020 C   0  0  0  0  0  0  0  0  0  0  0  0
   26.2675    7.7805   53.7850 C   0  0  0  0  0  0  0  0  0  0  0  0
   19.7586    5.1349   53.7024 N   0  0  0  0  0  0  0  0  0  0  0  0
   20.2009    6.3857   53.1550 C   0  0  0  0  0  0  0  0  0  0  0  0
   20.2336    6.5440   51.8898 O   0  0  0  0  0  0  0  0  0  0  0  0
   19.7348    5.0452   54.7366 H   0  0  0  0  0  0  0  0  0  0  0  0
   19.3616    4.0408   52.8447 C   0  0  0  0  0  0  0  0  0  0  0  0
   18.1984    3.3424   53.4436 C   0  0  0  0  0  0  0  0  0  0  0  0
   17.6930    3.7933   54.7109 N   0  0  0  0  0  0  0  0  0  0  0  0
   17.6198    2.3798   52.9205 O   0  0  0  0  0  0  0  0  0  0  0  0
   18.3575    4.2623   55.3484 H   0  0  0  0  0  0  0  0  0  0  0  0
   16.6931    3.6585   54.9902 H   0  0  0  0  0  0  0  0  0  0  0  0
   20.4851    3.0612   52.6864 C   0  0  0  0  0  0  0  0  0  0  0  0
   20.8942    0.6662   53.4235 C   0  0  0  0  0  0  0  0  0  0  0  0
   20.1638    1.6318   52.5710 C   0  0  0  0  0  0  0  0  0  0  0  0
   20.7383    8.8296   53.5155 C   0  0  0  0  0  0  0  0  0  0  0  0
   21.4961    9.8614   54.2247 C   0  0  0  0  0  0  0  0  0  0  0  0
   20.7229   10.2131   55.5334 C   0  0  0  0  0  0  0  0  0  0  0  0
   21.6213   11.1922   53.5370 C   0  0  0  0  0  0  0  0  0  0  0  0
 26 27  1  0  0  0
 27 25  1  0  0  0
 25 19  1  0  0  0
 19 15  1  0  0  0
 15 16  1  0  0  0
 16 17  2  0  0  0
 16  1  1  0  0  0
  1 28  1  0  0  0
 28 29  1  0  0  0
 29 30  1  0  0  0
 29 31  1  0  0  0
  1  2  1  0  0  0
  2  3  1  0  0  0
  3  4  2  0  0  0
  3  5  1  0  0  0
  5  8  1  0  0  0
  8  9  2  0  0  0
  9 10  1  0  0  0
 10 11  2  0  0  0
 11 12  1  0  0  0
 11 13  1  0  0  0
 13 14  2  0  0  0
 19 20  1  0  0  0
 20 21  1  0  0  0
 20 22  2  0  0  0
 14  8  1  0  0  0
 15 18  1  0  0  0
  2  6  1  0  0  0
  5  7  1  0  0  0
 21 23  1  0  0  0
 21 24  1  0  0  0
M  END
> <minimizedAffinity>
18.39722

> <CNNscore>
0.5639771223

> <CNNaffinity>
6.0978269577

> <CNN_VS>
3.4390349388

> <CNNaffinity_variance>
0.2789546251

$$$$
[H]c1c([H])c(N([H])C(=O)N([H])[C@]([H])(C(=O)N([H])[C@]([H])(C(=O)N([H])[H])C([H])([H])C([H])([H])C([H])([H])[H])C([H])([H])C([H])(C([H])([H])[H])C([H])([H])[H])c([H])c([H])c1Br


 31 31  0  0  0  0  0  0  0  0999 V2000
   20.6771    9.1591   52.9054 C   0  0  0  0  0  0  0  0  0  0  0  0
   21.5981    9.2033   54.0349 N   0  0  0  0  0  0  0  0  0  0  0  0
   22.9781    8.9839   53.8169 C   0  0  0  0  0  0  0  0  0  0  0  0
   23.4144    8.7490   52.6428 O   0  0  0  0  0  0  0  0  0  0  0  0
   23.8811    9.0215   54.8824 N   0  0  0  0  0  0  0  0  0  0  0  0
   21.2389    9.3910   54.9662 H   0  0  0  0  0  0  0  0  0  0  0  0
   23.4325    9.2180   55.8369 H   0  0  0  0  0  0  0  0  0  0  0  0
   25.2820    8.8417   54.8558 C   0  0  0  0  0  0  0  0  0  0  0  0
   25.9986    8.2583   53.8472 C   0  0  0  0  0  0  0  0  0  0  0  0
   27.3950    8.1016   53.9155 C   0  0  0  0  0  0  0  0  0  0  0  0
   28.1078    8.5312   55.0058 C   0  0  0  0  0  0  0  0  0  0  0  0
   30.0058    8.3172   55.0970 Br  0  0  0  0  0  0  0  0  0  0  0  0
   27.4029    9.1185   56.0247 C   0  0  0  0  0  0  0  0  0  0  0  0
   26.0394    9.2716   55.9591 C   0  0  0  0  0  0  0  0  0  0  0  0
   20.6034    6.7106   53.4400 N   0  0  0  0  0  0  0  0  0  0  0  0
   20.6165    7.7649   52.4665 C   0  0  0  0  0  0  0  0  0  0  0  0
   20.5851    7.4769   51.2243 O   0  0  0  0  0  0  0  0  0  0  0  0
   20.6192    6.9822   54.4420 H   0  0  0  0  0  0  0  0  0  0  0  0
   20.5699    5.3218   53.0392 C   0  0  0  0  0  0  0  0  0  0  0  0
   19.3420    4.6844   53.5734 C   0  0  0  0  0  0  0  0  0  0  0  0
   18.1445    5.4700   53.6901 N   0  0  0  0  0  0  0  0  0  0  0  0
   19.2725    3.5009   53.9333 O   0  0  0  0  0  0  0  0  0  0  0  0
   18.2550    6.4898   53.8156 H   0  0  0  0  0  0  0  0  0  0  0  0
   17.1912    5.0391   53.6512 H   0  0  0  0  0  0  0  0  0  0  0  0
   21.7654    4.5910   53.5719 C   0  0  0  0  0  0  0  0  0  0  0  0
   23.9416    5.8137   53.1076 C   0  0  0  0  0  0  0  0  0  0  0  0
   22.9059    5.3728   54.0697 C   0  0  0  0  0  0  0  0  0  0  0  0
   20.9792   10.2054   51.9151 C   0  0  0  0  0  0  0  0  0  0  0  0
   21.7937   11.3703   52.2641 C   0  0  0  0  0  0  0  0  0  0  0  0
   21.2821   11.9241   53.6300 C   0  0  0  0  0  0  0  0  0  0  0  0
   21.6845   12.5610   51.3533 C   0  0  0  0  0  0  0  0  0  0  0  0
 26 27  1  0  0  0
 27 25  1  0  0  0
 25 19  1  0  0  0
 19 15  1  0  0  0
 15 16  1  0  0  0
 16 17  2  0  0  0
 16  1  1  0  0  0
  1 28  1  0  0  0
 28 29  1  0  0  0
 29 30  1  0  0  0
 29 31  1  0  0  0
  1  2  1  0  0  0
  2  3  1  0  0  0
  3  4  2  0  0  0
  3  5  1  0  0  0
  5  8  1  0  0  0
  8  9  2  0  0  0
  9 10  1  0  0  0
 10 11  2  0  0  0
 11 12  1  0  0  0
 11 13  1  0  0  0
 13 14  2  0  0  0
 19 20  1  0  0  0
 20 21  1  0  0  0
 20 22  2  0  0  0
 14  8  1  0  0  0
 15 18  1  0  0  0
  2  6  1  0  0  0
  5  7  1  0  0  0
 21 23  1  0  0  0
 21 24  1  0  0  0
M  END
> <minimizedAffinity>
13.48002

> <CNNscore>
0.5562645197

> <CNNaffinity>
6.1016407013

> <CNN_VS>
3.3941261768

> <CNNaffinity_variance>
0.5241574049

$$$$
[H]c1c([H])c(N([H])C(=O)N([H])[C@]([H])(C(=O)N([H])[C@]([H])(C(=O)N([H])[H])C([H])([H])C([H])([H])C([H])([H])[H])C([H])([H])C([H])(C([H])([H])[H])C([H])([H])[H])c([H])c([H])c1Br


 31 31  0  0  0  0  0  0  0  0999 V2000
   24.3595    7.4415   53.0187 C   0  0  0  0  0  0  0  0  0  0  0  0
   25.2895    8.5012   53.3901 N   0  0  0  0  0  0  0  0  0  0  0  0
   25.8169    8.5362   54.7019 C   0  0  0  0  0  0  0  0  0  0  0  0
   25.4823    7.6493   55.5536 O   0  0  0  0  0  0  0  0  0  0  0  0
   26.7101    9.5409   55.0825 N   0  0  0  0  0  0  0  0  0  0  0  0
   25.5487    9.2028   52.7031 H   0  0  0  0  0  0  0  0  0  0  0  0
   26.9341   10.2510   54.3100 H   0  0  0  0  0  0  0  0  0  0  0  0
   27.3442    9.7285   56.3308 C   0  0  0  0  0  0  0  0  0  0  0  0
   27.8166   10.9144   56.8223 C   0  0  0  0  0  0  0  0  0  0  0  0
   28.4562   11.0044   58.0722 C   0  0  0  0  0  0  0  0  0  0  0  0
   28.6362    9.8975   58.8619 C   0  0  0  0  0  0  0  0  0  0  0  0
   29.5059   10.0217   60.5603 Br  0  0  0  0  0  0  0  0  0  0  0  0
   28.1673    8.7015   58.3824 C   0  0  0  0  0  0  0  0  0  0  0  0
   27.5430    8.6126   57.1622 C   0  0  0  0  0  0  0  0  0  0  0  0
   22.7912    9.3698   53.3482 N   0  0  0  0  0  0  0  0  0  0  0  0
   23.0664    8.0819   52.7779 C   0  0  0  0  0  0  0  0  0  0  0  0
   22.1762    7.5010   52.0729 O   0  0  0  0  0  0  0  0  0  0  0  0
   23.5427    9.8177   53.9075 H   0  0  0  0  0  0  0  0  0  0  0  0
   21.5142   10.0186   53.1510 C   0  0  0  0  0  0  0  0  0  0  0  0
   21.6635   11.1081   52.1561 C   0  0  0  0  0  0  0  0  0  0  0  0
   21.9459   12.4389   52.6186 N   0  0  0  0  0  0  0  0  0  0  0  0
   21.5604   10.9511   50.9315 O   0  0  0  0  0  0  0  0  0  0  0  0
   21.6254   12.6905   53.5683 H   0  0  0  0  0  0  0  0  0  0  0  0
   22.4556   13.1364   52.0272 H   0  0  0  0  0  0  0  0  0  0  0  0
   21.0165   10.6037   54.4382 C   0  0  0  0  0  0  0  0  0  0  0  0
   21.2359    8.4744   55.8037 C   0  0  0  0  0  0  0  0  0  0  0  0
   21.3808    9.9444   55.7002 C   0  0  0  0  0  0  0  0  0  0  0  0
   24.4289    6.3044   53.9508 C   0  0  0  0  0  0  0  0  0  0  0  0
   23.3195    5.9921   54.8530 C   0  0  0  0  0  0  0  0  0  0  0  0
   23.7288    4.7536   55.7090 C   0  0  0  0  0  0  0  0  0  0  0  0
   22.0361    5.5490   54.2080 C   0  0  0  0  0  0  0  0  0  0  0  0
 26 27  1  0  0  0
 27 25  1  0  0  0
 25 19  1  0  0  0
 19 15  1  0  0  0
 15 16  1  0  0  0
 16 17  2  0  0  0
 16  1  1  0  0  0
  1 28  1  0  0  0
 28 29  1  0  0  0
 29 30  1  0  0  0
 29 31  1  0  0  0
  1  2  1  0  0  0
  2  3  1  0  0  0
  3  4  2  0  0  0
  3  5  1  0  0  0
  5  8  1  0  0  0
  8  9  2  0  0  0
  9 10  1  0  0  0
 10 11  2  0  0  0
 11 12  1  0  0  0
 11 13  1  0  0  0
 13 14  2  0  0  0
 19 20  1  0  0  0
 20 21  1  0  0  0
 20 22  2  0  0  0
 14  8  1  0  0  0
 15 18  1  0  0  0
  2  6  1  0  0  0
  5  7  1  0  0  0
 21 23  1  0  0  0
 21 24  1  0  0  0
M  END
> <minimizedAffinity>
10.53957

> <CNNscore>
0.5311396718

> <CNNaffinity>
5.9230580330

> <CNN_VS>
3.1459710598

> <CNNaffinity_variance>
0.7762340307

$$$$
[H]c1c([H])c(N([H])C(=O)N([H])[C@]([H])(C(=O)N([H])[C@]([H])(C(=O)N([H])[H])C([H])([H])C([H])([H])C([H])([H])[H])C([H])([H])C([H])(C([H])([H])[H])C([H])([H])[H])c([H])c([H])c1Br


 31 31  0  0  0  0  0  0  0  0999 V2000
   21.6316    6.6677   53.4891 C   0  0  0  0  0  0  0  0  0  0  0  0
   21.3200    8.0217   53.9310 N   0  0  0  0  0  0  0  0  0  0  0  0
   21.4343    9.0955   53.0178 C   0  0  0  0  0  0  0  0  0  0  0  0
   21.8068    8.8826   51.8178 O   0  0  0  0  0  0  0  0  0  0  0  0
   21.1410   10.4021   53.4164 N   0  0  0  0  0  0  0  0  0  0  0  0
   21.0244    8.1795   54.8898 H   0  0  0  0  0  0  0  0  0  0  0  0
   20.8419   10.4961   54.4425 H   0  0  0  0  0  0  0  0  0  0  0  0
   21.1842   11.5873   52.6489 C   0  0  0  0  0  0  0  0  0  0  0  0
   21.7204   11.7152   51.3971 C   0  0  0  0  0  0  0  0  0  0  0  0
   21.7386   12.9445   50.7131 C   0  0  0  0  0  0  0  0  0  0  0  0
   21.2142   14.0805   51.2751 C   0  0  0  0  0  0  0  0  0  0  0  0
   21.2399   15.7505   50.3441 Br  0  0  0  0  0  0  0  0  0  0  0  0
   20.6726   13.9675   52.5297 C   0  0  0  0  0  0  0  0  0  0  0  0
   20.6547   12.7678   53.1984 C   0  0  0  0  0  0  0  0  0  0  0  0
   20.2585    4.5707   53.4263 N   0  0  0  0  0  0  0  0  0  0  0  0
   20.3527    5.9936   53.2649 C   0  0  0  0  0  0  0  0  0  0  0  0
   19.3213    6.6586   52.9169 O   0  0  0  0  0  0  0  0  0  0  0  0
   21.1152    4.0632   53.7207 H   0  0  0  0  0  0  0  0  0  0  0  0
   19.0162    3.8707   53.1874 C   0  0  0  0  0  0  0  0  0  0  0  0
   18.1479    3.9855   54.3841 C   0  0  0  0  0  0  0  0  0  0  0  0
   16.9646    4.7975   54.3100 N   0  0  0  0  0  0  0  0  0  0  0  0
   18.3730    3.4214   55.4639 O   0  0  0  0  0  0  0  0  0  0  0  0
   16.9666    5.5807   53.6357 H   0  0  0  0  0  0  0  0  0  0  0  0
   16.1263    4.6141   54.9096 H   0  0  0  0  0  0  0  0  0  0  0  0
   19.2736    2.4195   52.9138 C   0  0  0  0  0  0  0  0  0  0  0  0
   21.1073    0.6634   52.9119 C   0  0  0  0  0  0  0  0  0  0  0  0
   20.6262    2.0062   52.5143 C   0  0  0  0  0  0  0  0  0  0  0  0
   22.6316    6.0274   54.3590 C   0  0  0  0  0  0  0  0  0  0  0  0
   24.0630    6.1204   54.0685 C   0  0  0  0  0  0  0  0  0  0  0  0
   24.8408    5.5259   55.2833 C   0  0  0  0  0  0  0  0  0  0  0  0
   24.6330    7.5060   53.9464 C   0  0  0  0  0  0  0  0  0  0  0  0
 26 27  1  0  0  0
 27 25  1  0  0  0
 25 19  1  0  0  0
 19 15  1  0  0  0
 15 16  1  0  0  0
 16 17  2  0  0  0
 16  1  1  0  0  0
  1 28  1  0  0  0
 28 29  1  0  0  0
 29 30  1  0  0  0
 29 31  1  0  0  0
  1  2  1  0  0  0
  2  3  1  0  0  0
  3  4  2  0  0  0
  3  5  1  0  0  0
  5  8  1  0  0  0
  8  9  2  0  0  0
  9 10  1  0  0  0
 10 11  2  0  0  0
 11 12  1  0  0  0
 11 13  1  0  0  0
 13 14  2  0  0  0
 19 20  1  0  0  0
 20 21  1  0  0  0
 20 22  2  0  0  0
 14  8  1  0  0  0
 15 18  1  0  0  0
  2  6  1  0  0  0
  5  7  1  0  0  0
 21 23  1  0  0  0
 21 24  1  0  0  0
M  END
> <minimizedAffinity>
24.77547

> <CNNscore>
0.5172842741

> <CNNaffinity>
6.1346011162

> <CNN_VS>
3.1733326912

> <CNNaffinity_variance>
0.9169893265

$$$$
[H]c1c([H])c(N([H])C(=O)N([H])[C@]([H])(C(=O)N([H])[C@]([H])(C(=O)N([H])[H])C([H])([H])C([H])([H])C([H])([H])[H])C([H])([H])C([H])(C([H])([H])[H])C([H])([H])[H])c([H])c([H])c1Br


 31 31  0  0  0  0  0  0  0  0999 V2000
   23.1332    9.5783   54.8958 C   0  0  0  0  0  0  0  0  0  0  0  0
   24.5594    9.2878   54.9819 N   0  0  0  0  0  0  0  0  0  0  0  0
   25.2814    9.6801   56.1329 C   0  0  0  0  0  0  0  0  0  0  0  0
   24.6912   10.2832   57.0880 O   0  0  0  0  0  0  0  0  0  0  0  0
   26.6486    9.4130   56.2400 N   0  0  0  0  0  0  0  0  0  0  0  0
   25.0192    8.8070   54.2145 H   0  0  0  0  0  0  0  0  0  0  0  0
   27.0697    8.9093   55.3914 H   0  0  0  0  0  0  0  0  0  0  0  0
   27.5234    9.7138   57.3076 C   0  0  0  0  0  0  0  0  0  0  0  0
   28.0738   10.9370   57.5757 C   0  0  0  0  0  0  0  0  0  0  0  0
   28.9554   11.1408   58.6530 C   0  0  0  0  0  0  0  0  0  0  0  0
   29.3055   10.1132   59.4914 C   0  0  0  0  0  0  0  0  0  0  0  0
   30.5040   10.3919   60.9551 Br  0  0  0  0  0  0  0  0  0  0  0  0
   28.7612    8.8811   59.2352 C   0  0  0  0  0  0  0  0  0  0  0  0
   27.9007    8.6811   58.1835 C   0  0  0  0  0  0  0  0  0  0  0  0
   23.0051    7.9411   53.0012 N   0  0  0  0  0  0  0  0  0  0  0  0
   22.5059    8.4206   54.2583 C   0  0  0  0  0  0  0  0  0  0  0  0
   21.5113    7.8387   54.8054 O   0  0  0  0  0  0  0  0  0  0  0  0
   23.8225    8.4323   52.5904 H   0  0  0  0  0  0  0  0  0  0  0  0
   22.3917    6.8156   52.3321 C   0  0  0  0  0  0  0  0  0  0  0  0
   20.9277    7.0341   52.2422 C   0  0  0  0  0  0  0  0  0  0  0  0
   20.0569    6.2741   53.0960 N   0  0  0  0  0  0  0  0  0  0  0  0
   20.3905    7.8398   51.4694 O   0  0  0  0  0  0  0  0  0  0  0  0
   20.3903    5.3485   53.4126 H   0  0  0  0  0  0  0  0  0  0  0  0
   19.1192    6.6319   53.3935 H   0  0  0  0  0  0  0  0  0  0  0  0
   22.6461    5.5487   53.0918 C   0  0  0  0  0  0  0  0  0  0  0  0
   23.4154    5.4704   55.5103 C   0  0  0  0  0  0  0  0  0  0  0  0
   23.7449    5.5198   54.0674 C   0  0  0  0  0  0  0  0  0  0  0  0
   22.8829   10.9191   54.3425 C   0  0  0  0  0  0  0  0  0  0  0  0
   21.6218   11.2423   53.6736 C   0  0  0  0  0  0  0  0  0  0  0  0
   20.4771   10.4784   54.4086 C   0  0  0  0  0  0  0  0  0  0  0  0
   21.4801   10.7782   52.2509 C   0  0  0  0  0  0  0  0  0  0  0  0
 26 27  1  0  0  0
 27 25  1  0  0  0
 25 19  1  0  0  0
 19 15  1  0  0  0
 15 16  1  0  0  0
 16 17  2  0  0  0
 16  1  1  0  0  0
  1 28  1  0  0  0
 28 29  1  0  0  0
 29 30  1  0  0  0
 29 31  1  0  0  0
  1  2  1  0  0  0
  2  3  1  0  0  0
  3  4  2  0  0  0
  3  5  1  0  0  0
  5  8  1  0  0  0
  8  9  2  0  0  0
  9 10  1  0  0  0
 10 11  2  0  0  0
 11 12  1  0  0  0
 11 13  1  0  0  0
 13 14  2  0  0  0
 19 20  1  0  0  0
 20 21  1  0  0  0
 20 22  2  0  0  0
 14  8  1  0  0  0
 15 18  1  0  0  0
  2  6  1  0  0  0
  5  7  1  0  0  0
 21 23  1  0  0  0
 21 24  1  0  0  0
M  END
> <minimizedAffinity>
10.35509

> <CNNscore>
0.5159670115

> <CNNaffinity>
6.1348366737

> <CNN_VS>
3.1653733253

> <CNNaffinity_variance>
0.3319914937

$$$$
[H]c1c([H])c(N([H])C(=O)N([H])[C@]([H])(C(=O)N([H])[C@]([H])(C(=O)N([H])[H])C([H])([H])C([H])([H])C([H])([H])[H])C([H])([H])C([H])(C([H])([H])[H])C([H])([H])[H])c([H])c([H])c1Br


 31 31  0  0  0  0  0  0  0  0999 V2000
   21.3346    8.2323   52.8270 C   0  0  0  0  0  0  0  0  0  0  0  0
   22.7356    7.8289   52.8500 N   0  0  0  0  0  0  0  0  0  0  0  0
   23.6045    8.3859   53.8169 C   0  0  0  0  0  0  0  0  0  0  0  0
   23.1676    9.2340   54.6618 O   0  0  0  0  0  0  0  0  0  0  0  0
   24.9510    8.0155   53.8602 N   0  0  0  0  0  0  0  0  0  0  0  0
   23.0726    7.1525   52.1714 H   0  0  0  0  0  0  0  0  0  0  0  0
   25.2392    7.3033   53.1114 H   0  0  0  0  0  0  0  0  0  0  0  0
   25.9554    8.4506   54.7531 C   0  0  0  0  0  0  0  0  0  0  0  0
   27.3048    8.3213   54.5699 C   0  0  0  0  0  0  0  0  0  0  0  0
   28.2356    8.7668   55.5262 C   0  0  0  0  0  0  0  0  0  0  0  0
   27.8288    9.3569   56.6957 C   0  0  0  0  0  0  0  0  0  0  0  0
   29.0953    9.9616   57.9944 Br  0  0  0  0  0  0  0  0  0  0  0  0
   26.4788    9.4937   56.8931 C   0  0  0  0  0  0  0  0  0  0  0  0
   25.5693    9.0588   55.9601 C   0  0  0  0  0  0  0  0  0  0  0  0
   19.9858    6.2144   53.4555 N   0  0  0  0  0  0  0  0  0  0  0  0
   20.5629    7.0506   52.4420 C   0  0  0  0  0  0  0  0  0  0  0  0
   20.4063    6.7506   51.2122 O   0  0  0  0  0  0  0  0  0  0  0  0
   20.1244    6.4948   54.4456 H   0  0  0  0  0  0  0  0  0  0  0  0
   19.2394    5.0253   53.1097 C   0  0  0  0  0  0  0  0  0  0  0  0
   17.9439    5.0296   53.8313 C   0  0  0  0  0  0  0  0  0  0  0  0
   17.2156    6.2629   53.9466 N   0  0  0  0  0  0  0  0  0  0  0  0
   17.4341    4.0276   54.3521 O   0  0  0  0  0  0  0  0  0  0  0  0
   17.7602    7.1409   53.9233 H   0  0  0  0  0  0  0  0  0  0  0  0
   16.1742    6.2857   54.0506 H   0  0  0  0  0  0  0  0  0  0  0  0
   20.0031    3.7939   53.4937 C   0  0  0  0  0  0  0  0  0  0  0  0
   20.8235    1.4920   52.8045 C   0  0  0  0  0  0  0  0  0  0  0  0
   19.8147    2.5711   52.7006 C   0  0  0  0  0  0  0  0  0  0  0  0
   21.1407    9.4849   52.0786 C   0  0  0  0  0  0  0  0  0  0  0  0
   20.9868   10.7666   52.7682 C   0  0  0  0  0  0  0  0  0  0  0  0
   21.8534   11.8247   52.0175 C   0  0  0  0  0  0  0  0  0  0  0  0
   21.5098   10.8369   54.1757 C   0  0  0  0  0  0  0  0  0  0  0  0
 26 27  1  0  0  0
 27 25  1  0  0  0
 25 19  1  0  0  0
 19 15  1  0  0  0
 15 16  1  0  0  0
 16 17  2  0  0  0
 16  1  1  0  0  0
  1 28  1  0  0  0
 28 29  1  0  0  0
 29 30  1  0  0  0
 29 31  1  0  0  0
  1  2  1  0  0  0
  2  3  1  0  0  0
  3  4  2  0  0  0
  3  5  1  0  0  0
  5  8  1  0  0  0
  8  9  2  0  0  0
  9 10  1  0  0  0
 10 11  2  0  0  0
 11 12  1  0  0  0
 11 13  1  0  0  0
 13 14  2  0  0  0
 19 20  1  0  0  0
 20 21  1  0  0  0
 20 22  2  0  0  0
 14  8  1  0  0  0
 15 18  1  0  0  0
  2  6  1  0  0  0
  5  7  1  0  0  0
 21 23  1  0  0  0
 21 24  1  0  0  0
M  END
> <minimizedAffinity>
15.01612

> <CNNscore>
0.5074923038

> <CNNaffinity>
6.2353253365

> <CNN_VS>
3.1643795967

> <CNNaffinity_variance>
0.5630590916

$$$$
[H]OC(C([H])([H])[H])(C([H])([H])[H])C([H])([H])C(=O)N([H])C([H])([H])C([H])([H])c1c([H])c([H])c2nc([H])nc(N([H])c3c([H])c([H])c(Oc4c([H])c([H])c([H])c(C(F)(F)F)c4[H])c(Cl)c3[H])c2c1[H]


 42 45  0  0  0  0  0  0  0  0999 V2000
   22.2564    9.0096   55.4542 C   0  0  0  0  0  0  0  0  0  0  0  0
   21.3009    8.0499   55.6348 C   0  0  0  0  0  0  0  0  0  0  0  0
   21.4930    6.7813   55.1823 C   0  0  0  0  0  0  0  0  0  0  0  0
   22.6586    6.4200   54.5205 C   0  0  0  0  0  0  0  0  0  0  0  0
   22.7694    5.1474   54.0888 N   0  0  0  0  0  0  0  0  0  0  0  0
   23.8800    4.7867   53.4304 C   0  0  0  0  0  0  0  0  0  0  0  0
   24.8040    5.7217   53.2463 N   0  0  0  0  0  0  0  0  0  0  0  0
   24.7723    6.9859   53.6373 C   0  0  0  0  0  0  0  0  0  0  0  0
   23.6238    7.3855   54.3317 C   0  0  0  0  0  0  0  0  0  0  0  0
   23.4474    8.6532   54.7816 C   0  0  0  0  0  0  0  0  0  0  0  0
   25.7811    7.9157   53.3274 N   0  0  0  0  0  0  0  0  0  0  0  0
   25.9578    8.2556   52.3475 H   0  0  0  0  0  0  0  0  0  0  0  0
   26.6489    8.4645   54.3081 C   0  0  0  0  0  0  0  0  0  0  0  0
   27.8931    8.9570   54.0644 C   0  0  0  0  0  0  0  0  0  0  0  0
   28.6546    9.5854   55.0540 C   0  0  0  0  0  0  0  0  0  0  0  0
   28.1387    9.7228   56.3549 C   0  0  0  0  0  0  0  0  0  0  0  0
   26.8837    9.2264   56.6221 C   0  0  0  0  0  0  0  0  0  0  0  0
   26.1749    9.3405   58.2447 Cl  0  0  0  0  0  0  0  0  0  0  0  0
   26.1771    8.6187   55.6090 C   0  0  0  0  0  0  0  0  0  0  0  0
   28.9175   10.3431   57.2561 O   0  0  0  0  0  0  0  0  0  0  0  0
   28.9205   10.5614   58.5817 C   0  0  0  0  0  0  0  0  0  0  0  0
   29.1304    9.4675   59.4377 C   0  0  0  0  0  0  0  0  0  0  0  0
   29.1400    9.6659   60.7893 C   0  0  0  0  0  0  0  0  0  0  0  0
   28.9435   10.9321   61.2956 C   0  0  0  0  0  0  0  0  0  0  0  0
   28.7331   12.0242   60.4849 C   0  0  0  0  0  0  0  0  0  0  0  0
   28.7235   11.8352   59.1294 C   0  0  0  0  0  0  0  0  0  0  0  0
   28.5060   13.3523   61.1143 C   0  0  0  0  0  0  0  0  0  0  0  0
   27.2350   13.3754   61.7207 F   0  0  0  0  0  0  0  0  0  0  0  0
   29.4199   13.4923   62.1383 F   0  0  0  0  0  0  0  0  0  0  0  0
   28.6591   14.3794   60.2271 F   0  0  0  0  0  0  0  0  0  0  0  0
   22.0708   10.3790   55.8748 C   0  0  0  0  0  0  0  0  0  0  0  0
   21.4423   11.3278   54.8743 C   0  0  0  0  0  0  0  0  0  0  0  0
   21.5466   10.4235   52.2788 C   0  0  0  0  0  0  0  0  0  0  0  0
   21.2432   11.0562   51.2483 O   0  0  0  0  0  0  0  0  0  0  0  0
   21.4951   10.8738   53.5762 N   0  0  0  0  0  0  0  0  0  0  0  0
   21.1890   12.1267   53.1223 H   0  0  0  0  0  0  0  0  0  0  0  0
   22.0156    9.0105   52.0201 C   0  0  0  0  0  0  0  0  0  0  0  0
   20.1908    8.2538   50.5537 C   0  0  0  0  0  0  0  0  0  0  0  0
   20.9590    8.0097   51.8149 C   0  0  0  0  0  0  0  0  0  0  0  0
   20.0617    7.8028   53.0239 C   0  0  0  0  0  0  0  0  0  0  0  0
   21.6469    6.7586   51.6231 O   0  0  0  0  0  0  0  0  0  0  0  0
   22.4046    6.7744   52.2678 H   0  0  0  0  0  0  0  0  0  0  0  0
 38 39  1  0  0  0
 39 40  1  0  0  0
 39 41  1  0  0  0
 39 37  1  0  0  0
 37 33  1  0  0  0
 33 34  2  0  0  0
 33 35  1  0  0  0
 35 32  1  0  0  0
 32 31  1  0  0  0
 31  1  1  0  0  0
  1  2  2  0  0  0
  2  3  1  0  0  0
  3  4  2  0  0  0
  4  5  1  0  0  0
  5  6  2  0  0  0
  6  7  1  0  0  0
  7  8  2  0  0  0
  8 11  1  0  0  0
 11 13  1  0  0  0
 13 14  2  0  0  0
 14 15  1  0  0  0
 15 16  2  0  0  0
 16 20  1  0  0  0
 20 21  1  0  0  0
 21 22  2  0  0  0
 22 23  1  0  0  0
 23 24  2  0  0  0
 24 25  1  0  0  0
 25 27  1  0  0  0
 27 28  1  0  0  0
 27 29  1  0  0  0
 27 30  1  0  0  0
 25 26  2  0  0  0
 16 17  1  0  0  0
 17 18  1  0  0  0
 17 19  2  0  0  0
  8  9  1  0  0  0
  9 10  2  0  0  0
 10  1  1  0  0  0
  9  4  1  0  0  0
 19 13  1  0  0  0
 26 21  1  0  0  0
 41 42  1  0  0  0
 35 36  1  0  0  0
 11 12  1  0  0  0
M  END
> <minimizedAffinity>
9.95062

> <CNNscore>
0.5851571560

> <CNNaffinity>
7.0080595016

> <CNN_VS>
4.1008162498

> <CNNaffinity_variance>
0.6977381110

$$$$
[H]OC(C([H])([H])[H])(C([H])([H])[H])C([H])([H])C(=O)N([H])C([H])([H])C([H])([H])c1c([H])c([H])c2nc([H])nc(N([H])c3c([H])c([H])c(Oc4c([H])c([H])c([H])c(C(F)(F)F)c4[H])c(Cl)c3[H])c2c1[H]


 42 45  0  0  0  0  0  0  0  0999 V2000
   22.4255    9.2239   55.4931 C   0  0  0  0  0  0  0  0  0  0  0  0
   21.6870    8.1150   55.1907 C   0  0  0  0  0  0  0  0  0  0  0  0
   22.2847    6.9858   54.7232 C   0  0  0  0  0  0  0  0  0  0  0  0
   23.6584    6.9220   54.5336 C   0  0  0  0  0  0  0  0  0  0  0  0
   24.1754    5.7731   54.0531 N   0  0  0  0  0  0  0  0  0  0  0  0
   25.4979    5.7011   53.8452 C   0  0  0  0  0  0  0  0  0  0  0  0
   26.2140    6.7819   54.1297 N   0  0  0  0  0  0  0  0  0  0  0  0
   25.7854    7.9415   54.6028 C   0  0  0  0  0  0  0  0  0  0  0  0
   24.4076    8.0394   54.8328 C   0  0  0  0  0  0  0  0  0  0  0  0
   23.8252    9.1706   55.3039 C   0  0  0  0  0  0  0  0  0  0  0  0
   26.6254    9.0514   54.8045 N   0  0  0  0  0  0  0  0  0  0  0  0
   26.9126    9.6949   54.0233 H   0  0  0  0  0  0  0  0  0  0  0  0
   27.1617    9.3892   56.0750 C   0  0  0  0  0  0  0  0  0  0  0  0
   27.7000    8.5050   56.9574 C   0  0  0  0  0  0  0  0  0  0  0  0
   28.3123    8.9146   58.1455 C   0  0  0  0  0  0  0  0  0  0  0  0
   28.3841   10.2827   58.4625 C   0  0  0  0  0  0  0  0  0  0  0  0
   27.8407   11.1921   57.5846 C   0  0  0  0  0  0  0  0  0  0  0  0
   27.8712   12.9329   57.9265 Cl  0  0  0  0  0  0  0  0  0  0  0  0
   27.2516   10.7331   56.4282 C   0  0  0  0  0  0  0  0  0  0  0  0
   28.9922   10.6093   59.6144 O   0  0  0  0  0  0  0  0  0  0  0  0
   28.9006   11.5729   60.5461 C   0  0  0  0  0  0  0  0  0  0  0  0
   28.5101   11.2097   61.8456 C   0  0  0  0  0  0  0  0  0  0  0  0
   28.4124   12.1723   62.8101 C   0  0  0  0  0  0  0  0  0  0  0  0
   28.6964   13.4838   62.4979 C   0  0  0  0  0  0  0  0  0  0  0  0
   29.0793   13.8731   61.2346 C   0  0  0  0  0  0  0  0  0  0  0  0
   29.1814   12.9153   60.2624 C   0  0  0  0  0  0  0  0  0  0  0  0
   29.3444   15.3136   60.9768 C   0  0  0  0  0  0  0  0  0  0  0  0
   29.4397   15.5343   59.5891 F   0  0  0  0  0  0  0  0  0  0  0  0
   28.2413   16.0250   61.4015 F   0  0  0  0  0  0  0  0  0  0  0  0
   30.4538   15.7624   61.6351 F   0  0  0  0  0  0  0  0  0  0  0  0
   21.8247   10.4578   55.9440 C   0  0  0  0  0  0  0  0  0  0  0  0
   21.0579   11.2662   54.9171 C   0  0  0  0  0  0  0  0  0  0  0  0
   21.5330   10.4894   52.3218 C   0  0  0  0  0  0  0  0  0  0  0  0
   21.4678   11.1997   51.2993 O   0  0  0  0  0  0  0  0  0  0  0  0
   21.2960   10.8760   53.6191 N   0  0  0  0  0  0  0  0  0  0  0  0
   21.1809   12.1738   53.2045 H   0  0  0  0  0  0  0  0  0  0  0  0
   21.9179    9.0532   52.0522 C   0  0  0  0  0  0  0  0  0  0  0  0
   19.6491    8.9483   51.1064 C   0  0  0  0  0  0  0  0  0  0  0  0
   20.8355    8.1736   51.5888 C   0  0  0  0  0  0  0  0  0  0  0  0
   20.4658    7.0779   52.5749 C   0  0  0  0  0  0  0  0  0  0  0  0
   21.3610    7.4942   50.4324 O   0  0  0  0  0  0  0  0  0  0  0  0
   22.3083    7.2887   50.6568 H   0  0  0  0  0  0  0  0  0  0  0  0
 38 39  1  0  0  0
 39 40  1  0  0  0
 39 41  1  0  0  0
 39 37  1  0  0  0
 37 33  1  0  0  0
 33 34  2  0  0  0
 33 35  1  0  0  0
 35 32  1  0  0  0
 32 31  1  0  0  0
 31  1  1  0  0  0
  1  2  2  0  0  0
  2  3  1  0  0  0
  3  4  2  0  0  0
  4  5  1  0  0  0
  5  6  2  0  0  0
  6  7  1  0  0  0
  7  8  2  0  0  0
  8 11  1  0  0  0
 11 13  1  0  0  0
 13 14  2  0  0  0
 14 15  1  0  0  0
 15 16  2  0  0  0
 16 20  1  0  0  0
 20 21  1  0  0  0
 21 22  2  0  0  0
 22 23  1  0  0  0
 23 24  2  0  0  0
 24 25  1  0  0  0
 25 27  1  0  0  0
 27 28  1  0  0  0
 27 29  1  0  0  0
 27 30  1  0  0  0
 25 26  2  0  0  0
 16 17  1  0  0  0
 17 18  1  0  0  0
 17 19  2  0  0  0
  8  9  1  0  0  0
  9 10  2  0  0  0
 10  1  1  0  0  0
  9  4  1  0  0  0
 19 13  1  0  0  0
 26 21  1  0  0  0
 41 42  1  0  0  0
 35 36  1  0  0  0
 11 12  1  0  0  0
M  END
> <minimizedAffinity>
11.70504

> <CNNscore>
0.5608446002

> <CNNaffinity>
6.8216409683

> <CNN_VS>
3.8258805275

> <CNNaffinity_variance>
0.9895020723

$$$$
[H]OC(C([H])([H])[H])(C([H])([H])[H])C([H])([H])C(=O)N([H])C([H])([H])C([H])([H])c1c([H])c([H])c2nc([H])nc(N([H])c3c([H])c([H])c(Oc4c([H])c([H])c([H])c(C(F)(F)F)c4[H])c(Cl)c3[H])c2c1[H]


 42 45  0  0  0  0  0  0  0  0999 V2000
   23.7334    8.3760   55.0423 C   0  0  0  0  0  0  0  0  0  0  0  0
   23.9955    7.4773   54.0472 C   0  0  0  0  0  0  0  0  0  0  0  0
   25.2750    7.2017   53.6762 C   0  0  0  0  0  0  0  0  0  0  0  0
   26.3541    7.8240   54.2891 C   0  0  0  0  0  0  0  0  0  0  0  0
   27.5918    7.5096   53.8563 N   0  0  0  0  0  0  0  0  0  0  0  0
   28.6441    8.1161   54.4237 C   0  0  0  0  0  0  0  0  0  0  0  0
   28.3889    8.9967   55.3837 N   0  0  0  0  0  0  0  0  0  0  0  0
   27.2098    9.3586   55.8641 C   0  0  0  0  0  0  0  0  0  0  0  0
   26.0951    8.7349   55.2904 C   0  0  0  0  0  0  0  0  0  0  0  0
   24.8243    9.0159   55.6735 C   0  0  0  0  0  0  0  0  0  0  0  0
   27.0473   10.3582   56.8401 N   0  0  0  0  0  0  0  0  0  0  0  0
   26.3474   11.1378   56.7427 H   0  0  0  0  0  0  0  0  0  0  0  0
   27.8191   10.4031   58.0310 C   0  0  0  0  0  0  0  0  0  0  0  0
   28.4715    9.3439   58.5810 C   0  0  0  0  0  0  0  0  0  0  0  0
   29.3060    9.4771   59.6946 C   0  0  0  0  0  0  0  0  0  0  0  0
   29.4911   10.7395   60.2858 C   0  0  0  0  0  0  0  0  0  0  0  0
   28.8354   11.8223   59.7466 C   0  0  0  0  0  0  0  0  0  0  0  0
   28.9999   13.4424   60.4513 Cl  0  0  0  0  0  0  0  0  0  0  0  0
   28.0274   11.6338   58.6481 C   0  0  0  0  0  0  0  0  0  0  0  0
   30.3114   10.8000   61.3473 O   0  0  0  0  0  0  0  0  0  0  0  0
   31.2208   11.6510   61.8510 C   0  0  0  0  0  0  0  0  0  0  0  0
   32.0537   11.2002   62.8885 C   0  0  0  0  0  0  0  0  0  0  0  0
   32.9876   12.0472   63.4146 C   0  0  0  0  0  0  0  0  0  0  0  0
   33.1009   13.3296   62.9238 C   0  0  0  0  0  0  0  0  0  0  0  0
   32.2993   13.8028   61.9101 C   0  0  0  0  0  0  0  0  0  0  0  0
   31.3620   12.9607   61.3758 C   0  0  0  0  0  0  0  0  0  0  0  0
   32.4717   15.2082   61.4553 C   0  0  0  0  0  0  0  0  0  0  0  0
   33.1243   15.2231   60.2073 F   0  0  0  0  0  0  0  0  0  0  0  0
   31.2154   15.7342   61.2353 F   0  0  0  0  0  0  0  0  0  0  0  0
   33.1285   15.9741   62.3759 F   0  0  0  0  0  0  0  0  0  0  0  0
   22.3890    8.7335   55.4316 C   0  0  0  0  0  0  0  0  0  0  0  0
   21.9250   10.1366   55.0971 C   0  0  0  0  0  0  0  0  0  0  0  0
   21.4680   10.5378   52.4147 C   0  0  0  0  0  0  0  0  0  0  0  0
   21.8002   11.5282   51.7342 O   0  0  0  0  0  0  0  0  0  0  0  0
   21.6956   10.3358   53.7549 N   0  0  0  0  0  0  0  0  0  0  0  0
   22.4565   11.4713   53.7902 H   0  0  0  0  0  0  0  0  0  0  0  0
   20.7365    9.4701   51.6348 C   0  0  0  0  0  0  0  0  0  0  0  0
   20.2903    7.9063   53.4810 C   0  0  0  0  0  0  0  0  0  0  0  0
   20.8951    8.0935   52.1247 C   0  0  0  0  0  0  0  0  0  0  0  0
   22.3173    7.5658   52.0330 C   0  0  0  0  0  0  0  0  0  0  0  0
   20.1186    7.2751   51.2291 O   0  0  0  0  0  0  0  0  0  0  0  0
   20.2705    7.6596   50.3241 H   0  0  0  0  0  0  0  0  0  0  0  0
 38 39  1  0  0  0
 39 40  1  0  0  0
 39 41  1  0  0  0
 39 37  1  0  0  0
 37 33  1  0  0  0
 33 34  2  0  0  0
 33 35  1  0  0  0
 35 32  1  0  0  0
 32 31  1  0  0  0
 31  1  1  0  0  0
  1  2  2  0  0  0
  2  3  1  0  0  0
  3  4  2  0  0  0
  4  5  1  0  0  0
  5  6  2  0  0  0
  6  7  1  0  0  0
  7  8  2  0  0  0
  8 11  1  0  0  0
 11 13  1  0  0  0
 13 14  2  0  0  0
 14 15  1  0  0  0
 15 16  2  0  0  0
 16 20  1  0  0  0
 20 21  1  0  0  0
 21 22  2  0  0  0
 22 23  1  0  0  0
 23 24  2  0  0  0
 24 25  1  0  0  0
 25 27  1  0  0  0
 27 28  1  0  0  0
 27 29  1  0  0  0
 27 30  1  0  0  0
 25 26  2  0  0  0
 16 17  1  0  0  0
 17 18  1  0  0  0
 17 19  2  0  0  0
  8  9  1  0  0  0
  9 10  2  0  0  0
 10  1  1  0  0  0
  9  4  1  0  0  0
 19 13  1  0  0  0
 26 21  1  0  0  0
 41 42  1  0  0  0
 35 36  1  0  0  0
 11 12  1  0  0  0
M  END
> <minimizedAffinity>
1.72588

> <CNNscore>
0.5373224020

> <CNNaffinity>
6.7760162354

> <CNN_VS>
3.6409053802

> <CNNaffinity_variance>
0.9944087267

$$$$
[H]OC(C([H])([H])[H])(C([H])([H])[H])C([H])([H])C(=O)N([H])C([H])([H])C([H])([H])c1c([H])c([H])c2nc([H])nc(N([H])c3c([H])c([H])c(Oc4c([H])c([H])c([H])c(C(F)(F)F)c4[H])c(Cl)c3[H])c2c1[H]


 42 45  0  0  0  0  0  0  0  0999 V2000
   24.9529    8.6822   54.7688 C   0  0  0  0  0  0  0  0  0  0  0  0
   25.1934    7.4121   54.3265 C   0  0  0  0  0  0  0  0  0  0  0  0
   24.2635    6.7412   53.5943 C   0  0  0  0  0  0  0  0  0  0  0  0
   23.0417    7.3185   53.2763 C   0  0  0  0  0  0  0  0  0  0  0  0
   22.1658    6.5853   52.5599 N   0  0  0  0  0  0  0  0  0  0  0  0
   20.9734    7.1201   52.2610 C   0  0  0  0  0  0  0  0  0  0  0  0
   20.7360    8.3504   52.6993 N   0  0  0  0  0  0  0  0  0  0  0  0
   21.5384    9.1329   53.4035 C   0  0  0  0  0  0  0  0  0  0  0  0
   22.7921    8.5979   53.7240 C   0  0  0  0  0  0  0  0  0  0  0  0
   23.7122    9.2801   54.4511 C   0  0  0  0  0  0  0  0  0  0  0  0
   21.1587   10.4011   53.8786 N   0  0  0  0  0  0  0  0  0  0  0  0
   20.7757   10.5529   54.8467 H   0  0  0  0  0  0  0  0  0  0  0  0
   21.2520   11.5778   53.0894 C   0  0  0  0  0  0  0  0  0  0  0  0
   21.9113   11.6743   51.9037 C   0  0  0  0  0  0  0  0  0  0  0  0
   21.8732   12.8314   51.1201 C   0  0  0  0  0  0  0  0  0  0  0  0
   21.1364   13.9481   51.5531 C   0  0  0  0  0  0  0  0  0  0  0  0
   20.4669   13.8713   52.7526 C   0  0  0  0  0  0  0  0  0  0  0  0
   19.5359   15.2467   53.3768 Cl  0  0  0  0  0  0  0  0  0  0  0  0
   20.5373   12.7062   53.4824 C   0  0  0  0  0  0  0  0  0  0  0  0
   21.1345   15.0244   50.7500 O   0  0  0  0  0  0  0  0  0  0  0  0
   21.8904   16.1177   50.5546 C   0  0  0  0  0  0  0  0  0  0  0  0
   21.9085   17.1041   51.5546 C   0  0  0  0  0  0  0  0  0  0  0  0
   22.6719   18.2233   51.3788 C   0  0  0  0  0  0  0  0  0  0  0  0
   23.4121   18.3716   50.2263 C   0  0  0  0  0  0  0  0  0  0  0  0
   23.4147   17.4255   49.2267 C   0  0  0  0  0  0  0  0  0  0  0  0
   22.6541   16.3002   49.3949 C   0  0  0  0  0  0  0  0  0  0  0  0
   24.2238   17.6752   48.0042 C   0  0  0  0  0  0  0  0  0  0  0  0
   25.4097   18.3501   48.3534 F   0  0  0  0  0  0  0  0  0  0  0  0
   24.6150   16.4505   47.5035 F   0  0  0  0  0  0  0  0  0  0  0  0
   23.5224   18.3524   47.0476 F   0  0  0  0  0  0  0  0  0  0  0  0
   25.8927    9.4095   55.5901 C   0  0  0  0  0  0  0  0  0  0  0  0
   27.1497    8.6764   56.0126 C   0  0  0  0  0  0  0  0  0  0  0  0
   28.3823    9.7840   58.2078 C   0  0  0  0  0  0  0  0  0  0  0  0
   28.4844   10.9958   58.4824 O   0  0  0  0  0  0  0  0  0  0  0  0
   27.7668    9.2290   57.1115 N   0  0  0  0  0  0  0  0  0  0  0  0
   27.3123   10.4664   56.7484 H   0  0  0  0  0  0  0  0  0  0  0  0
   29.0227    8.8650   59.2221 C   0  0  0  0  0  0  0  0  0  0  0  0
   30.0649   10.8650   60.2052 C   0  0  0  0  0  0  0  0  0  0  0  0
   29.4981    9.5029   60.4579 C   0  0  0  0  0  0  0  0  0  0  0  0
   30.4165    8.6251   61.2918 C   0  0  0  0  0  0  0  0  0  0  0  0
   28.3207    9.7076   61.2621 O   0  0  0  0  0  0  0  0  0  0  0  0
   27.7668    8.8918   61.1287 H   0  0  0  0  0  0  0  0  0  0  0  0
 38 39  1  0  0  0
 39 40  1  0  0  0
 39 41  1  0  0  0
 39 37  1  0  0  0
 37 33  1  0  0  0
 33 34  2  0  0  0
 33 35  1  0  0  0
 35 32  1  0  0  0
 32 31  1  0  0  0
 31  1  1  0  0  0
  1  2  2  0  0  0
  2  3  1  0  0  0
  3  4  2  0  0  0
  4  5  1  0  0  0
  5  6  2  0  0  0
  6  7  1  0  0  0
  7  8  2  0  0  0
  8 11  1  0  0  0
 11 13  1  0  0  0
 13 14  2  0  0  0
 14 15  1  0  0  0
 15 16  2  0  0  0
 16 20  1  0  0  0
 20 21  1  0  0  0
 21 22  2  0  0  0
 22 23  1  0  0  0
 23 24  2  0  0  0
 24 25  1  0  0  0
 25 27  1  0  0  0
 27 28  1  0  0  0
 27 29  1  0  0  0
 27 30  1  0  0  0
 25 26  2  0  0  0
 16 17  1  0  0  0
 17 18  1  0  0  0
 17 19  2  0  0  0
  8  9  1  0  0  0
  9 10  2  0  0  0
 10  1  1  0  0  0
  9  4  1  0  0  0
 19 13  1  0  0  0
 26 21  1  0  0  0
 41 42  1  0  0  0
 35 36  1  0  0  0
 11 12  1  0  0  0
M  END
> <minimizedAffinity>
12.51607

> <CNNscore>
0.5236213803

> <CNNaffinity>
6.7576341629

> <CNN_VS>
3.5384416580

> <CNNaffinity_variance>
0.1327424198

$$$$
[H]OC(C([H])([H])[H])(C([H])([H])[H])C([H])([H])C(=O)N([H])C([H])([H])C([H])([H])c1c([H])c([H])c2nc([H])nc(N([H])c3c([H])c([H])c(Oc4c([H])c([H])c([H])c(C(F)(F)F)c4[H])c(Cl)c3[H])c2c1[H]


 42 45  0  0  0  0  0  0  0  0999 V2000
   24.1589    8.4364   54.9919 C   0  0  0  0  0  0  0  0  0  0  0  0
   24.5027    8.2240   53.6868 C   0  0  0  0  0  0  0  0  0  0  0  0
   25.8047    8.2624   53.2939 C   0  0  0  0  0  0  0  0  0  0  0  0
   26.8244    8.5220   54.1995 C   0  0  0  0  0  0  0  0  0  0  0  0
   28.0884    8.5582   53.7316 N   0  0  0  0  0  0  0  0  0  0  0  0
   29.0834    8.8272   54.5888 C   0  0  0  0  0  0  0  0  0  0  0  0
   28.7483    9.0434   55.8549 N   0  0  0  0  0  0  0  0  0  0  0  0
   27.5384    9.0253   56.3915 C   0  0  0  0  0  0  0  0  0  0  0  0
   26.4826    8.7416   55.5164 C   0  0  0  0  0  0  0  0  0  0  0  0
   25.1888    8.7018   55.9229 C   0  0  0  0  0  0  0  0  0  0  0  0
   27.2864    9.3386   57.7393 N   0  0  0  0  0  0  0  0  0  0  0  0
   26.4908    8.9141   58.2813 H   0  0  0  0  0  0  0  0  0  0  0  0
   28.0779   10.2589   58.4759 C   0  0  0  0  0  0  0  0  0  0  0  0
   27.9690   11.6130   58.4094 C   0  0  0  0  0  0  0  0  0  0  0  0
   28.7020   12.4630   59.2427 C   0  0  0  0  0  0  0  0  0  0  0  0
   29.5910   11.9228   60.1888 C   0  0  0  0  0  0  0  0  0  0  0  0
   29.7187   10.5552   60.2676 C   0  0  0  0  0  0  0  0  0  0  0  0
   30.8376    9.8000   61.4192 Cl  0  0  0  0  0  0  0  0  0  0  0  0
   28.9707    9.7656   59.4237 C   0  0  0  0  0  0  0  0  0  0  0  0
   30.2582   12.7935   60.9635 O   0  0  0  0  0  0  0  0  0  0  0  0
   30.5383   14.1075   60.9651 C   0  0  0  0  0  0  0  0  0  0  0  0
   31.8828   14.5034   60.8704 C   0  0  0  0  0  0  0  0  0  0  0  0
   32.1913   15.8342   60.8677 C   0  0  0  0  0  0  0  0  0  0  0  0
   31.1838   16.7696   60.9584 C   0  0  0  0  0  0  0  0  0  0  0  0
   29.8574   16.4152   61.0546 C   0  0  0  0  0  0  0  0  0  0  0  0
   29.5387   15.0842   61.0564 C   0  0  0  0  0  0  0  0  0  0  0  0
   28.8344   17.4882   61.1725 C   0  0  0  0  0  0  0  0  0  0  0  0
   28.6835   18.1342   59.9300 F   0  0  0  0  0  0  0  0  0  0  0  0
   27.6228   16.8842   61.4381 F   0  0  0  0  0  0  0  0  0  0  0  0
   29.1263   18.3755   62.1690 F   0  0  0  0  0  0  0  0  0  0  0  0
   22.7859    8.4537   55.4403 C   0  0  0  0  0  0  0  0  0  0  0  0
   22.0223    9.7516   55.2717 C   0  0  0  0  0  0  0  0  0  0  0  0
   21.5588   10.4266   52.6460 C   0  0  0  0  0  0  0  0  0  0  0  0
   21.4909   11.5745   52.1645 O   0  0  0  0  0  0  0  0  0  0  0  0
   21.7904   10.0877   53.9576 N   0  0  0  0  0  0  0  0  0  0  0  0
   22.0241   11.4028   54.2494 H   0  0  0  0  0  0  0  0  0  0  0  0
   21.3567    9.3206   51.6364 C   0  0  0  0  0  0  0  0  0  0  0  0
   20.1766    8.1492   53.4498 C   0  0  0  0  0  0  0  0  0  0  0  0
   20.9635    8.0144   52.1837 C   0  0  0  0  0  0  0  0  0  0  0  0
   22.1104    7.0243   52.3021 C   0  0  0  0  0  0  0  0  0  0  0  0
   20.0600    7.4482   51.2150 O   0  0  0  0  0  0  0  0  0  0  0  0
   20.4424    7.6879   50.3282 H   0  0  0  0  0  0  0  0  0  0  0  0
 38 39  1  0  0  0
 39 40  1  0  0  0
 39 41  1  0  0  0
 39 37  1  0  0  0
 37 33  1  0  0  0
 33 34  2  0  0  0
 33 35  1  0  0  0
 35 32  1  0  0  0
 32 31  1  0  0  0
 31  1  1  0  0  0
  1  2  2  0  0  0
  2  3  1  0  0  0
  3  4  2  0  0  0
  4  5  1  0  0  0
  5  6  2  0  0  0
  6  7  1  0  0  0
  7  8  2  0  0  0
  8 11  1  0  0  0
 11 13  1  0  0  0
 13 14  2  0  0  0
 14 15  1  0  0  0
 15 16  2  0  0  0
 16 20  1  0  0  0
 20 21  1  0  0  0
 21 22  2  0  0  0
 22 23  1  0  0  0
 23 24  2  0  0  0
 24 25  1  0  0  0
 25 27  1  0  0  0
 27 28  1  0  0  0
 27 29  1  0  0  0
 27 30  1  0  0  0
 25 26  2  0  0  0
 16 17  1  0  0  0
 17 18  1  0  0  0
 17 19  2  0  0  0
  8  9  1  0  0  0
  9 10  2  0  0  0
 10  1  1  0  0  0
  9  4  1  0  0  0
 19 13  1  0  0  0
 26 21  1  0  0  0
 41 42  1  0  0  0
 35 36  1  0  0  0
 11 12  1  0  0  0
M  END
> <minimizedAffinity>
0.73061

> <CNNscore>
0.5120561123

> <CNNaffinity>
6.6743192673

> <CNN_VS>
3.4176259041

> <CNNaffinity_variance>
0.8080604672

$$$$
[H]OC(C([H])([H])[H])(C([H])([H])[H])C([H])([H])C(=O)N([H])C([H])([H])C([H])([H])c1c([H])c([H])c2nc([H])nc(N([H])c3c([H])c([H])c(Oc4c([H])c([H])c([H])c(C(F)(F)F)c4[H])c(Cl)c3[H])c2c1[H]


 42 45  0  0  0  0  0  0  0  0999 V2000
   28.9803   10.2921   52.3539 C   0  0  0  0  0  0  0  0  0  0  0  0
   29.6645   10.7051   53.4619 C   0  0  0  0  0  0  0  0  0  0  0  0
   29.2480   10.3553   54.7089 C   0  0  0  0  0  0  0  0  0  0  0  0
   28.1162    9.5742   54.8990 C   0  0  0  0  0  0  0  0  0  0  0  0
   27.7583    9.2813   56.1656 N   0  0  0  0  0  0  0  0  0  0  0  0
   26.6566    8.5447   56.3679 C   0  0  0  0  0  0  0  0  0  0  0  0
   25.9863    8.1518   55.2916 N   0  0  0  0  0  0  0  0  0  0  0  0
   26.2703    8.3947   54.0218 C   0  0  0  0  0  0  0  0  0  0  0  0
   27.4196    9.1587   53.7848 C   0  0  0  0  0  0  0  0  0  0  0  0
   27.8262    9.4963   52.5352 C   0  0  0  0  0  0  0  0  0  0  0  0
   25.4492    7.9870   52.9551 N   0  0  0  0  0  0  0  0  0  0  0  0
   25.7401    8.0787   51.9482 H   0  0  0  0  0  0  0  0  0  0  0  0
   24.1586    7.4275   53.1482 C   0  0  0  0  0  0  0  0  0  0  0  0
   23.8679    6.4059   53.9979 C   0  0  0  0  0  0  0  0  0  0  0  0
   22.5581    5.9735   54.2252 C   0  0  0  0  0  0  0  0  0  0  0  0
   21.4875    6.5992   53.5621 C   0  0  0  0  0  0  0  0  0  0  0  0
   21.7622    7.6312   52.6947 C   0  0  0  0  0  0  0  0  0  0  0  0
   20.4672    8.4538   51.8033 Cl  0  0  0  0  0  0  0  0  0  0  0  0
   23.0706    8.0173   52.5103 C   0  0  0  0  0  0  0  0  0  0  0  0
   20.2540    6.1413   53.8310 O   0  0  0  0  0  0  0  0  0  0  0  0
   19.5487    5.0152   53.6324 C   0  0  0  0  0  0  0  0  0  0  0  0
   20.2019    3.9106   53.0610 C   0  0  0  0  0  0  0  0  0  0  0  0
   19.5054    2.7541   52.8520 C   0  0  0  0  0  0  0  0  0  0  0  0
   18.1747    2.6850   53.2020 C   0  0  0  0  0  0  0  0  0  0  0  0
   17.5048    3.7491   53.7615 C   0  0  0  0  0  0  0  0  0  0  0  0
   18.1950    4.9113   53.9761 C   0  0  0  0  0  0  0  0  0  0  0  0
   16.0619    3.5976   54.0880 C   0  0  0  0  0  0  0  0  0  0  0  0
   15.5903    2.3708   53.5818 F   0  0  0  0  0  0  0  0  0  0  0  0
   15.9498    3.5124   55.4605 F   0  0  0  0  0  0  0  0  0  0  0  0
   15.3151    4.6485   53.6370 F   0  0  0  0  0  0  0  0  0  0  0  0
   29.3603   10.6827   51.0161 C   0  0  0  0  0  0  0  0  0  0  0  0
   28.2741   10.6693   49.9597 C   0  0  0  0  0  0  0  0  0  0  0  0
   28.6569    8.7624   48.0149 C   0  0  0  0  0  0  0  0  0  0  0  0
   29.5347    7.8774   47.9907 O   0  0  0  0  0  0  0  0  0  0  0  0
   28.4643    9.7158   48.9858 N   0  0  0  0  0  0  0  0  0  0  0  0
   29.4256    9.1191   49.7534 H   0  0  0  0  0  0  0  0  0  0  0  0
   27.7280    8.7435   46.8232 C   0  0  0  0  0  0  0  0  0  0  0  0
   27.3661    8.4750   44.4046 C   0  0  0  0  0  0  0  0  0  0  0  0
   28.3380    8.3735   45.5383 C   0  0  0  0  0  0  0  0  0  0  0  0
   29.0786    7.0467   45.5660 C   0  0  0  0  0  0  0  0  0  0  0  0
   29.3434    9.3743   45.2880 O   0  0  0  0  0  0  0  0  0  0  0  0
   29.7612    9.5535   46.1731 H   0  0  0  0  0  0  0  0  0  0  0  0
 38 39  1  0  0  0
 39 40  1  0  0  0
 39 41  1  0  0  0
 39 37  1  0  0  0
 37 33  1  0  0  0
 33 34  2  0  0  0
 33 35  1  0  0  0
 35 32  1  0  0  0
 32 31  1  0  0  0
 31  1  1  0  0  0
  1  2  2  0  0  0
  2  3  1  0  0  0
  3  4  2  0  0  0
  4  5  1  0  0  0
  5  6  2  0  0  0
  6  7  1  0  0  0
  7  8  2  0  0  0
  8 11  1  0  0  0
 11 13  1  0  0  0
 13 14  2  0  0  0
 14 15  1  0  0  0
 15 16  2  0  0  0
 16 20  1  0  0  0
 20 21  1  0  0  0
 21 22  2  0  0  0
 22 23  1  0  0  0
 23 24  2  0  0  0
 24 25  1  0  0  0
 25 27  1  0  0  0
 27 28  1  0  0  0
 27 29  1  0  0  0
 27 30  1  0  0  0
 25 26  2  0  0  0
 16 17  1  0  0  0
 17 18  1  0  0  0
 17 19  2  0  0  0
  8  9  1  0  0  0
  9 10  2  0  0  0
 10  1  1  0  0  0
  9  4  1  0  0  0
 19 13  1  0  0  0
 26 21  1  0  0  0
 41 42  1  0  0  0
 35 36  1  0  0  0
 11 12  1  0  0  0
M  END
> <minimizedAffinity>
33.71278

> <CNNscore>
0.5035294294

> <CNNaffinity>
6.6333389282

> <CNN_VS>
3.3400814533

> <CNNaffinity_variance>
0.0510247834

$$$$
[H]OC(C([H])([H])[H])(C([H])([H])[H])C([H])([H])C(=O)N([H])C([H])([H])C([H])([H])c1c([H])c([H])c2nc([H])nc(N([H])c3c([H])c([H])c(Oc4c([H])c([H])c([H])c(C(F)(F)F)c4[H])c(Cl)c3[H])c2c1[H]


 42 45  0  0  0  0  0  0  0  0999 V2000
   28.0894    9.2812   57.4362 C   0  0  0  0  0  0  0  0  0  0  0  0
   29.1712    8.8012   56.7537 C   0  0  0  0  0  0  0  0  0  0  0  0
   29.0597    8.4135   55.4544 C   0  0  0  0  0  0  0  0  0  0  0  0
   27.8480    8.4871   54.7808 C   0  0  0  0  0  0  0  0  0  0  0  0
   27.8135    8.0705   53.4989 N   0  0  0  0  0  0  0  0  0  0  0  0
   26.6471    8.1161   52.8397 C   0  0  0  0  0  0  0  0  0  0  0  0
   25.5939    8.5732   53.5060 N   0  0  0  0  0  0  0  0  0  0  0  0
   25.5448    8.9998   54.7581 C   0  0  0  0  0  0  0  0  0  0  0  0
   26.7525    8.9663   55.4661 C   0  0  0  0  0  0  0  0  0  0  0  0
   26.8504    9.3606   56.7606 C   0  0  0  0  0  0  0  0  0  0  0  0
   24.3547    9.4005   55.3914 N   0  0  0  0  0  0  0  0  0  0  0  0
   24.3390   10.0918   56.1845 H   0  0  0  0  0  0  0  0  0  0  0  0
   23.0792    8.8993   55.0198 C   0  0  0  0  0  0  0  0  0  0  0  0
   21.9285    9.6243   55.0022 C   0  0  0  0  0  0  0  0  0  0  0  0
   20.7245    9.1025   54.5202 C   0  0  0  0  0  0  0  0  0  0  0  0
   20.6759    7.7840   54.0339 C   0  0  0  0  0  0  0  0  0  0  0  0
   21.8287    7.0332   54.0483 C   0  0  0  0  0  0  0  0  0  0  0  0
   21.8412    5.3545   53.4738 Cl  0  0  0  0  0  0  0  0  0  0  0  0
   22.9869    7.5984   54.5323 C   0  0  0  0  0  0  0  0  0  0  0  0
   19.4908    7.3469   53.5780 O   0  0  0  0  0  0  0  0  0  0  0  0
   18.7510    6.2278   53.6519 C   0  0  0  0  0  0  0  0  0  0  0  0
   17.4139    6.3381   54.0683 C   0  0  0  0  0  0  0  0  0  0  0  0
   16.6418    5.2140   54.1485 C   0  0  0  0  0  0  0  0  0  0  0  0
   17.1817    3.9892   53.8221 C   0  0  0  0  0  0  0  0  0  0  0  0
   18.4880    3.8465   53.4129 C   0  0  0  0  0  0  0  0  0  0  0  0
   19.2686    4.9675   53.3280 C   0  0  0  0  0  0  0  0  0  0  0  0
   18.9982    2.4847   53.1020 C   0  0  0  0  0  0  0  0  0  0  0  0
   17.9392    1.6782   52.6419 F   0  0  0  0  0  0  0  0  0  0  0  0
   19.8783    2.5982   52.0456 F   0  0  0  0  0  0  0  0  0  0  0  0
   19.6386    1.9156   54.1658 F   0  0  0  0  0  0  0  0  0  0  0  0
   28.1542    9.6561   58.8297 C   0  0  0  0  0  0  0  0  0  0  0  0
   28.8817    8.7109   59.7643 C   0  0  0  0  0  0  0  0  0  0  0  0
   30.7914    9.9427   61.3137 C   0  0  0  0  0  0  0  0  0  0  0  0
   31.6888    9.3924   61.9816 O   0  0  0  0  0  0  0  0  0  0  0  0
   29.8366    9.3287   60.5391 N   0  0  0  0  0  0  0  0  0  0  0  0
   30.4480    8.1243   60.7514 H   0  0  0  0  0  0  0  0  0  0  0  0
   30.7955   11.4514   61.3989 C   0  0  0  0  0  0  0  0  0  0  0  0
   33.1130   11.9799   60.7644 C   0  0  0  0  0  0  0  0  0  0  0  0
   32.0600   12.0679   61.8244 C   0  0  0  0  0  0  0  0  0  0  0  0
   32.5486   11.5982   63.1846 C   0  0  0  0  0  0  0  0  0  0  0  0
   31.7706   13.4706   61.9788 O   0  0  0  0  0  0  0  0  0  0  0  0
   30.8644   13.5080   62.3880 H   0  0  0  0  0  0  0  0  0  0  0  0
 38 39  1  0  0  0
 39 40  1  0  0  0
 39 41  1  0  0  0
 39 37  1  0  0  0
 37 33  1  0  0  0
 33 34  2  0  0  0
 33 35  1  0  0  0
 35 32  1  0  0  0
 32 31  1  0  0  0
 31  1  1  0  0  0
  1  2  2  0  0  0
  2  3  1  0  0  0
  3  4  2  0  0  0
  4  5  1  0  0  0
  5  6  2  0  0  0
  6  7  1  0  0  0
  7  8  2  0  0  0
  8 11  1  0  0  0
 11 13  1  0  0  0
 13 14  2  0  0  0
 14 15  1  0  0  0
 15 16  2  0  0  0
 16 20  1  0  0  0
 20 21  1  0  0  0
 21 22  2  0  0  0
 22 23  1  0  0  0
 23 24  2  0  0  0
 24 25  1  0  0  0
 25 27  1  0  0  0
 27 28  1  0  0  0
 27 29  1  0  0  0
 27 30  1  0  0  0
 25 26  2  0  0  0
 16 17  1  0  0  0
 17 18  1  0  0  0
 17 19  2  0  0  0
  8  9  1  0  0  0
  9 10  2  0  0  0
 10  1  1  0  0  0
  9  4  1  0  0  0
 19 13  1  0  0  0
 26 21  1  0  0  0
 41 42  1  0  0  0
 35 36  1  0  0  0
 11 12  1  0  0  0
M  END
> <minimizedAffinity>
22.79173

> <CNNscore>
0.4771502614

> <CNNaffinity>
6.4225692749

> <CNN_VS>
3.0645306110

> <CNNaffinity_variance>
0.1040973514

$$$$
[H]OC(C([H])([H])[H])(C([H])([H])[H])C([H])([H])C(=O)N([H])C([H])([H])C([H])([H])c1c([H])c([H])c2nc([H])nc(N([H])c3c([H])c([H])c(Oc4c([H])c([H])c([H])c(C(F)(F)F)c4[H])c(Cl)c3[H])c2c1[H]


 42 45  0  0  0  0  0  0  0  0999 V2000
   21.0934    7.9147   51.9527 C   0  0  0  0  0  0  0  0  0  0  0  0
   20.2157    6.9643   52.3919 C   0  0  0  0  0  0  0  0  0  0  0  0
   20.5852    6.0578   53.3367 C   0  0  0  0  0  0  0  0  0  0  0  0
   21.8619    6.0633   53.8819 C   0  0  0  0  0  0  0  0  0  0  0  0
   22.1579    5.1238   54.8027 N   0  0  0  0  0  0  0  0  0  0  0  0
   23.3924    5.1024   55.3248 C   0  0  0  0  0  0  0  0  0  0  0  0
   24.2481    6.0196   54.8907 N   0  0  0  0  0  0  0  0  0  0  0  0
   24.0369    6.9713   53.9952 C   0  0  0  0  0  0  0  0  0  0  0  0
   22.7527    7.0170   53.4389 C   0  0  0  0  0  0  0  0  0  0  0  0
   22.3963    7.9299   52.5006 C   0  0  0  0  0  0  0  0  0  0  0  0
   25.0400    7.8529   53.5539 N   0  0  0  0  0  0  0  0  0  0  0  0
   25.1876    8.0811   52.5375 H   0  0  0  0  0  0  0  0  0  0  0  0
   25.9405    8.4995   54.4410 C   0  0  0  0  0  0  0  0  0  0  0  0
   25.5800    9.1885   55.5570 C   0  0  0  0  0  0  0  0  0  0  0  0
   26.5213    9.7086   56.4501 C   0  0  0  0  0  0  0  0  0  0  0  0
   27.8944    9.5282   56.2063 C   0  0  0  0  0  0  0  0  0  0  0  0
   28.2788    8.8381   55.0798 C   0  0  0  0  0  0  0  0  0  0  0  0
   29.9924    8.5905   54.6919 Cl  0  0  0  0  0  0  0  0  0  0  0  0
   27.3091    8.3459   54.2357 C   0  0  0  0  0  0  0  0  0  0  0  0
   28.7455   10.0455   57.1071 O   0  0  0  0  0  0  0  0  0  0  0  0
   28.7608   10.2983   58.4265 C   0  0  0  0  0  0  0  0  0  0  0  0
   28.8663    9.2134   59.3126 C   0  0  0  0  0  0  0  0  0  0  0  0
   28.8863    9.4465   60.6586 C   0  0  0  0  0  0  0  0  0  0  0  0
   28.8021   10.7385   61.1298 C   0  0  0  0  0  0  0  0  0  0  0  0
   28.6957   11.8228   60.2889 C   0  0  0  0  0  0  0  0  0  0  0  0
   28.6766   11.5989   58.9388 C   0  0  0  0  0  0  0  0  0  0  0  0
   28.5859   13.1825   60.8812 C   0  0  0  0  0  0  0  0  0  0  0  0
   29.6172   13.3716   61.8217 F   0  0  0  0  0  0  0  0  0  0  0  0
   28.8150   14.0976   59.8745 F   0  0  0  0  0  0  0  0  0  0  0  0
   27.3562   13.4112   61.4299 F   0  0  0  0  0  0  0  0  0  0  0  0
   20.7568    8.8628   50.9162 C   0  0  0  0  0  0  0  0  0  0  0  0
   21.3912   10.2359   51.0061 C   0  0  0  0  0  0  0  0  0  0  0  0
   21.5349   11.2184   53.5711 C   0  0  0  0  0  0  0  0  0  0  0  0
   20.9680   12.2333   54.0214 O   0  0  0  0  0  0  0  0  0  0  0  0
   21.4641   10.7262   52.2899 N   0  0  0  0  0  0  0  0  0  0  0  0
   20.5119   11.6606   51.9904 H   0  0  0  0  0  0  0  0  0  0  0  0
   22.3821   10.4838   54.5840 C   0  0  0  0  0  0  0  0  0  0  0  0
   22.5515    8.8572   56.4220 C   0  0  0  0  0  0  0  0  0  0  0  0
   21.6482    9.7367   55.6152 C   0  0  0  0  0  0  0  0  0  0  0  0
   20.4224    9.0058   55.0930 C   0  0  0  0  0  0  0  0  0  0  0  0
   21.1474   10.7324   56.5277 O   0  0  0  0  0  0  0  0  0  0  0  0
   20.8599   11.4929   55.9541 H   0  0  0  0  0  0  0  0  0  0  0  0
 38 39  1  0  0  0
 39 40  1  0  0  0
 39 41  1  0  0  0
 39 37  1  0  0  0
 37 33  1  0  0  0
 33 34  2  0  0  0
 33 35  1  0  0  0
 35 32  1  0  0  0
 32 31  1  0  0  0
 31  1  1  0  0  0
  1  2  2  0  0  0
  2  3  1  0  0  0
  3  4  2  0  0  0
  4  5  1  0  0  0
  5  6  2  0  0  0
  6  7  1  0  0  0
  7  8  2  0  0  0
  8 11  1  0  0  0
 11 13  1  0  0  0
 13 14  2  0  0  0
 14 15  1  0  0  0
 15 16  2  0  0  0
 16 20  1  0  0  0
 20 21  1  0  0  0
 21 22  2  0  0  0
 22 23  1  0  0  0
 23 24  2  0  0  0
 24 25  1  0  0  0
 25 27  1  0  0  0
 27 28  1  0  0  0
 27 29  1  0  0  0
 27 30  1  0  0  0
 25 26  2  0  0  0
 16 17  1  0  0  0
 17 18  1  0  0  0
 17 19  2  0  0  0
  8  9  1  0  0  0
  9 10  2  0  0  0
 10  1  1  0  0  0
  9  4  1  0  0  0
 19 13  1  0  0  0
 26 21  1  0  0  0
 41 42  1  0  0  0
 35 36  1  0  0  0
 11 12  1  0  0  0
M  END
> <minimizedAffinity>
10.70798

> <CNNscore>
0.4660503268

> <CNNaffinity>
6.9443559647

> <CNN_VS>
3.2364194393

> <CNNaffinity_variance>
0.5907560587

$$$$
[H]OC(C([H])([H])[H])(C([H])([H])[H])C([H])([H])C(=O)N([H])C([H])([H])C([H])([H])c1c([H])c([H])c2nc([H])nc(N([H])c3c([H])c([H])c(Oc4c([H])c([H])c([H])c(C(F)(F)F)c4[H])c(Cl)c3[H])c2c1[H]


 42 45  0  0  0  0  0  0  0  0999 V2000
   22.0941    6.0055   53.5138 C   0  0  0  0  0  0  0  0  0  0  0  0
   20.7427    6.1825   53.4189 C   0  0  0  0  0  0  0  0  0  0  0  0
   20.1444    7.2810   53.9539 C   0  0  0  0  0  0  0  0  0  0  0  0
   20.8812    8.2537   54.6159 C   0  0  0  0  0  0  0  0  0  0  0  0
   20.2151    9.3062   55.1321 N   0  0  0  0  0  0  0  0  0  0  0  0
   20.9087   10.2447   55.7918 C   0  0  0  0  0  0  0  0  0  0  0  0
   22.2204   10.0676   55.8926 N   0  0  0  0  0  0  0  0  0  0  0  0
   22.9461    9.0685   55.4160 C   0  0  0  0  0  0  0  0  0  0  0  0
   22.2442    8.0777   54.7185 C   0  0  0  0  0  0  0  0  0  0  0  0
   22.8546    6.9894   54.1858 C   0  0  0  0  0  0  0  0  0  0  0  0
   24.3288    8.9424   55.6409 N   0  0  0  0  0  0  0  0  0  0  0  0
   24.7495    8.9485   56.6053 H   0  0  0  0  0  0  0  0  0  0  0  0
   25.2702    8.8057   54.5869 C   0  0  0  0  0  0  0  0  0  0  0  0
   24.9562    8.6450   53.2733 C   0  0  0  0  0  0  0  0  0  0  0  0
   25.9291    8.6274   52.2697 C   0  0  0  0  0  0  0  0  0  0  0  0
   27.2864    8.7767   52.6054 C   0  0  0  0  0  0  0  0  0  0  0  0
   27.6242    8.9353   53.9297 C   0  0  0  0  0  0  0  0  0  0  0  0
   29.3169    9.1055   54.4339 Cl  0  0  0  0  0  0  0  0  0  0  0  0
   26.6248    8.9471   54.8763 C   0  0  0  0  0  0  0  0  0  0  0  0
   28.1692    8.7588   51.5936 O   0  0  0  0  0  0  0  0  0  0  0  0
   28.3224    9.3564   50.4001 C   0  0  0  0  0  0  0  0  0  0  0  0
   28.3868   10.7591   50.3594 C   0  0  0  0  0  0  0  0  0  0  0  0
   28.5449   11.3884   49.1573 C   0  0  0  0  0  0  0  0  0  0  0  0
   28.6381   10.6428   48.0025 C   0  0  0  0  0  0  0  0  0  0  0  0
   28.5765    9.2679   48.0075 C   0  0  0  0  0  0  0  0  0  0  0  0
   28.4199    8.6287   49.2075 C   0  0  0  0  0  0  0  0  0  0  0  0
   28.6617    8.5408   46.7130 C   0  0  0  0  0  0  0  0  0  0  0  0
   29.5357    9.2240   45.8452 F   0  0  0  0  0  0  0  0  0  0  0  0
   29.2477    7.3162   46.9583 F   0  0  0  0  0  0  0  0  0  0  0  0
   27.4348    8.3499   46.1439 F   0  0  0  0  0  0  0  0  0  0  0  0
   22.7610    4.8302   53.0036 C   0  0  0  0  0  0  0  0  0  0  0  0
   24.0116    4.3779   53.7299 C   0  0  0  0  0  0  0  0  0  0  0  0
   24.9711    1.9513   52.8602 C   0  0  0  0  0  0  0  0  0  0  0  0
   24.3353    0.8839   52.7559 O   0  0  0  0  0  0  0  0  0  0  0  0
   24.4932    3.1644   53.2945 N   0  0  0  0  0  0  0  0  0  0  0  0
   23.2282    2.6466   53.3287 H   0  0  0  0  0  0  0  0  0  0  0  0
   26.4226    1.8476   52.4533 C   0  0  0  0  0  0  0  0  0  0  0  0
   27.2593    0.3838   54.2451 C   0  0  0  0  0  0  0  0  0  0  0  0
   27.0902    0.5772   52.7705 C   0  0  0  0  0  0  0  0  0  0  0  0
   28.3741    0.3434   51.9918 C   0  0  0  0  0  0  0  0  0  0  0  0
   26.1807   -0.4530   52.3384 O   0  0  0  0  0  0  0  0  0  0  0  0
   25.7968   -0.1217   51.4823 H   0  0  0  0  0  0  0  0  0  0  0  0
 38 39  1  0  0  0
 39 40  1  0  0  0
 39 41  1  0  0  0
 39 37  1  0  0  0
 37 33  1  0  0  0
 33 34  2  0  0  0
 33 35  1  0  0  0
 35 32  1  0  0  0
 32 31  1  0  0  0
 31  1  1  0  0  0
  1  2  2  0  0  0
  2  3  1  0  0  0
  3  4  2  0  0  0
  4  5  1  0  0  0
  5  6  2  0  0  0
  6  7  1  0  0  0
  7  8  2  0  0  0
  8 11  1  0  0  0
 11 13  1  0  0  0
 13 14  2  0  0  0
 14 15  1  0  0  0
 15 16  2  0  0  0
 16 20  1  0  0  0
 20 21  1  0  0  0
 21 22  2  0  0  0
 22 23  1  0  0  0
 23 24  2  0  0  0
 24 25  1  0  0  0
 25 27  1  0  0  0
 27 28  1  0  0  0
 27 29  1  0  0  0
 27 30  1  0  0  0
 25 26  2  0  0  0
 16 17  1  0  0  0
 17 18  1  0  0  0
 17 19  2  0  0  0
  8  9  1  0  0  0
  9 10  2  0  0  0
 10  1  1  0  0  0
  9  4  1  0  0  0
 19 13  1  0  0  0
 26 21  1  0  0  0
 41 42  1  0  0  0
 35 36  1  0  0  0
 11 12  1  0  0  0
M  END
> <minimizedAffinity>
43.76711

> <CNNscore>
0.4642034173

> <CNNaffinity>
6.3977999687

> <CNN_VS>
2.9698805809

> <CNNaffinity_variance>
0.5216518044

$$$$
[H]OC(=O)c1c([H])c([H])c(C([H])([H])N([H])C(=O)c2c([H])c([H])c(C(C([H])([H])[H])(C([H])([H])[H])C([H])([H])[H])c([H])c2[H])c([H])c1F


 26 27  0  0  0  0  0  0  0  0999 V2000
   22.7963    7.8478   52.9618 C   0  0  0  0  0  0  0  0  0  0  0  0
   22.5308    9.0739   52.7901 O   0  0  0  0  0  0  0  0  0  0  0  0
   24.1302    7.4259   52.9065 N   0  0  0  0  0  0  0  0  0  0  0  0
   24.3218    6.3895   53.0680 H   0  0  0  0  0  0  0  0  0  0  0  0
   19.7103    4.9821   53.6583 C   0  0  0  0  0  0  0  0  0  0  0  0
   19.4200    6.2759   53.2689 C   0  0  0  0  0  0  0  0  0  0  0  0
   20.4080    7.2121   53.0496 C   0  0  0  0  0  0  0  0  0  0  0  0
   21.7362    6.8837   53.2155 C   0  0  0  0  0  0  0  0  0  0  0  0
   22.0655    5.6143   53.6014 C   0  0  0  0  0  0  0  0  0  0  0  0
   21.0415    4.6892   53.8144 C   0  0  0  0  0  0  0  0  0  0  0  0
   18.9788    3.2441   55.1901 C   0  0  0  0  0  0  0  0  0  0  0  0
   18.6429    3.9596   53.8969 C   0  0  0  0  0  0  0  0  0  0  0  0
   18.6766    2.9289   52.7931 C   0  0  0  0  0  0  0  0  0  0  0  0
   17.2660    4.5897   53.9500 C   0  0  0  0  0  0  0  0  0  0  0  0
   25.2903    8.2340   52.6753 C   0  0  0  0  0  0  0  0  0  0  0  0
   26.0417    8.5324   53.9182 C   0  0  0  0  0  0  0  0  0  0  0  0
   25.3022    8.9451   55.0456 C   0  0  0  0  0  0  0  0  0  0  0  0
   25.9237    9.2090   56.2383 C   0  0  0  0  0  0  0  0  0  0  0  0
   27.3011    9.0895   56.4125 C   0  0  0  0  0  0  0  0  0  0  0  0
   28.0331    8.6878   55.3137 C   0  0  0  0  0  0  0  0  0  0  0  0
   29.3783    8.5498   55.4306 F   0  0  0  0  0  0  0  0  0  0  0  0
   27.3918    8.4200   54.0986 C   0  0  0  0  0  0  0  0  0  0  0  0
   27.8953    9.3683   57.7052 C   0  0  0  0  0  0  0  0  0  0  0  0
   28.4407   10.4949   57.8700 O   0  0  0  0  0  0  0  0  0  0  0  0
   27.8673    8.4473   58.7160 O   0  0  0  0  0  0  0  0  0  0  0  0
   27.1085    8.3406   59.3981 H   0  0  0  0  0  0  0  0  0  0  0  0
 11 12  1  0  0  0
 12 13  1  0  0  0
 12 14  1  0  0  0
 12  5  1  0  0  0
  5  6  2  0  0  0
  6  7  1  0  0  0
  7  8  2  0  0  0
  8  1  1  0  0  0
  1  2  2  0  0  0
  1  3  1  0  0  0
  3 15  1  0  0  0
 15 16  1  0  0  0
 16 17  2  0  0  0
 17 18  1  0  0  0
 18 19  2  0  0  0
 19 23  1  0  0  0
 23 24  2  0  0  0
 23 25  1  0  0  0
 19 20  1  0  0  0
 20 21  1  0  0  0
 20 22  2  0  0  0
  8  9  1  0  0  0
  9 10  2  0  0  0
 10  5  1  0  0  0
 22 16  1  0  0  0
  3  4  1  0  0  0
 25 26  1  0  0  0
M  END
> <minimizedAffinity>
14.66595

> <CNNscore>
0.5509471893

> <CNNaffinity>
5.3648858070

> <CNN_VS>
2.9557688236

> <CNNaffinity_variance>
0.0673364699

$$$$
[H]OC(=O)c1c([H])c([H])c(C([H])([H])N([H])C(=O)c2c([H])c([H])c(C(C([H])([H])[H])(C([H])([H])[H])C([H])([H])[H])c([H])c2[H])c([H])c1F


 26 27  0  0  0  0  0  0  0  0999 V2000
   21.5548    8.0092   53.5079 C   0  0  0  0  0  0  0  0  0  0  0  0
   21.9132    8.5088   52.4010 O   0  0  0  0  0  0  0  0  0  0  0  0
   22.0737    8.5409   54.6947 N   0  0  0  0  0  0  0  0  0  0  0  0
   21.7423    8.1067   55.6104 H   0  0  0  0  0  0  0  0  0  0  0  0
   18.7761    4.7747   53.7037 C   0  0  0  0  0  0  0  0  0  0  0  0
   20.1407    4.5560   53.7093 C   0  0  0  0  0  0  0  0  0  0  0  0
   21.0472    5.5923   53.6377 C   0  0  0  0  0  0  0  0  0  0  0  0
   20.6156    6.8986   53.5555 C   0  0  0  0  0  0  0  0  0  0  0  0
   19.2734    7.1575   53.5458 C   0  0  0  0  0  0  0  0  0  0  0  0
   18.3812    6.0860   53.6206 C   0  0  0  0  0  0  0  0  0  0  0  0
   16.4005    4.2687   53.7505 C   0  0  0  0  0  0  0  0  0  0  0  0
   17.7857    3.6546   53.7825 C   0  0  0  0  0  0  0  0  0  0  0  0
   17.9310    2.9460   55.1086 C   0  0  0  0  0  0  0  0  0  0  0  0
   17.9790    2.6565   52.6591 C   0  0  0  0  0  0  0  0  0  0  0  0
   22.9957    9.6288   54.8314 C   0  0  0  0  0  0  0  0  0  0  0  0
   24.4115    9.1883   54.8258 C   0  0  0  0  0  0  0  0  0  0  0  0
   24.8490    8.4089   53.7352 C   0  0  0  0  0  0  0  0  0  0  0  0
   26.1510    7.9908   53.6450 C   0  0  0  0  0  0  0  0  0  0  0  0
   27.1104    8.3019   54.6066 C   0  0  0  0  0  0  0  0  0  0  0  0
   26.6906    9.0629   55.6785 C   0  0  0  0  0  0  0  0  0  0  0  0
   27.5865    9.3993   56.6410 F   0  0  0  0  0  0  0  0  0  0  0  0
   25.3592    9.4866   55.7644 C   0  0  0  0  0  0  0  0  0  0  0  0
   28.4756    7.8419   54.4440 C   0  0  0  0  0  0  0  0  0  0  0  0
   29.3775    8.4373   55.0967 O   0  0  0  0  0  0  0  0  0  0  0  0
   28.7819    6.7978   53.6152 O   0  0  0  0  0  0  0  0  0  0  0  0
   28.7741    5.8077   53.8834 H   0  0  0  0  0  0  0  0  0  0  0  0
 11 12  1  0  0  0
 12 13  1  0  0  0
 12 14  1  0  0  0
 12  5  1  0  0  0
  5  6  2  0  0  0
  6  7  1  0  0  0
  7  8  2  0  0  0
  8  1  1  0  0  0
  1  2  2  0  0  0
  1  3  1  0  0  0
  3 15  1  0  0  0
 15 16  1  0  0  0
 16 17  2  0  0  0
 17 18  1  0  0  0
 18 19  2  0  0  0
 19 23  1  0  0  0
 23 24  2  0  0  0
 23 25  1  0  0  0
 19 20  1  0  0  0
 20 21  1  0  0  0
 20 22  2  0  0  0
  8  9  1  0  0  0
  9 10  2  0  0  0
 10  5  1  0  0  0
 22 16  1  0  0  0
  3  4  1  0  0  0
 25 26  1  0  0  0
M  END
> <minimizedAffinity>
20.63525

> <CNNscore>
0.5483895540

> <CNNaffinity>
5.2692604065

> <CNN_VS>
2.8896074295

> <CNNaffinity_variance>
0.0521073863

$$$$
[H]OC(=O)c1c([H])c([H])c(C([H])([H])N([H])C(=O)c2c([H])c([H])c(C(C([H])([H])[H])(C([H])([H])[H])C([H])([H])[H])c([H])c2[H])c([H])c1F


 26 27  0  0  0  0  0  0  0  0999 V2000
   20.6357    7.7741   53.1995 C   0  0  0  0  0  0  0  0  0  0  0  0
   21.1740    7.9597   52.0686 O   0  0  0  0  0  0  0  0  0  0  0  0
   20.9708    8.6238   54.2606 N   0  0  0  0  0  0  0  0  0  0  0  0
   20.4907    8.4493   55.1966 H   0  0  0  0  0  0  0  0  0  0  0  0
   17.8171    4.6358   53.8534 C   0  0  0  0  0  0  0  0  0  0  0  0
   19.1580    4.3712   53.6484 C   0  0  0  0  0  0  0  0  0  0  0  0
   20.0756    5.3762   53.4277 C   0  0  0  0  0  0  0  0  0  0  0  0
   19.6796    6.6960   53.4023 C   0  0  0  0  0  0  0  0  0  0  0  0
   18.3614    6.9999   53.5994 C   0  0  0  0  0  0  0  0  0  0  0  0
   17.4572    5.9593   53.8215 C   0  0  0  0  0  0  0  0  0  0  0  0
   17.3304    2.2958   53.4179 C   0  0  0  0  0  0  0  0  0  0  0  0
   16.8150    3.5500   54.0950 C   0  0  0  0  0  0  0  0  0  0  0  0
   15.5082    3.9132   53.4299 C   0  0  0  0  0  0  0  0  0  0  0  0
   16.5771    3.3270   55.5747 C   0  0  0  0  0  0  0  0  0  0  0  0
   21.8804    9.7303   54.2363 C   0  0  0  0  0  0  0  0  0  0  0  0
   23.2952    9.3167   54.3965 C   0  0  0  0  0  0  0  0  0  0  0  0
   23.8749    8.5558   53.3605 C   0  0  0  0  0  0  0  0  0  0  0  0
   25.1864    8.1631   53.4233 C   0  0  0  0  0  0  0  0  0  0  0  0
   26.0182    8.4833   54.4945 C   0  0  0  0  0  0  0  0  0  0  0  0
   25.4587    9.2264   55.5139 C   0  0  0  0  0  0  0  0  0  0  0  0
   26.2268    9.5708   56.5787 F   0  0  0  0  0  0  0  0  0  0  0  0
   24.1184    9.6241   55.4434 C   0  0  0  0  0  0  0  0  0  0  0  0
   27.4018    8.0507   54.4927 C   0  0  0  0  0  0  0  0  0  0  0  0
   27.6522    6.8852   54.0768 O   0  0  0  0  0  0  0  0  0  0  0  0
   28.4062    8.8731   54.9235 O   0  0  0  0  0  0  0  0  0  0  0  0
   28.9074    9.5511   54.3391 H   0  0  0  0  0  0  0  0  0  0  0  0
 11 12  1  0  0  0
 12 13  1  0  0  0
 12 14  1  0  0  0
 12  5  1  0  0  0
  5  6  2  0  0  0
  6  7  1  0  0  0
  7  8  2  0  0  0
  8  1  1  0  0  0
  1  2  2  0  0  0
  1  3  1  0  0  0
  3 15  1  0  0  0
 15 16  1  0  0  0
 16 17  2  0  0  0
 17 18  1  0  0  0
 18 19  2  0  0  0
 19 23  1  0  0  0
 23 24  2  0  0  0
 23 25  1  0  0  0
 19 20  1  0  0  0
 20 21  1  0  0  0
 20 22  2  0  0  0
  8  9  1  0  0  0
  9 10  2  0  0  0
 10  5  1  0  0  0
 22 16  1  0  0  0
  3  4  1  0  0  0
 25 26  1  0  0  0
M  END
> <minimizedAffinity>
20.05083

> <CNNscore>
0.5193356276

> <CNNaffinity>
5.4178037643

> <CNN_VS>
2.8136584759

> <CNNaffinity_variance>
0.0875142664

$$$$
[H]OC(=O)c1c([H])c([H])c(C([H])([H])N([H])C(=O)c2c([H])c([H])c(C(C([H])([H])[H])(C([H])([H])[H])C([H])([H])[H])c([H])c2[H])c([H])c1F


 26 27  0  0  0  0  0  0  0  0999 V2000
   23.0970    7.8280   53.1682 C   0  0  0  0  0  0  0  0  0  0  0  0
   22.8991    9.0785   53.1429 O   0  0  0  0  0  0  0  0  0  0  0  0
   24.4034    7.3427   53.0332 N   0  0  0  0  0  0  0  0  0  0  0  0
   24.5381    6.2857   53.0716 H   0  0  0  0  0  0  0  0  0  0  0  0
   19.8689    5.0711   53.6148 C   0  0  0  0  0  0  0  0  0  0  0  0
   19.6503    6.3866   53.2520 C   0  0  0  0  0  0  0  0  0  0  0  0
   20.6844    7.2878   53.1132 C   0  0  0  0  0  0  0  0  0  0  0  0
   21.9881    6.9009   53.3367 C   0  0  0  0  0  0  0  0  0  0  0  0
   22.2468    5.6083   53.6988 C   0  0  0  0  0  0  0  0  0  0  0  0
   21.1776    4.7198   53.8297 C   0  0  0  0  0  0  0  0  0  0  0  0
   18.9685    3.3483   55.0719 C   0  0  0  0  0  0  0  0  0  0  0  0
   18.7513    4.0863   53.7661 C   0  0  0  0  0  0  0  0  0  0  0  0
   18.8265    3.0644   52.6562 C   0  0  0  0  0  0  0  0  0  0  0  0
   17.3976    4.7659   53.7283 C   0  0  0  0  0  0  0  0  0  0  0  0
   25.6035    8.1072   52.8670 C   0  0  0  0  0  0  0  0  0  0  0  0
   26.2213    8.4975   54.1571 C   0  0  0  0  0  0  0  0  0  0  0  0
   27.6268    8.6013   54.2034 C   0  0  0  0  0  0  0  0  0  0  0  0
   28.2677    8.9868   55.3519 C   0  0  0  0  0  0  0  0  0  0  0  0
   27.5860    9.2957   56.5275 C   0  0  0  0  0  0  0  0  0  0  0  0
   26.2101    9.1951   56.4917 C   0  0  0  0  0  0  0  0  0  0  0  0
   25.4969    9.4904   57.6081 F   0  0  0  0  0  0  0  0  0  0  0  0
   25.5621    8.8007   55.3152 C   0  0  0  0  0  0  0  0  0  0  0  0
   28.3225    9.7128   57.7045 C   0  0  0  0  0  0  0  0  0  0  0  0
   28.5603   10.9450   57.8423 O   0  0  0  0  0  0  0  0  0  0  0  0
   28.7460    8.8074   58.6381 O   0  0  0  0  0  0  0  0  0  0  0  0
   28.1944    8.4820   59.4394 H   0  0  0  0  0  0  0  0  0  0  0  0
 11 12  1  0  0  0
 12 13  1  0  0  0
 12 14  1  0  0  0
 12  5  1  0  0  0
  5  6  2  0  0  0
  6  7  1  0  0  0
  7  8  2  0  0  0
  8  1  1  0  0  0
  1  2  2  0  0  0
  1  3  1  0  0  0
  3 15  1  0  0  0
 15 16  1  0  0  0
 16 17  2  0  0  0
 17 18  1  0  0  0
 18 19  2  0  0  0
 19 23  1  0  0  0
 23 24  2  0  0  0
 23 25  1  0  0  0
 19 20  1  0  0  0
 20 21  1  0  0  0
 20 22  2  0  0  0
  8  9  1  0  0  0
  9 10  2  0  0  0
 10  5  1  0  0  0
 22 16  1  0  0  0
  3  4  1  0  0  0
 25 26  1  0  0  0
M  END
> <minimizedAffinity>
15.76892

> <CNNscore>
0.5158897042

> <CNNaffinity>
5.2381572723

> <CNN_VS>
2.7023115158

> <CNNaffinity_variance>
0.0551332459

$$$$
[H]OC(=O)c1c([H])c([H])c(C([H])([H])N([H])C(=O)c2c([H])c([H])c(C(C([H])([H])[H])(C([H])([H])[H])C([H])([H])[H])c([H])c2[H])c([H])c1F


 26 27  0  0  0  0  0  0  0  0999 V2000
   22.5654    8.2533   53.7661 C   0  0  0  0  0  0  0  0  0  0  0  0
   21.6583    8.3028   54.6481 O   0  0  0  0  0  0  0  0  0  0  0  0
   22.2028    8.0685   52.4264 N   0  0  0  0  0  0  0  0  0  0  0  0
   22.9890    8.0441   51.7065 H   0  0  0  0  0  0  0  0  0  0  0  0
   26.6723    8.7113   54.8358 C   0  0  0  0  0  0  0  0  0  0  0  0
   26.2979    8.1154   53.6464 C   0  0  0  0  0  0  0  0  0  0  0  0
   24.9746    7.9545   53.2946 C   0  0  0  0  0  0  0  0  0  0  0  0
   23.9678    8.3873   54.1305 C   0  0  0  0  0  0  0  0  0  0  0  0
   24.2963    8.9808   55.3173 C   0  0  0  0  0  0  0  0  0  0  0  0
   25.6456    9.1300   55.6439 C   0  0  0  0  0  0  0  0  0  0  0  0
   28.1486    9.1164   56.7223 C   0  0  0  0  0  0  0  0  0  0  0  0
   28.1071    8.8908   55.2241 C   0  0  0  0  0  0  0  0  0  0  0  0
   28.6545   10.1368   54.5684 C   0  0  0  0  0  0  0  0  0  0  0  0
   28.9506    7.7001   54.8161 C   0  0  0  0  0  0  0  0  0  0  0  0
   20.8806    7.9258   51.8938 C   0  0  0  0  0  0  0  0  0  0  0  0
   20.1023    6.8557   52.5627 C   0  0  0  0  0  0  0  0  0  0  0  0
   18.8609    7.2083   53.1308 C   0  0  0  0  0  0  0  0  0  0  0  0
   18.0712    6.2675   53.7387 C   0  0  0  0  0  0  0  0  0  0  0  0
   18.4356    4.9259   53.8340 C   0  0  0  0  0  0  0  0  0  0  0  0
   19.6500    4.5720   53.2822 C   0  0  0  0  0  0  0  0  0  0  0  0
   20.0506    3.2766   53.3424 F   0  0  0  0  0  0  0  0  0  0  0  0
   20.4517    5.5381   52.6629 C   0  0  0  0  0  0  0  0  0  0  0  0
   17.5472    3.9770   54.4761 C   0  0  0  0  0  0  0  0  0  0  0  0
   16.3536    3.9216   54.0686 O   0  0  0  0  0  0  0  0  0  0  0  0
   17.9821    3.1656   55.4877 O   0  0  0  0  0  0  0  0  0  0  0  0
   18.4209    2.2469   55.3620 H   0  0  0  0  0  0  0  0  0  0  0  0
 11 12  1  0  0  0
 12 13  1  0  0  0
 12 14  1  0  0  0
 12  5  1  0  0  0
  5  6  2  0  0  0
  6  7  1  0  0  0
  7  8  2  0  0  0
  8  1  1  0  0  0
  1  2  2  0  0  0
  1  3  1  0  0  0
  3 15  1  0  0  0
 15 16  1  0  0  0
 16 17  2  0  0  0
 17 18  1  0  0  0
 18 19  2  0  0  0
 19 23  1  0  0  0
 23 24  2  0  0  0
 23 25  1  0  0  0
 19 20  1  0  0  0
 20 21  1  0  0  0
 20 22  2  0  0  0
  8  9  1  0  0  0
  9 10  2  0  0  0
 10  5  1  0  0  0
 22 16  1  0  0  0
  3  4  1  0  0  0
 25 26  1  0  0  0
M  END
> <minimizedAffinity>
18.94865

> <CNNscore>
0.5119136572

> <CNNaffinity>
5.5539460182

> <CNN_VS>
2.8431408405

> <CNNaffinity_variance>
0.4952005744

$$$$
[H]OC(=O)c1c([H])c([H])c(C([H])([H])N([H])C(=O)c2c([H])c([H])c(C(C([H])([H])[H])(C([H])([H])[H])C([H])([H])[H])c([H])c2[H])c([H])c1F


 26 27  0  0  0  0  0  0  0  0999 V2000
   24.1659    7.7649   53.3237 C   0  0  0  0  0  0  0  0  0  0  0  0
   24.2879    6.6165   52.8045 O   0  0  0  0  0  0  0  0  0  0  0  0
   23.0688    8.5593   52.9690 N   0  0  0  0  0  0  0  0  0  0  0  0
   22.9878    9.5157   53.4333 H   0  0  0  0  0  0  0  0  0  0  0  0
   27.0205    9.2770   56.1139 C   0  0  0  0  0  0  0  0  0  0  0  0
   27.4133    8.6234   54.9613 C   0  0  0  0  0  0  0  0  0  0  0  0
   26.5001    8.1234   54.0575 C   0  0  0  0  0  0  0  0  0  0  0  0
   25.1465    8.2597   54.2782 C   0  0  0  0  0  0  0  0  0  0  0  0
   24.7166    8.8989   55.4075 C   0  0  0  0  0  0  0  0  0  0  0  0
   25.6667    9.3950   56.3025 C   0  0  0  0  0  0  0  0  0  0  0  0
   29.3790    9.7450   56.4616 C   0  0  0  0  0  0  0  0  0  0  0  0
   28.0063    9.8239   57.0992 C   0  0  0  0  0  0  0  0  0  0  0  0
   28.0317    8.9447   58.3274 C   0  0  0  0  0  0  0  0  0  0  0  0
   27.6619   11.2419   57.5073 C   0  0  0  0  0  0  0  0  0  0  0  0
   22.0135    8.2298   52.0579 C   0  0  0  0  0  0  0  0  0  0  0  0
   21.0860    7.2059   52.5963 C   0  0  0  0  0  0  0  0  0  0  0  0
   19.8121    7.6368   53.0205 C   0  0  0  0  0  0  0  0  0  0  0  0
   18.8899    6.7440   53.5007 C   0  0  0  0  0  0  0  0  0  0  0  0
   19.1449    5.3776   53.6000 C   0  0  0  0  0  0  0  0  0  0  0  0
   20.3899    4.9472   53.1887 C   0  0  0  0  0  0  0  0  0  0  0  0
   20.6883    3.6250   53.2587 F   0  0  0  0  0  0  0  0  0  0  0  0
   21.3272    5.8646   52.6992 C   0  0  0  0  0  0  0  0  0  0  0  0
   18.1202    4.4833   54.1021 C   0  0  0  0  0  0  0  0  0  0  0  0
   18.4681    3.3129   54.4230 O   0  0  0  0  0  0  0  0  0  0  0  0
   16.8200    4.8886   54.2281 O   0  0  0  0  0  0  0  0  0  0  0  0
   16.4232    5.3564   55.0504 H   0  0  0  0  0  0  0  0  0  0  0  0
 11 12  1  0  0  0
 12 13  1  0  0  0
 12 14  1  0  0  0
 12  5  1  0  0  0
  5  6  2  0  0  0
  6  7  1  0  0  0
  7  8  2  0  0  0
  8  1  1  0  0  0
  1  2  2  0  0  0
  1  3  1  0  0  0
  3 15  1  0  0  0
 15 16  1  0  0  0
 16 17  2  0  0  0
 17 18  1  0  0  0
 18 19  2  0  0  0
 19 23  1  0  0  0
 23 24  2  0  0  0
 23 25  1  0  0  0
 19 20  1  0  0  0
 20 21  1  0  0  0
 20 22  2  0  0  0
  8  9  1  0  0  0
  9 10  2  0  0  0
 10  5  1  0  0  0
 22 16  1  0  0  0
  3  4  1  0  0  0
 25 26  1  0  0  0
M  END
> <minimizedAffinity>
18.70680

> <CNNscore>
0.4879371822

> <CNNaffinity>
5.4205369949

> <CNN_VS>
2.6448814869

> <CNNaffinity_variance>
0.2210648805

$$$$
[H]OC(=O)c1c([H])c([H])c(C([H])([H])N([H])C(=O)c2c([H])c([H])c(C(C([H])([H])[H])(C([H])([H])[H])C([H])([H])[H])c([H])c2[H])c([H])c1F


 26 27  0  0  0  0  0  0  0  0999 V2000
   24.0838    8.0651   53.3239 C   0  0  0  0  0  0  0  0  0  0  0  0
   24.2088    7.0000   52.6507 O   0  0  0  0  0  0  0  0  0  0  0  0
   22.9603    8.8742   53.1155 N   0  0  0  0  0  0  0  0  0  0  0  0
   22.8780    9.7575   53.7071 H   0  0  0  0  0  0  0  0  0  0  0  0
   27.0471    9.1314   56.2053 C   0  0  0  0  0  0  0  0  0  0  0  0
   25.7058    9.3851   56.4209 C   0  0  0  0  0  0  0  0  0  0  0  0
   24.7411    9.0529   55.4937 C   0  0  0  0  0  0  0  0  0  0  0  0
   25.0883    8.4500   54.3040 C   0  0  0  0  0  0  0  0  0  0  0  0
   26.4050    8.1832   54.0516 C   0  0  0  0  0  0  0  0  0  0  0  0
   27.3576    8.5308   55.0115 C   0  0  0  0  0  0  0  0  0  0  0  0
   29.3776    8.7833   56.7968 C   0  0  0  0  0  0  0  0  0  0  0  0
   28.1003    9.4878   57.2081 C   0  0  0  0  0  0  0  0  0  0  0  0
   27.7083    8.9490   58.5638 C   0  0  0  0  0  0  0  0  0  0  0  0
   28.2969   10.9871   57.3043 C   0  0  0  0  0  0  0  0  0  0  0  0
   21.8797    8.6456   52.2031 C   0  0  0  0  0  0  0  0  0  0  0  0
   20.9879    7.5412   52.6312 C   0  0  0  0  0  0  0  0  0  0  0  0
   21.5693    6.2724   52.8319 C   0  0  0  0  0  0  0  0  0  0  0  0
   20.8145    5.2105   53.2572 C   0  0  0  0  0  0  0  0  0  0  0  0
   19.4487    5.3121   53.5145 C   0  0  0  0  0  0  0  0  0  0  0  0
   18.8709    6.5500   53.3190 C   0  0  0  0  0  0  0  0  0  0  0  0
   17.5444    6.7055   53.5607 F   0  0  0  0  0  0  0  0  0  0  0  0
   19.6478    7.6304   52.8844 C   0  0  0  0  0  0  0  0  0  0  0  0
   18.7099    4.1540   53.9778 C   0  0  0  0  0  0  0  0  0  0  0  0
   19.3183    3.0486   54.0222 O   0  0  0  0  0  0  0  0  0  0  0  0
   17.3994    4.2497   54.3573 O   0  0  0  0  0  0  0  0  0  0  0  0
   17.0723    4.4889   55.2997 H   0  0  0  0  0  0  0  0  0  0  0  0
 11 12  1  0  0  0
 12 13  1  0  0  0
 12 14  1  0  0  0
 12  5  1  0  0  0
  5  6  2  0  0  0
  6  7  1  0  0  0
  7  8  2  0  0  0
  8  1  1  0  0  0
  1  2  2  0  0  0
  1  3  1  0  0  0
  3 15  1  0  0  0
 15 16  1  0  0  0
 16 17  2  0  0  0
 17 18  1  0  0  0
 18 19  2  0  0  0
 19 23  1  0  0  0
 23 24  2  0  0  0
 23 25  1  0  0  0
 19 20  1  0  0  0
 20 21  1  0  0  0
 20 22  2  0  0  0
  8  9  1  0  0  0
  9 10  2  0  0  0
 10  5  1  0  0  0
 22 16  1  0  0  0
  3  4  1  0  0  0
 25 26  1  0  0  0
M  END
> <minimizedAffinity>
17.74948

> <CNNscore>
0.4784973860

> <CNNaffinity>
5.3978619576

> <CNN_VS>
2.5828628540

> <CNNaffinity_variance>
0.2216715068

$$$$
[H]OC(=O)c1c([H])c([H])c(C([H])([H])N([H])C(=O)c2c([H])c([H])c(C(C([H])([H])[H])(C([H])([H])[H])C([H])([H])[H])c([H])c2[H])c([H])c1F


 26 27  0  0  0  0  0  0  0  0999 V2000
   22.7966    8.4029   53.7999 C   0  0  0  0  0  0  0  0  0  0  0  0
   21.8864    8.3144   54.6758 O   0  0  0  0  0  0  0  0  0  0  0  0
   22.4410    8.3964   52.4457 N   0  0  0  0  0  0  0  0  0  0  0  0
   23.2294    8.4853   51.7333 H   0  0  0  0  0  0  0  0  0  0  0  0
   26.8927    8.7871   54.9380 C   0  0  0  0  0  0  0  0  0  0  0  0
   26.5298    8.2594   53.7134 C   0  0  0  0  0  0  0  0  0  0  0  0
   25.2100    8.1226   53.3389 C   0  0  0  0  0  0  0  0  0  0  0  0
   24.1953    8.5118   54.1864 C   0  0  0  0  0  0  0  0  0  0  0  0
   24.5122    9.0375   55.4079 C   0  0  0  0  0  0  0  0  0  0  0  0
   25.8583    9.1638   55.7569 C   0  0  0  0  0  0  0  0  0  0  0  0
   28.3478    9.0993   56.8583 C   0  0  0  0  0  0  0  0  0  0  0  0
   28.3236    8.9400   55.3512 C   0  0  0  0  0  0  0  0  0  0  0  0
   28.8865   10.2100   54.7576 C   0  0  0  0  0  0  0  0  0  0  0  0
   29.1649    7.7629   54.9016 C   0  0  0  0  0  0  0  0  0  0  0  0
   21.1231    8.3034   51.8919 C   0  0  0  0  0  0  0  0  0  0  0  0
   20.3173    7.2180   52.5010 C   0  0  0  0  0  0  0  0  0  0  0  0
   20.9517    5.9781   52.7212 C   0  0  0  0  0  0  0  0  0  0  0  0
   20.2805    4.9373   53.3081 C   0  0  0  0  0  0  0  0  0  0  0  0
   18.9522    5.0334   53.7183 C   0  0  0  0  0  0  0  0  0  0  0  0
   18.3228    6.2428   53.5051 C   0  0  0  0  0  0  0  0  0  0  0  0
   17.0302    6.3920   53.8912 F   0  0  0  0  0  0  0  0  0  0  0  0
   19.0144    7.3017   52.9049 C   0  0  0  0  0  0  0  0  0  0  0  0
   18.3040    3.8997   54.3479 C   0  0  0  0  0  0  0  0  0  0  0  0
   17.1230    3.6276   53.9942 O   0  0  0  0  0  0  0  0  0  0  0  0
   18.9454    3.1458   55.2918 O   0  0  0  0  0  0  0  0  0  0  0  0
   19.5473    2.3386   55.0953 H   0  0  0  0  0  0  0  0  0  0  0  0
 11 12  1  0  0  0
 12 13  1  0  0  0
 12 14  1  0  0  0
 12  5  1  0  0  0
  5  6  2  0  0  0
  6  7  1  0  0  0
  7  8  2  0  0  0
  8  1  1  0  0  0
  1  2  2  0  0  0
  1  3  1  0  0  0
  3 15  1  0  0  0
 15 16  1  0  0  0
 16 17  2  0  0  0
 17 18  1  0  0  0
 18 19  2  0  0  0
 19 23  1  0  0  0
 23 24  2  0  0  0
 23 25  1  0  0  0
 19 20  1  0  0  0
 20 21  1  0  0  0
 20 22  2  0  0  0
  8  9  1  0  0  0
  9 10  2  0  0  0
 10  5  1  0  0  0
 22 16  1  0  0  0
  3  4  1  0  0  0
 25 26  1  0  0  0
M  END
> <minimizedAffinity>
18.48092

> <CNNscore>
0.4749276042

> <CNNaffinity>
5.4486250877

> <CNN_VS>
2.5877025127

> <CNNaffinity_variance>
0.4128367007

$$$$
[H]OC(=O)c1c([H])c([H])c(C([H])([H])N([H])C(=O)c2c([H])c([H])c(C(C([H])([H])[H])(C([H])([H])[H])C([H])([H])[H])c([H])c2[H])c([H])c1F


 26 27  0  0  0  0  0  0  0  0999 V2000
   21.2892    7.3327   52.7762 C   0  0  0  0  0  0  0  0  0  0  0  0
   21.1131    8.5647   52.5427 O   0  0  0  0  0  0  0  0  0  0  0  0
   22.5775    6.7959   52.6638 N   0  0  0  0  0  0  0  0  0  0  0  0
   22.6948    5.7583   52.8794 H   0  0  0  0  0  0  0  0  0  0  0  0
   18.0246    4.7971   53.8408 C   0  0  0  0  0  0  0  0  0  0  0  0
   17.8620    6.1619   53.6971 C   0  0  0  0  0  0  0  0  0  0  0  0
   18.9110    6.9915   53.3621 C   0  0  0  0  0  0  0  0  0  0  0  0
   20.1742    6.4793   53.1583 C   0  0  0  0  0  0  0  0  0  0  0  0
   20.3773    5.1341   53.2921 C   0  0  0  0  0  0  0  0  0  0  0  0
   19.2941    4.3209   53.6312 C   0  0  0  0  0  0  0  0  0  0  0  0
   17.1089    3.4353   55.6322 C   0  0  0  0  0  0  0  0  0  0  0  0
   16.8900    3.8897   54.2030 C   0  0  0  0  0  0  0  0  0  0  0  0
   16.9317    2.6576   53.3300 C   0  0  0  0  0  0  0  0  0  0  0  0
   15.5494    4.5755   54.0353 C   0  0  0  0  0  0  0  0  0  0  0  0
   23.7808    7.4870   52.3077 C   0  0  0  0  0  0  0  0  0  0  0  0
   24.5515    7.9474   53.4877 C   0  0  0  0  0  0  0  0  0  0  0  0
   25.9357    7.6791   53.5092 C   0  0  0  0  0  0  0  0  0  0  0  0
   26.7193    8.1005   54.5517 C   0  0  0  0  0  0  0  0  0  0  0  0
   26.2100    8.8082   55.6388 C   0  0  0  0  0  0  0  0  0  0  0  0
   24.8558    9.0737   55.6269 C   0  0  0  0  0  0  0  0  0  0  0  0
   24.3091    9.7652   56.6590 F   0  0  0  0  0  0  0  0  0  0  0  0
   24.0613    8.6403   54.5589 C   0  0  0  0  0  0  0  0  0  0  0  0
   27.0956    9.2395   56.7024 C   0  0  0  0  0  0  0  0  0  0  0  0
   28.0217   10.0445   56.4053 O   0  0  0  0  0  0  0  0  0  0  0  0
   26.9370    8.7948   57.9861 O   0  0  0  0  0  0  0  0  0  0  0  0
   26.3315    9.2281   58.6917 H   0  0  0  0  0  0  0  0  0  0  0  0
 11 12  1  0  0  0
 12 13  1  0  0  0
 12 14  1  0  0  0
 12  5  1  0  0  0
  5  6  2  0  0  0
  6  7  1  0  0  0
  7  8  2  0  0  0
  8  1  1  0  0  0
  1  2  2  0  0  0
  1  3  1  0  0  0
  3 15  1  0  0  0
 15 16  1  0  0  0
 16 17  2  0  0  0
 17 18  1  0  0  0
 18 19  2  0  0  0
 19 23  1  0  0  0
 23 24  2  0  0  0
 23 25  1  0  0  0
 19 20  1  0  0  0
 20 21  1  0  0  0
 20 22  2  0  0  0
  8  9  1  0  0  0
  9 10  2  0  0  0
 10  5  1  0  0  0
 22 16  1  0  0  0
  3  4  1  0  0  0
 25 26  1  0  0  0
M  END
> <minimizedAffinity>
21.25881

> <CNNscore>
0.4713236392

> <CNNaffinity>
5.4224309921

> <CNN_VS>
2.5557198524

> <CNNaffinity_variance>
0.2380338609

$$$$
[H]Oc1c([H])c(O[H])c([H])c([C@@]([H])(O[H])C([H])([H])N([H])[C@@]([H])(C([H])([H])[H])C([H])([H])c2c([H])c([H])c(OC([H])([H])[H])c([H])c2[H])c1[H]


 27 28  0  0  0  0  0  0  0  0999 V2000
   22.2271   10.4829   54.1456 C   0  0  0  0  0  0  0  0  0  0  0  0
   21.1669    9.6860   54.8208 C   0  0  0  0  0  0  0  0  0  0  0  0
   21.2345    9.9444   56.2399 O   0  0  0  0  0  0  0  0  0  0  0  0
   20.4063   10.4001   56.4610 H   0  0  0  0  0  0  0  0  0  0  0  0
   21.3535    8.2023   54.7419 C   0  0  0  0  0  0  0  0  0  0  0  0
   22.3270    7.5229   55.4125 C   0  0  0  0  0  0  0  0  0  0  0  0
   22.4649    6.1340   55.3131 C   0  0  0  0  0  0  0  0  0  0  0  0
   23.4478    5.4297   55.9871 O   0  0  0  0  0  0  0  0  0  0  0  0
   21.5858    5.4494   54.5129 C   0  0  0  0  0  0  0  0  0  0  0  0
   20.5864    6.0781   53.8145 C   0  0  0  0  0  0  0  0  0  0  0  0
   19.7151    5.3506   53.0148 O   0  0  0  0  0  0  0  0  0  0  0  0
   20.4887    7.4473   53.9427 C   0  0  0  0  0  0  0  0  0  0  0  0
   23.1794    5.1010   56.9283 H   0  0  0  0  0  0  0  0  0  0  0  0
   18.8692    5.0149   53.5000 H   0  0  0  0  0  0  0  0  0  0  0  0
   23.1114    9.8722   53.2634 N   0  0  0  0  0  0  0  0  0  0  0  0
   23.6111   10.5195   52.6032 H   0  0  0  0  0  0  0  0  0  0  0  0
   23.0498    8.5399   52.8843 C   0  0  0  0  0  0  0  0  0  0  0  0
   22.0891    8.2860   51.7583 C   0  0  0  0  0  0  0  0  0  0  0  0
   24.3607    7.8346   52.6674 C   0  0  0  0  0  0  0  0  0  0  0  0
   27.1613    9.1155   55.6908 C   0  0  0  0  0  0  0  0  0  0  0  0
   27.5808    8.7344   54.4336 C   0  0  0  0  0  0  0  0  0  0  0  0
   26.6820    8.3261   53.4619 C   0  0  0  0  0  0  0  0  0  0  0  0
   25.3218    8.2826   53.7104 C   0  0  0  0  0  0  0  0  0  0  0  0
   24.9004    8.6640   54.9688 C   0  0  0  0  0  0  0  0  0  0  0  0
   25.8047    9.0707   55.9342 C   0  0  0  0  0  0  0  0  0  0  0  0
   27.9650    9.0537   58.0096 C   0  0  0  0  0  0  0  0  0  0  0  0
   28.0454    9.5302   56.6851 O   0  0  0  0  0  0  0  0  0  0  0  0
 26 27  1  0  0  0
 27 20  1  0  0  0
 20 21  2  0  0  0
 21 22  1  0  0  0
 22 23  2  0  0  0
 23 19  1  0  0  0
 19 17  1  0  0  0
 17 18  1  0  0  0
 17 15  1  0  0  0
 15  1  1  0  0  0
  1  2  1  0  0  0
  2  3  1  0  0  0
  2  5  1  0  0  0
  5  6  2  0  0  0
  6  7  1  0  0  0
  7  8  1  0  0  0
  7  9  2  0  0  0
  9 10  1  0  0  0
 10 11  1  0  0  0
 10 12  2  0  0  0
 23 24  1  0  0  0
 24 25  2  0  0  0
 25 20  1  0  0  0
 12  5  1  0  0  0
 15 16  1  0  0  0
  3  4  1  0  0  0
  8 13  1  0  0  0
 11 14  1  0  0  0
M  END
> <minimizedAffinity>
4.67456

> <CNNscore>
0.6278318763

> <CNNaffinity>
6.0329389572

> <CNN_VS>
3.7876713276

> <CNNaffinity_variance>
0.4034381509

$$$$
[H]Oc1c([H])c(O[H])c([H])c([C@@]([H])(O[H])C([H])([H])N([H])[C@@]([H])(C([H])([H])[H])C([H])([H])c2c([H])c([H])c(OC([H])([H])[H])c([H])c2[H])c1[H]


 27 28  0  0  0  0  0  0  0  0999 V2000
   19.8075    7.3186   52.0720 C   0  0  0  0  0  0  0  0  0  0  0  0
   20.6292    8.2629   51.2669 C   0  0  0  0  0  0  0  0  0  0  0  0
   21.8811    7.6194   50.9446 O   0  0  0  0  0  0  0  0  0  0  0  0
   21.8747    7.5064   49.9804 H   0  0  0  0  0  0  0  0  0  0  0  0
   21.0651    9.4942   51.9993 C   0  0  0  0  0  0  0  0  0  0  0  0
   21.3093   10.6911   51.3939 C   0  0  0  0  0  0  0  0  0  0  0  0
   21.7127   11.8193   52.1168 C   0  0  0  0  0  0  0  0  0  0  0  0
   21.9647   13.0412   51.5172 O   0  0  0  0  0  0  0  0  0  0  0  0
   21.8622   11.7012   53.4752 C   0  0  0  0  0  0  0  0  0  0  0  0
   21.6308   10.5235   54.1397 C   0  0  0  0  0  0  0  0  0  0  0  0
   21.7925   10.4431   55.5164 O   0  0  0  0  0  0  0  0  0  0  0  0
   21.2353    9.4386   53.3867 C   0  0  0  0  0  0  0  0  0  0  0  0
   21.1472   13.6678   51.4464 H   0  0  0  0  0  0  0  0  0  0  0  0
   20.9446   10.6654   56.0598 H   0  0  0  0  0  0  0  0  0  0  0  0
   20.1753    7.0007   53.3746 N   0  0  0  0  0  0  0  0  0  0  0  0
   20.4938    7.8099   53.9650 H   0  0  0  0  0  0  0  0  0  0  0  0
   20.5792    5.7420   53.7929 C   0  0  0  0  0  0  0  0  0  0  0  0
   19.5213    4.6902   53.6198 C   0  0  0  0  0  0  0  0  0  0  0  0
   21.9223    5.2653   53.3115 C   0  0  0  0  0  0  0  0  0  0  0  0
   24.9495    8.0553   54.6062 C   0  0  0  0  0  0  0  0  0  0  0  0
   25.0679    7.3608   53.4207 C   0  0  0  0  0  0  0  0  0  0  0  0
   24.0951    6.4675   53.0032 C   0  0  0  0  0  0  0  0  0  0  0  0
   22.9601    6.2324   53.7585 C   0  0  0  0  0  0  0  0  0  0  0  0
   22.8403    6.9271   54.9458 C   0  0  0  0  0  0  0  0  0  0  0  0
   23.8168    7.8180   55.3559 C   0  0  0  0  0  0  0  0  0  0  0  0
   27.2900    8.7682   54.8074 C   0  0  0  0  0  0  0  0  0  0  0  0
   25.9140    8.9592   55.0478 O   0  0  0  0  0  0  0  0  0  0  0  0
 26 27  1  0  0  0
 27 20  1  0  0  0
 20 21  2  0  0  0
 21 22  1  0  0  0
 22 23  2  0  0  0
 23 19  1  0  0  0
 19 17  1  0  0  0
 17 18  1  0  0  0
 17 15  1  0  0  0
 15  1  1  0  0  0
  1  2  1  0  0  0
  2  3  1  0  0  0
  2  5  1  0  0  0
  5  6  2  0  0  0
  6  7  1  0  0  0
  7  8  1  0  0  0
  7  9  2  0  0  0
  9 10  1  0  0  0
 10 11  1  0  0  0
 10 12  2  0  0  0
 23 24  1  0  0  0
 24 25  2  0  0  0
 25 20  1  0  0  0
 12  5  1  0  0  0
 15 16  1  0  0  0
  3  4  1  0  0  0
  8 13  1  0  0  0
 11 14  1  0  0  0
M  END
> <minimizedAffinity>
4.60144

> <CNNscore>
0.6273898482

> <CNNaffinity>
5.9940476418

> <CNN_VS>
3.7606046200

> <CNNaffinity_variance>
0.4938010573

$$$$
[H]Oc1c([H])c(O[H])c([H])c([C@@]([H])(O[H])C([H])([H])N([H])[C@@]([H])(C([H])([H])[H])C([H])([H])c2c([H])c([H])c(OC([H])([H])[H])c([H])c2[H])c1[H]


 27 28  0  0  0  0  0  0  0  0999 V2000
   23.9587    6.8161   53.0608 C   0  0  0  0  0  0  0  0  0  0  0  0
   22.5034    6.9939   53.3172 C   0  0  0  0  0  0  0  0  0  0  0  0
   21.7778    6.5840   52.1379 O   0  0  0  0  0  0  0  0  0  0  0  0
   21.2723    5.7989   52.4034 H   0  0  0  0  0  0  0  0  0  0  0  0
   22.0693    8.4154   53.4994 C   0  0  0  0  0  0  0  0  0  0  0  0
   21.7880    8.9739   54.7110 C   0  0  0  0  0  0  0  0  0  0  0  0
   21.3878   10.3088   54.8373 C   0  0  0  0  0  0  0  0  0  0  0  0
   21.0984   10.8905   56.0597 O   0  0  0  0  0  0  0  0  0  0  0  0
   21.2802   11.0654   53.6982 C   0  0  0  0  0  0  0  0  0  0  0  0
   21.5501   10.5589   52.4522 C   0  0  0  0  0  0  0  0  0  0  0  0
   21.4304   11.3565   51.3220 O   0  0  0  0  0  0  0  0  0  0  0  0
   21.9410    9.2391   52.3761 C   0  0  0  0  0  0  0  0  0  0  0  0
   21.9032   11.3311   56.5331 H   0  0  0  0  0  0  0  0  0  0  0  0
   22.2902   11.8645   51.0646 H   0  0  0  0  0  0  0  0  0  0  0  0
   24.8197    7.9067   53.1095 N   0  0  0  0  0  0  0  0  0  0  0  0
   24.3938    8.8313   52.8481 H   0  0  0  0  0  0  0  0  0  0  0  0
   26.2009    7.8228   53.0219 C   0  0  0  0  0  0  0  0  0  0  0  0
   26.8480    9.1057   52.5849 C   0  0  0  0  0  0  0  0  0  0  0  0
   26.9190    7.2074   54.1918 C   0  0  0  0  0  0  0  0  0  0  0  0
   27.9939   10.3244   56.9762 C   0  0  0  0  0  0  0  0  0  0  0  0
   28.9025    9.8237   56.0676 C   0  0  0  0  0  0  0  0  0  0  0  0
   28.5571    8.8253   55.1717 C   0  0  0  0  0  0  0  0  0  0  0  0
   27.2834    8.2859   55.1490 C   0  0  0  0  0  0  0  0  0  0  0  0
   26.3726    8.7864   56.0582 C   0  0  0  0  0  0  0  0  0  0  0  0
   26.7256    9.7840   56.9502 C   0  0  0  0  0  0  0  0  0  0  0  0
   28.8988   11.0481   59.1406 C   0  0  0  0  0  0  0  0  0  0  0  0
   28.3169   11.3284   57.8873 O   0  0  0  0  0  0  0  0  0  0  0  0
 26 27  1  0  0  0
 27 20  1  0  0  0
 20 21  2  0  0  0
 21 22  1  0  0  0
 22 23  2  0  0  0
 23 19  1  0  0  0
 19 17  1  0  0  0
 17 18  1  0  0  0
 17 15  1  0  0  0
 15  1  1  0  0  0
  1  2  1  0  0  0
  2  3  1  0  0  0
  2  5  1  0  0  0
  5  6  2  0  0  0
  6  7  1  0  0  0
  7  8  1  0  0  0
  7  9  2  0  0  0
  9 10  1  0  0  0
 10 11  1  0  0  0
 10 12  2  0  0  0
 23 24  1  0  0  0
 24 25  2  0  0  0
 25 20  1  0  0  0
 12  5  1  0  0  0
 15 16  1  0  0  0
  3  4  1  0  0  0
  8 13  1  0  0  0
 11 14  1  0  0  0
M  END
> <minimizedAffinity>
6.44906

> <CNNscore>
0.6137966514

> <CNNaffinity>
5.6612901688

> <CNN_VS>
3.4748809338

> <CNNaffinity_variance>
0.2843593955

$$$$
[H]Oc1c([H])c(O[H])c([H])c([C@@]([H])(O[H])C([H])([H])N([H])[C@@]([H])(C([H])([H])[H])C([H])([H])c2c([H])c([H])c(OC([H])([H])[H])c([H])c2[H])c1[H]


 27 28  0  0  0  0  0  0  0  0999 V2000
   21.8577    6.9929   53.6196 C   0  0  0  0  0  0  0  0  0  0  0  0
   20.3984    7.0793   53.3402 C   0  0  0  0  0  0  0  0  0  0  0  0
   19.7824    7.8831   54.3697 O   0  0  0  0  0  0  0  0  0  0  0  0
   19.4608    8.6807   53.9193 H   0  0  0  0  0  0  0  0  0  0  0  0
   19.6629    5.7793   53.4464 C   0  0  0  0  0  0  0  0  0  0  0  0
   18.3907    5.6635   53.9227 C   0  0  0  0  0  0  0  0  0  0  0  0
   17.7382    4.4282   54.0026 C   0  0  0  0  0  0  0  0  0  0  0  0
   16.4472    4.2939   54.4837 O   0  0  0  0  0  0  0  0  0  0  0  0
   18.4124    3.3091   53.5847 C   0  0  0  0  0  0  0  0  0  0  0  0
   19.6932    3.3633   53.0961 C   0  0  0  0  0  0  0  0  0  0  0  0
   20.3430    2.2081   52.6821 O   0  0  0  0  0  0  0  0  0  0  0  0
   20.2963    4.6015   53.0360 C   0  0  0  0  0  0  0  0  0  0  0  0
   15.7061    4.3753   53.7695 H   0  0  0  0  0  0  0  0  0  0  0  0
   20.2043    1.9731   51.6875 H   0  0  0  0  0  0  0  0  0  0  0  0
   22.7720    7.6277   52.7863 N   0  0  0  0  0  0  0  0  0  0  0  0
   22.8859    7.2019   51.8322 H   0  0  0  0  0  0  0  0  0  0  0  0
   23.8149    8.4277   53.2277 C   0  0  0  0  0  0  0  0  0  0  0  0
   23.5592    9.0511   54.5698 C   0  0  0  0  0  0  0  0  0  0  0  0
   25.2001    7.8477   53.1380 C   0  0  0  0  0  0  0  0  0  0  0  0
   27.5336    9.2620   56.4815 C   0  0  0  0  0  0  0  0  0  0  0  0
   28.1179    8.9637   55.2685 C   0  0  0  0  0  0  0  0  0  0  0  0
   27.3689    8.5126   54.1941 C   0  0  0  0  0  0  0  0  0  0  0  0
   25.9996    8.3413   54.2910 C   0  0  0  0  0  0  0  0  0  0  0  0
   25.4132    8.6397   55.5050 C   0  0  0  0  0  0  0  0  0  0  0  0
   26.1685    9.0899   56.5737 C   0  0  0  0  0  0  0  0  0  0  0  0
   28.6027   11.0761   57.7437 C   0  0  0  0  0  0  0  0  0  0  0  0
   28.2651    9.7174   57.5769 O   0  0  0  0  0  0  0  0  0  0  0  0
 26 27  1  0  0  0
 27 20  1  0  0  0
 20 21  2  0  0  0
 21 22  1  0  0  0
 22 23  2  0  0  0
 23 19  1  0  0  0
 19 17  1  0  0  0
 17 18  1  0  0  0
 17 15  1  0  0  0
 15  1  1  0  0  0
  1  2  1  0  0  0
  2  3  1  0  0  0
  2  5  1  0  0  0
  5  6  2  0  0  0
  6  7  1  0  0  0
  7  8  1  0  0  0
  7  9  2  0  0  0
  9 10  1  0  0  0
 10 11  1  0  0  0
 10 12  2  0  0  0
 23 24  1  0  0  0
 24 25  2  0  0  0
 25 20  1  0  0  0
 12  5  1  0  0  0
 15 16  1  0  0  0
  3  4  1  0  0  0
  8 13  1  0  0  0
 11 14  1  0  0  0
M  END
> <minimizedAffinity>
12.15648

> <CNNscore>
0.5760472417

> <CNNaffinity>
5.4803853035

> <CNN_VS>
3.1569607258

> <CNNaffinity_variance>
0.2974781692

$$$$
[H]Oc1c([H])c(O[H])c([H])c([C@@]([H])(O[H])C([H])([H])N([H])[C@@]([H])(C([H])([H])[H])C([H])([H])c2c([H])c([H])c(OC([H])([H])[H])c([H])c2[H])c1[H]


 27 28  0  0  0  0  0  0  0  0999 V2000
   23.3544    7.1318   51.9235 C   0  0  0  0  0  0  0  0  0  0  0  0
   21.9254    7.3660   52.2675 C   0  0  0  0  0  0  0  0  0  0  0  0
   21.3783    8.3156   51.3271 O   0  0  0  0  0  0  0  0  0  0  0  0
   20.7112    7.8250   50.8205 H   0  0  0  0  0  0  0  0  0  0  0  0
   21.7014    8.0361   53.5878 C   0  0  0  0  0  0  0  0  0  0  0  0
   21.4761    9.3731   53.7320 C   0  0  0  0  0  0  0  0  0  0  0  0
   21.2684    9.9592   54.9855 C   0  0  0  0  0  0  0  0  0  0  0  0
   21.0387   11.3145   55.1487 O   0  0  0  0  0  0  0  0  0  0  0  0
   21.2950    9.1506   56.0933 C   0  0  0  0  0  0  0  0  0  0  0  0
   21.5166    7.7993   56.0107 C   0  0  0  0  0  0  0  0  0  0  0  0
   21.5356    7.0131   57.1551 O   0  0  0  0  0  0  0  0  0  0  0  0
   21.7162    7.2657   54.7553 C   0  0  0  0  0  0  0  0  0  0  0  0
   20.0457   11.5947   55.1132 H   0  0  0  0  0  0  0  0  0  0  0  0
   20.6176    6.6275   57.4238 H   0  0  0  0  0  0  0  0  0  0  0  0
   24.3293    8.0453   52.3088 N   0  0  0  0  0  0  0  0  0  0  0  0
   24.3553    8.9390   51.7565 H   0  0  0  0  0  0  0  0  0  0  0  0
   25.4884    7.7160   52.9948 C   0  0  0  0  0  0  0  0  0  0  0  0
   26.5896    8.7217   52.8184 C   0  0  0  0  0  0  0  0  0  0  0  0
   25.3325    7.3076   54.4342 C   0  0  0  0  0  0  0  0  0  0  0  0
   27.7442    9.9251   56.8749 C   0  0  0  0  0  0  0  0  0  0  0  0
   26.3725    9.8747   57.0084 C   0  0  0  0  0  0  0  0  0  0  0  0
   25.5983    9.0325   56.2273 C   0  0  0  0  0  0  0  0  0  0  0  0
   26.1680    8.2037   55.2775 C   0  0  0  0  0  0  0  0  0  0  0  0
   27.5414    8.2531   55.1428 C   0  0  0  0  0  0  0  0  0  0  0  0
   28.3080    9.0973   55.9271 C   0  0  0  0  0  0  0  0  0  0  0  0
   28.1403   12.0640   58.0130 C   0  0  0  0  0  0  0  0  0  0  0  0
   28.5448   10.7634   57.6486 O   0  0  0  0  0  0  0  0  0  0  0  0
 26 27  1  0  0  0
 27 20  1  0  0  0
 20 21  2  0  0  0
 21 22  1  0  0  0
 22 23  2  0  0  0
 23 19  1  0  0  0
 19 17  1  0  0  0
 17 18  1  0  0  0
 17 15  1  0  0  0
 15  1  1  0  0  0
  1  2  1  0  0  0
  2  3  1  0  0  0
  2  5  1  0  0  0
  5  6  2  0  0  0
  6  7  1  0  0  0
  7  8  1  0  0  0
  7  9  2  0  0  0
  9 10  1  0  0  0
 10 11  1  0  0  0
 10 12  2  0  0  0
 23 24  1  0  0  0
 24 25  2  0  0  0
 25 20  1  0  0  0
 12  5  1  0  0  0
 15 16  1  0  0  0
  3  4  1  0  0  0
  8 13  1  0  0  0
 11 14  1  0  0  0
M  END
> <minimizedAffinity>
10.09902

> <CNNscore>
0.5712015033

> <CNNaffinity>
5.6737451553

> <CNN_VS>
3.2408518791

> <CNNaffinity_variance>
0.5168476105

$$$$
[H]Oc1c([H])c(O[H])c([H])c([C@@]([H])(O[H])C([H])([H])N([H])[C@@]([H])(C([H])([H])[H])C([H])([H])c2c([H])c([H])c(OC([H])([H])[H])c([H])c2[H])c1[H]


 27 28  0  0  0  0  0  0  0  0999 V2000
   22.1167    6.9446   53.4848 C   0  0  0  0  0  0  0  0  0  0  0  0
   20.6618    7.0748   53.1995 C   0  0  0  0  0  0  0  0  0  0  0  0
   20.0681    7.9054   54.2207 O   0  0  0  0  0  0  0  0  0  0  0  0
   19.7733    8.7093   53.7633 H   0  0  0  0  0  0  0  0  0  0  0  0
   19.8853    5.7995   53.3128 C   0  0  0  0  0  0  0  0  0  0  0  0
   20.4058    4.5676   53.0473 C   0  0  0  0  0  0  0  0  0  0  0  0
   19.6455    3.3993   53.1686 C   0  0  0  0  0  0  0  0  0  0  0  0
   20.1589    2.1415   52.9026 O   0  0  0  0  0  0  0  0  0  0  0  0
   18.3382    3.5134   53.5682 C   0  0  0  0  0  0  0  0  0  0  0  0
   17.7597    4.7251   53.8495 C   0  0  0  0  0  0  0  0  0  0  0  0
   16.4329    4.8004   54.2520 O   0  0  0  0  0  0  0  0  0  0  0  0
   18.5468    5.8490   53.7161 C   0  0  0  0  0  0  0  0  0  0  0  0
   20.5887    1.6670   53.7125 H   0  0  0  0  0  0  0  0  0  0  0  0
   16.2918    4.7401   55.2718 H   0  0  0  0  0  0  0  0  0  0  0  0
   23.0508    7.5964   52.6873 N   0  0  0  0  0  0  0  0  0  0  0  0
   23.1819    7.1955   51.7246 H   0  0  0  0  0  0  0  0  0  0  0  0
   24.0884    8.3788   53.1708 C   0  0  0  0  0  0  0  0  0  0  0  0
   23.7607    9.0675   54.4645 C   0  0  0  0  0  0  0  0  0  0  0  0
   25.4540    7.7489   53.2057 C   0  0  0  0  0  0  0  0  0  0  0  0
   27.6553    9.4461   56.5069 C   0  0  0  0  0  0  0  0  0  0  0  0
   26.2916    9.2518   56.5728 C   0  0  0  0  0  0  0  0  0  0  0  0
   25.5850    8.7042   55.5146 C   0  0  0  0  0  0  0  0  0  0  0  0
   26.2175    8.3277   54.3433 C   0  0  0  0  0  0  0  0  0  0  0  0
   27.5829    8.5217   54.2760 C   0  0  0  0  0  0  0  0  0  0  0  0
   28.2817    9.0695   55.3377 C   0  0  0  0  0  0  0  0  0  0  0  0
   28.4425    9.3934   58.8316 C   0  0  0  0  0  0  0  0  0  0  0  0
   28.3884    9.9948   57.5576 O   0  0  0  0  0  0  0  0  0  0  0  0
 26 27  1  0  0  0
 27 20  1  0  0  0
 20 21  2  0  0  0
 21 22  1  0  0  0
 22 23  2  0  0  0
 23 19  1  0  0  0
 19 17  1  0  0  0
 17 18  1  0  0  0
 17 15  1  0  0  0
 15  1  1  0  0  0
  1  2  1  0  0  0
  2  3  1  0  0  0
  2  5  1  0  0  0
  5  6  2  0  0  0
  6  7  1  0  0  0
  7  8  1  0  0  0
  7  9  2  0  0  0
  9 10  1  0  0  0
 10 11  1  0  0  0
 10 12  2  0  0  0
 23 24  1  0  0  0
 24 25  2  0  0  0
 25 20  1  0  0  0
 12  5  1  0  0  0
 15 16  1  0  0  0
  3  4  1  0  0  0
  8 13  1  0  0  0
 11 14  1  0  0  0
M  END
> <minimizedAffinity>
11.66617

> <CNNscore>
0.5710886121

> <CNNaffinity>
5.4818296432

> <CNN_VS>
3.1306104660

> <CNNaffinity_variance>
0.3216697872

$$$$
[H]Oc1c([H])c(O[H])c([H])c([C@@]([H])(O[H])C([H])([H])N([H])[C@@]([H])(C([H])([H])[H])C([H])([H])c2c([H])c([H])c(OC([H])([H])[H])c([H])c2[H])c1[H]


 27 28  0  0  0  0  0  0  0  0999 V2000
   23.4778    9.3191   53.6425 C   0  0  0  0  0  0  0  0  0  0  0  0
   23.8979    8.9913   55.0322 C   0  0  0  0  0  0  0  0  0  0  0  0
   23.4883   10.0701   55.9003 O   0  0  0  0  0  0  0  0  0  0  0  0
   22.8187    9.6888   56.4908 H   0  0  0  0  0  0  0  0  0  0  0  0
   25.3796    8.9377   55.2417 C   0  0  0  0  0  0  0  0  0  0  0  0
   26.0202    9.5312   56.2888 C   0  0  0  0  0  0  0  0  0  0  0  0
   27.4081    9.4544   56.4490 C   0  0  0  0  0  0  0  0  0  0  0  0
   28.0733   10.0514   57.5061 O   0  0  0  0  0  0  0  0  0  0  0  0
   28.1323    8.7568   55.5160 C   0  0  0  0  0  0  0  0  0  0  0  0
   27.5436    8.1387   54.4419 C   0  0  0  0  0  0  0  0  0  0  0  0
   28.3103    7.4409   53.5182 O   0  0  0  0  0  0  0  0  0  0  0  0
   26.1738    8.2412   54.3247 C   0  0  0  0  0  0  0  0  0  0  0  0
   28.1785    9.4582   58.3445 H   0  0  0  0  0  0  0  0  0  0  0  0
   28.4464    6.4435   53.7425 H   0  0  0  0  0  0  0  0  0  0  0  0
   22.2548    9.9363   53.4047 N   0  0  0  0  0  0  0  0  0  0  0  0
   21.9118   10.5703   54.1696 H   0  0  0  0  0  0  0  0  0  0  0  0
   21.2933    9.4637   52.5246 C   0  0  0  0  0  0  0  0  0  0  0  0
   21.0126   10.4054   51.3890 C   0  0  0  0  0  0  0  0  0  0  0  0
   21.4490    8.0459   52.0467 C   0  0  0  0  0  0  0  0  0  0  0  0
   22.9939    5.6718   55.3027 C   0  0  0  0  0  0  0  0  0  0  0  0
   21.8536    6.4346   55.4435 C   0  0  0  0  0  0  0  0  0  0  0  0
   21.3556    7.1943   54.3977 C   0  0  0  0  0  0  0  0  0  0  0  0
   21.9814    7.2214   53.1642 C   0  0  0  0  0  0  0  0  0  0  0  0
   23.1232    6.4581   53.0219 C   0  0  0  0  0  0  0  0  0  0  0  0
   23.6144    5.7016   54.0717 C   0  0  0  0  0  0  0  0  0  0  0  0
   22.7311    4.4861   57.4362 C   0  0  0  0  0  0  0  0  0  0  0  0
   23.5145    4.8992   56.3391 O   0  0  0  0  0  0  0  0  0  0  0  0
 26 27  1  0  0  0
 27 20  1  0  0  0
 20 21  2  0  0  0
 21 22  1  0  0  0
 22 23  2  0  0  0
 23 19  1  0  0  0
 19 17  1  0  0  0
 17 18  1  0  0  0
 17 15  1  0  0  0
 15  1  1  0  0  0
  1  2  1  0  0  0
  2  3  1  0  0  0
  2  5  1  0  0  0
  5  6  2  0  0  0
  6  7  1  0  0  0
  7  8  1  0  0  0
  7  9  2  0  0  0
  9 10  1  0  0  0
 10 11  1  0  0  0
 10 12  2  0  0  0
 23 24  1  0  0  0
 24 25  2  0  0  0
 25 20  1  0  0  0
 12  5  1  0  0  0
 15 16  1  0  0  0
  3  4  1  0  0  0
  8 13  1  0  0  0
 11 14  1  0  0  0
M  END
> <minimizedAffinity>
5.51505

> <CNNscore>
0.5705879927

> <CNNaffinity>
5.8119802475

> <CNN_VS>
3.3162460327

> <CNNaffinity_variance>
0.2035640031

$$$$
[H]Oc1c([H])c(O[H])c([H])c([C@@]([H])(O[H])C([H])([H])N([H])[C@@]([H])(C([H])([H])[H])C([H])([H])c2c([H])c([H])c(OC([H])([H])[H])c([H])c2[H])c1[H]


 27 28  0  0  0  0  0  0  0  0999 V2000
   20.5688    8.3598   51.4555 C   0  0  0  0  0  0  0  0  0  0  0  0
   20.6413    9.5979   52.2782 C   0  0  0  0  0  0  0  0  0  0  0  0
   21.5122   10.5385   51.6133 O   0  0  0  0  0  0  0  0  0  0  0  0
   20.9432   11.2809   51.3535 H   0  0  0  0  0  0  0  0  0  0  0  0
   21.2949    9.4240   53.6142 C   0  0  0  0  0  0  0  0  0  0  0  0
   21.0259    8.3910   54.4623 C   0  0  0  0  0  0  0  0  0  0  0  0
   21.6621    8.2643   55.7021 C   0  0  0  0  0  0  0  0  0  0  0  0
   21.3999    7.2218   56.5743 O   0  0  0  0  0  0  0  0  0  0  0  0
   22.5823    9.2163   56.0605 C   0  0  0  0  0  0  0  0  0  0  0  0
   22.8945   10.2776   55.2492 C   0  0  0  0  0  0  0  0  0  0  0  0
   23.8323   11.2214   55.6466 O   0  0  0  0  0  0  0  0  0  0  0  0
   22.2428   10.3617   54.0373 C   0  0  0  0  0  0  0  0  0  0  0  0
   21.9949    6.3878   56.4466 H   0  0  0  0  0  0  0  0  0  0  0  0
   24.8016   11.0032   55.3701 H   0  0  0  0  0  0  0  0  0  0  0  0
   21.4664    7.3198   51.6694 N   0  0  0  0  0  0  0  0  0  0  0  0
   21.8493    6.8669   50.8017 H   0  0  0  0  0  0  0  0  0  0  0  0
   21.5384    6.5699   52.8335 C   0  0  0  0  0  0  0  0  0  0  0  0
   20.2842    5.7949   53.1199 C   0  0  0  0  0  0  0  0  0  0  0  0
   22.7695    5.7263   53.0224 C   0  0  0  0  0  0  0  0  0  0  0  0
   25.9772    8.2410   54.4407 C   0  0  0  0  0  0  0  0  0  0  0  0
   25.3686    8.4654   53.2237 C   0  0  0  0  0  0  0  0  0  0  0  0
   24.3369    7.6604   52.7694 C   0  0  0  0  0  0  0  0  0  0  0  0
   23.8711    6.5942   53.5178 C   0  0  0  0  0  0  0  0  0  0  0  0
   24.4797    6.3684   54.7366 C   0  0  0  0  0  0  0  0  0  0  0  0
   25.5099    7.1773   55.1834 C   0  0  0  0  0  0  0  0  0  0  0  0
   28.3713    8.7288   54.6797 C   0  0  0  0  0  0  0  0  0  0  0  0
   27.0165    9.0364   54.9197 O   0  0  0  0  0  0  0  0  0  0  0  0
 26 27  1  0  0  0
 27 20  1  0  0  0
 20 21  2  0  0  0
 21 22  1  0  0  0
 22 23  2  0  0  0
 23 19  1  0  0  0
 19 17  1  0  0  0
 17 18  1  0  0  0
 17 15  1  0  0  0
 15  1  1  0  0  0
  1  2  1  0  0  0
  2  3  1  0  0  0
  2  5  1  0  0  0
  5  6  2  0  0  0
  6  7  1  0  0  0
  7  8  1  0  0  0
  7  9  2  0  0  0
  9 10  1  0  0  0
 10 11  1  0  0  0
 10 12  2  0  0  0
 23 24  1  0  0  0
 24 25  2  0  0  0
 25 20  1  0  0  0
 12  5  1  0  0  0
 15 16  1  0  0  0
  3  4  1  0  0  0
  8 13  1  0  0  0
 11 14  1  0  0  0
M  END
> <minimizedAffinity>
4.01852

> <CNNscore>
0.5619328022

> <CNNaffinity>
5.9799385071

> <CNN_VS>
3.3603236675

> <CNNaffinity_variance>
0.4543452263

$$$$
[H]Oc1c([H])c(O[H])c([H])c([C@@]([H])(O[H])C([H])([H])N([H])[C@@]([H])(C([H])([H])[H])C([H])([H])c2c([H])c([H])c(OC([H])([H])[H])c([H])c2[H])c1[H]


 27 28  0  0  0  0  0  0  0  0999 V2000
   21.3287    8.4632   56.0572 C   0  0  0  0  0  0  0  0  0  0  0  0
   20.9965    7.6302   54.8694 C   0  0  0  0  0  0  0  0  0  0  0  0
   21.9983    6.5981   54.7401 O   0  0  0  0  0  0  0  0  0  0  0  0
   21.5317    5.7616   54.8981 H   0  0  0  0  0  0  0  0  0  0  0  0
   21.0842    8.3474   53.5578 C   0  0  0  0  0  0  0  0  0  0  0  0
   21.2919    9.6896   53.4389 C   0  0  0  0  0  0  0  0  0  0  0  0
   21.3703   10.3205   52.1924 C   0  0  0  0  0  0  0  0  0  0  0  0
   21.5804   11.6818   52.0548 O   0  0  0  0  0  0  0  0  0  0  0  0
   21.2323    9.5512   51.0651 C   0  0  0  0  0  0  0  0  0  0  0  0
   21.0220    8.1967   51.1218 C   0  0  0  0  0  0  0  0  0  0  0  0
   20.8877    7.4512   49.9581 O   0  0  0  0  0  0  0  0  0  0  0  0
   20.9517    7.6184   52.3713 C   0  0  0  0  0  0  0  0  0  0  0  0
   22.5716   11.9655   51.9992 H   0  0  0  0  0  0  0  0  0  0  0  0
   21.7740    7.0798   49.5840 H   0  0  0  0  0  0  0  0  0  0  0  0
   21.8882    9.7259   55.8963 N   0  0  0  0  0  0  0  0  0  0  0  0
   21.2154   10.4881   55.6294 H   0  0  0  0  0  0  0  0  0  0  0  0
   23.2249    9.9640   55.6155 C   0  0  0  0  0  0  0  0  0  0  0  0
   23.4928   11.3635   55.1413 C   0  0  0  0  0  0  0  0  0  0  0  0
   24.2244    9.5261   56.6511 C   0  0  0  0  0  0  0  0  0  0  0  0
   27.8826    8.4018   54.6565 C   0  0  0  0  0  0  0  0  0  0  0  0
   27.8938    9.0330   55.8826 C   0  0  0  0  0  0  0  0  0  0  0  0
   26.7198    9.3913   56.5246 C   0  0  0  0  0  0  0  0  0  0  0  0
   25.4825    9.1313   55.9630 C   0  0  0  0  0  0  0  0  0  0  0  0
   25.4699    8.4994   54.7354 C   0  0  0  0  0  0  0  0  0  0  0  0
   26.6473    8.1446   54.1004 C   0  0  0  0  0  0  0  0  0  0  0  0
   29.2590    6.7217   53.5123 C   0  0  0  0  0  0  0  0  0  0  0  0
   29.0495    8.0313   53.9908 O   0  0  0  0  0  0  0  0  0  0  0  0
 26 27  1  0  0  0
 27 20  1  0  0  0
 20 21  2  0  0  0
 21 22  1  0  0  0
 22 23  2  0  0  0
 23 19  1  0  0  0
 19 17  1  0  0  0
 17 18  1  0  0  0
 17 15  1  0  0  0
 15  1  1  0  0  0
  1  2  1  0  0  0
  2  3  1  0  0  0
  2  5  1  0  0  0
  5  6  2  0  0  0
  6  7  1  0  0  0
  7  8  1  0  0  0
  7  9  2  0  0  0
  9 10  1  0  0  0
 10 11  1  0  0  0
 10 12  2  0  0  0
 23 24  1  0  0  0
 24 25  2  0  0  0
 25 20  1  0  0  0
 12  5  1  0  0  0
 15 16  1  0  0  0
  3  4  1  0  0  0
  8 13  1  0  0  0
 11 14  1  0  0  0
M  END
> <minimizedAffinity>
13.21374

> <CNNscore>
0.5610258579

> <CNNaffinity>
5.6253843307

> <CNN_VS>
3.1559860706

> <CNNaffinity_variance>
0.2867972851

$$$$
[H]c1nc(N2C([H])([H])C([H])([H])C(N3C([H])([H])C([H])([H])OC([H])([H])C3([H])[H])(C([H])(C([H])([H])[H])C([H])([H])[H])C([H])([H])C2([H])[H])c([H])c2c1C(=O)c1c(n([H])c3c([H])c(C#N)c([H])c([H])c13)C2(C([H])([H])[H])C([H])([H])[H]


 38 43  0  0  0  0  0  0  0  0999 V2000
   27.3668    9.2122   56.9571 C   0  0  0  0  0  0  0  0  0  0  0  0
   26.0653    9.6380   56.9042 C   0  0  0  0  0  0  0  0  0  0  0  0
   25.2202    9.2831   55.8437 C   0  0  0  0  0  0  0  0  0  0  0  0
   25.7444    8.4906   54.8556 C   0  0  0  0  0  0  0  0  0  0  0  0
   27.0624    8.0738   54.9322 C   0  0  0  0  0  0  0  0  0  0  0  0
   27.8374    8.4367   55.9655 N   0  0  0  0  0  0  0  0  0  0  0  0
   24.9111    8.0926   53.7332 C   0  0  0  0  0  0  0  0  0  0  0  0
   25.3871    7.3600   52.8145 O   0  0  0  0  0  0  0  0  0  0  0  0
   23.5341    8.5448   53.6818 C   0  0  0  0  0  0  0  0  0  0  0  0
   23.0552    9.3373   54.6958 C   0  0  0  0  0  0  0  0  0  0  0  0
   21.7511    9.6339   54.4328 N   0  0  0  0  0  0  0  0  0  0  0  0
   21.3829    9.0480   53.2702 C   0  0  0  0  0  0  0  0  0  0  0  0
   20.1909    9.0351   52.5678 C   0  0  0  0  0  0  0  0  0  0  0  0
   20.1069    8.3390   51.3884 C   0  0  0  0  0  0  0  0  0  0  0  0
   21.2264    7.6693   50.9402 C   0  0  0  0  0  0  0  0  0  0  0  0
   22.4138    7.6804   51.6369 C   0  0  0  0  0  0  0  0  0  0  0  0
   22.4948    8.3730   52.8087 C   0  0  0  0  0  0  0  0  0  0  0  0
   23.8418    9.7712   55.8512 C   0  0  0  0  0  0  0  0  0  0  0  0
   23.0988    9.2847   57.1032 C   0  0  0  0  0  0  0  0  0  0  0  0
   23.7574   11.2958   55.9040 C   0  0  0  0  0  0  0  0  0  0  0  0
   21.1066   10.2109   55.0029 H   0  0  0  0  0  0  0  0  0  0  0  0
   30.0019   10.6918   60.1758 C   0  0  0  0  0  0  0  0  0  0  0  0
   30.2687   10.6951   58.6552 C   0  0  0  0  0  0  0  0  0  0  0  0
   29.6785    9.5198   57.9452 C   0  0  0  0  0  0  0  0  0  0  0  0
   28.2327    9.5723   58.0415 N   0  0  0  0  0  0  0  0  0  0  0  0
   27.7200   10.0197   59.3308 C   0  0  0  0  0  0  0  0  0  0  0  0
   28.8318    9.7420   60.3206 C   0  0  0  0  0  0  0  0  0  0  0  0
   29.7019   12.0154   60.5038 N   0  0  0  0  0  0  0  0  0  0  0  0
   30.6145   12.9738   60.8596 C   0  0  0  0  0  0  0  0  0  0  0  0
   30.1927   13.7750   62.0673 C   0  0  0  0  0  0  0  0  0  0  0  0
   28.8644   14.1071   62.0751 O   0  0  0  0  0  0  0  0  0  0  0  0
   28.0367   12.9941   61.8993 C   0  0  0  0  0  0  0  0  0  0  0  0
   28.3594   12.4400   60.5268 C   0  0  0  0  0  0  0  0  0  0  0  0
   31.6265   11.0617   62.0815 C   0  0  0  0  0  0  0  0  0  0  0  0
   31.1893   10.1727   60.9154 C   0  0  0  0  0  0  0  0  0  0  0  0
   31.1110    8.8021   61.4892 C   0  0  0  0  0  0  0  0  0  0  0  0
   18.8658    8.3037   50.6217 C   0  0  0  0  0  0  0  0  0  0  0  0
   17.8893    8.2628   50.0045 N   0  0  0  0  0  0  0  0  0  0  0  0
 34 35  1  0  0  0
 35 36  1  0  0  0
 35 22  1  0  0  0
 22 28  1  0  0  0
 28 29  1  0  0  0
 29 30  1  0  0  0
 30 31  1  0  0  0
 31 32  1  0  0  0
 32 33  1  0  0  0
 22 23  1  0  0  0
 23 24  1  0  0  0
 24 25  1  0  0  0
 25  1  1  0  0  0
  1  2  2  0  0  0
  2  3  1  0  0  0
  3  4  2  0  0  0
  4  5  1  0  0  0
  5  6  2  0  0  0
  4  7  1  0  0  0
  7  8  2  0  0  0
  7  9  1  0  0  0
  9 10  2  0  0  0
 10 11  1  0  0  0
 11 12  1  0  0  0
 12 13  2  0  0  0
 13 14  1  0  0  0
 14 37  1  0  0  0
 37 38  3  0  0  0
 14 15  2  0  0  0
 15 16  1  0  0  0
 16 17  2  0  0  0
 10 18  1  0  0  0
 18 19  1  0  0  0
 18 20  1  0  0  0
 25 26  1  0  0  0
 26 27  1  0  0  0
 27 22  1  0  0  0
 33 28  1  0  0  0
  6  1  1  0  0  0
 17  9  1  0  0  0
 18  3  1  0  0  0
 17 12  1  0  0  0
 11 21  1  0  0  0
M  END
> <minimizedAffinity>
37.35588

> <CNNscore>
0.4325863123

> <CNNaffinity>
6.4649834633

> <CNN_VS>
2.7966632843

> <CNNaffinity_variance>
1.1952722073

$$$$
[H]c1nc(N2C([H])([H])C([H])([H])C(N3C([H])([H])C([H])([H])OC([H])([H])C3([H])[H])(C([H])(C([H])([H])[H])C([H])([H])[H])C([H])([H])C2([H])[H])c([H])c2c1C(=O)c1c(n([H])c3c([H])c(C#N)c([H])c([H])c13)C2(C([H])([H])[H])C([H])([H])[H]


 38 43  0  0  0  0  0  0  0  0999 V2000
   26.9885   10.2471   57.5483 C   0  0  0  0  0  0  0  0  0  0  0  0
   26.8472    9.3156   56.5532 C   0  0  0  0  0  0  0  0  0  0  0  0
   25.7072    9.2804   55.7382 C   0  0  0  0  0  0  0  0  0  0  0  0
   24.7332   10.2158   55.9730 C   0  0  0  0  0  0  0  0  0  0  0  0
   24.8997   11.1463   56.9846 C   0  0  0  0  0  0  0  0  0  0  0  0
   26.0072   11.1447   57.7419 N   0  0  0  0  0  0  0  0  0  0  0  0
   23.5307   10.2244   55.1565 C   0  0  0  0  0  0  0  0  0  0  0  0
   22.6242   11.0856   55.3662 O   0  0  0  0  0  0  0  0  0  0  0  0
   23.3858    9.2373   54.1039 C   0  0  0  0  0  0  0  0  0  0  0  0
   24.3894    8.3209   53.9077 C   0  0  0  0  0  0  0  0  0  0  0  0
   24.0333    7.5048   52.8757 N   0  0  0  0  0  0  0  0  0  0  0  0
   22.8210    7.8786   52.4053 C   0  0  0  0  0  0  0  0  0  0  0  0
   22.0236    7.3888   51.3861 C   0  0  0  0  0  0  0  0  0  0  0  0
   20.8134    7.9816   51.1285 C   0  0  0  0  0  0  0  0  0  0  0  0
   20.4306    9.0567   51.9033 C   0  0  0  0  0  0  0  0  0  0  0  0
   21.2220    9.5461   52.9181 C   0  0  0  0  0  0  0  0  0  0  0  0
   22.4243    8.9552   53.1723 C   0  0  0  0  0  0  0  0  0  0  0  0
   25.6224    8.2602   54.6939 C   0  0  0  0  0  0  0  0  0  0  0  0
   26.7881    8.3958   53.7045 C   0  0  0  0  0  0  0  0  0  0  0  0
   25.7317    6.8405   55.2476 C   0  0  0  0  0  0  0  0  0  0  0  0
   24.5724    6.7131   52.4808 H   0  0  0  0  0  0  0  0  0  0  0  0
   30.3660   10.1888   60.3911 C   0  0  0  0  0  0  0  0  0  0  0  0
   29.0367   10.9643   60.5137 C   0  0  0  0  0  0  0  0  0  0  0  0
   28.4982   11.4328   59.2005 C   0  0  0  0  0  0  0  0  0  0  0  0
   28.1541   10.2865   58.3820 N   0  0  0  0  0  0  0  0  0  0  0  0
   29.0871    9.1695   58.4681 C   0  0  0  0  0  0  0  0  0  0  0  0
   30.3937    9.7759   58.9348 C   0  0  0  0  0  0  0  0  0  0  0  0
   30.2562    9.1192   61.2818 N   0  0  0  0  0  0  0  0  0  0  0  0
   31.2782    8.6013   62.0337 C   0  0  0  0  0  0  0  0  0  0  0  0
   31.3292    7.0930   62.0061 C   0  0  0  0  0  0  0  0  0  0  0  0
   30.0994    6.4958   62.0813 O   0  0  0  0  0  0  0  0  0  0  0  0
   29.2113    6.9839   61.1180 C   0  0  0  0  0  0  0  0  0  0  0  0
   29.0224    8.4555   61.4243 C   0  0  0  0  0  0  0  0  0  0  0  0
   31.6291   12.2967   59.7834 C   0  0  0  0  0  0  0  0  0  0  0  0
   31.5227   11.0783   60.7029 C   0  0  0  0  0  0  0  0  0  0  0  0
   31.6286   11.6301   62.0807 C   0  0  0  0  0  0  0  0  0  0  0  0
   19.9469    7.4914   50.0614 C   0  0  0  0  0  0  0  0  0  0  0  0
   19.2646    7.0866   49.2208 N   0  0  0  0  0  0  0  0  0  0  0  0
 34 35  1  0  0  0
 35 36  1  0  0  0
 35 22  1  0  0  0
 22 28  1  0  0  0
 28 29  1  0  0  0
 29 30  1  0  0  0
 30 31  1  0  0  0
 31 32  1  0  0  0
 32 33  1  0  0  0
 22 23  1  0  0  0
 23 24  1  0  0  0
 24 25  1  0  0  0
 25  1  1  0  0  0
  1  2  2  0  0  0
  2  3  1  0  0  0
  3  4  2  0  0  0
  4  5  1  0  0  0
  5  6  2  0  0  0
  4  7  1  0  0  0
  7  8  2  0  0  0
  7  9  1  0  0  0
  9 10  2  0  0  0
 10 11  1  0  0  0
 11 12  1  0  0  0
 12 13  2  0  0  0
 13 14  1  0  0  0
 14 37  1  0  0  0
 37 38  3  0  0  0
 14 15  2  0  0  0
 15 16  1  0  0  0
 16 17  2  0  0  0
 10 18  1  0  0  0
 18 19  1  0  0  0
 18 20  1  0  0  0
 25 26  1  0  0  0
 26 27  1  0  0  0
 27 22  1  0  0  0
 33 28  1  0  0  0
  6  1  1  0  0  0
 17  9  1  0  0  0
 18  3  1  0  0  0
 17 12  1  0  0  0
 11 21  1  0  0  0
M  END
> <minimizedAffinity>
52.14663

> <CNNscore>
0.3525796533

> <CNNaffinity>
6.3904395103

> <CNN_VS>
2.2531390190

> <CNNaffinity_variance>
1.0428588390

$$$$
[H]c1nc(N2C([H])([H])C([H])([H])C(N3C([H])([H])C([H])([H])OC([H])([H])C3([H])[H])(C([H])(C([H])([H])[H])C([H])([H])[H])C([H])([H])C2([H])[H])c([H])c2c1C(=O)c1c(n([H])c3c([H])c(C#N)c([H])c([H])c13)C2(C([H])([H])[H])C([H])([H])[H]


 38 43  0  0  0  0  0  0  0  0999 V2000
   22.6467    5.9655   55.6577 C   0  0  0  0  0  0  0  0  0  0  0  0
   22.5197    7.3049   55.9177 C   0  0  0  0  0  0  0  0  0  0  0  0
   22.2563    8.2283   54.8964 C   0  0  0  0  0  0  0  0  0  0  0  0
   22.1296    7.7415   53.6213 C   0  0  0  0  0  0  0  0  0  0  0  0
   22.2624    6.3839   53.3848 C   0  0  0  0  0  0  0  0  0  0  0  0
   22.5147    5.5340   54.3918 N   0  0  0  0  0  0  0  0  0  0  0  0
   21.8557    8.6557   52.5250 C   0  0  0  0  0  0  0  0  0  0  0  0
   21.7369    8.2149   51.3422 O   0  0  0  0  0  0  0  0  0  0  0  0
   21.7212   10.0724   52.8048 C   0  0  0  0  0  0  0  0  0  0  0  0
   21.8565   10.5113   54.0989 C   0  0  0  0  0  0  0  0  0  0  0  0
   21.6916   11.8641   54.1155 N   0  0  0  0  0  0  0  0  0  0  0  0
   21.4531   12.3030   52.8580 C   0  0  0  0  0  0  0  0  0  0  0  0
   21.2211   13.5639   52.3376 C   0  0  0  0  0  0  0  0  0  0  0  0
   21.0056   13.7116   50.9906 C   0  0  0  0  0  0  0  0  0  0  0  0
   21.0280   12.5853   50.1946 C   0  0  0  0  0  0  0  0  0  0  0  0
   21.2586   11.3295   50.7097 C   0  0  0  0  0  0  0  0  0  0  0  0
   21.4727   11.1852   52.0487 C   0  0  0  0  0  0  0  0  0  0  0  0
   22.1314    9.6431   55.2446 C   0  0  0  0  0  0  0  0  0  0  0  0
   20.9908    9.8578   56.2492 C   0  0  0  0  0  0  0  0  0  0  0  0
   23.3793   10.1921   55.9340 C   0  0  0  0  0  0  0  0  0  0  0  0
   21.7332   12.4961   54.9354 H   0  0  0  0  0  0  0  0  0  0  0  0
   23.7984    3.2504   58.9432 C   0  0  0  0  0  0  0  0  0  0  0  0
   24.5140    3.4600   57.5914 C   0  0  0  0  0  0  0  0  0  0  0  0
   23.5790    3.7523   56.4626 C   0  0  0  0  0  0  0  0  0  0  0  0
   22.9143    5.0188   56.7006 N   0  0  0  0  0  0  0  0  0  0  0  0
   22.5338    5.2604   58.0870 C   0  0  0  0  0  0  0  0  0  0  0  0
   22.4436    3.8883   58.7211 C   0  0  0  0  0  0  0  0  0  0  0  0
   24.5875    3.9094   59.8880 N   0  0  0  0  0  0  0  0  0  0  0  0
   25.7737    4.5454   59.6301 C   0  0  0  0  0  0  0  0  0  0  0  0
   26.8527    4.2175   60.6334 C   0  0  0  0  0  0  0  0  0  0  0  0
   26.4090    4.1687   61.9278 O   0  0  0  0  0  0  0  0  0  0  0  0
   25.3086    3.3200   62.0813 C   0  0  0  0  0  0  0  0  0  0  0  0
   24.1966    3.9133   61.2409 C   0  0  0  0  0  0  0  0  0  0  0  0
   23.2443    1.4962   60.6821 C   0  0  0  0  0  0  0  0  0  0  0  0
   23.6477    1.7952   59.2367 C   0  0  0  0  0  0  0  0  0  0  0  0
   22.6965    1.0094   58.4050 C   0  0  0  0  0  0  0  0  0  0  0  0
   20.7576   15.0262   50.4076 C   0  0  0  0  0  0  0  0  0  0  0  0
   20.5782   16.0685   49.9411 N   0  0  0  0  0  0  0  0  0  0  0  0
 34 35  1  0  0  0
 35 36  1  0  0  0
 35 22  1  0  0  0
 22 28  1  0  0  0
 28 29  1  0  0  0
 29 30  1  0  0  0
 30 31  1  0  0  0
 31 32  1  0  0  0
 32 33  1  0  0  0
 22 23  1  0  0  0
 23 24  1  0  0  0
 24 25  1  0  0  0
 25  1  1  0  0  0
  1  2  2  0  0  0
  2  3  1  0  0  0
  3  4  2  0  0  0
  4  5  1  0  0  0
  5  6  2  0  0  0
  4  7  1  0  0  0
  7  8  2  0  0  0
  7  9  1  0  0  0
  9 10  2  0  0  0
 10 11  1  0  0  0
 11 12  1  0  0  0
 12 13  2  0  0  0
 13 14  1  0  0  0
 14 37  1  0  0  0
 37 38  3  0  0  0
 14 15  2  0  0  0
 15 16  1  0  0  0
 16 17  2  0  0  0
 10 18  1  0  0  0
 18 19  1  0  0  0
 18 20  1  0  0  0
 25 26  1  0  0  0
 26 27  1  0  0  0
 27 22  1  0  0  0
 33 28  1  0  0  0
  6  1  1  0  0  0
 17  9  1  0  0  0
 18  3  1  0  0  0
 17 12  1  0  0  0
 11 21  1  0  0  0
M  END
> <minimizedAffinity>
59.05340

> <CNNscore>
0.3474491239

> <CNNaffinity>
6.4790983200

> <CNN_VS>
2.2511570454

> <CNNaffinity_variance>
0.4928328991

$$$$
[H]c1nc(N2C([H])([H])C([H])([H])C(N3C([H])([H])C([H])([H])OC([H])([H])C3([H])[H])(C([H])(C([H])([H])[H])C([H])([H])[H])C([H])([H])C2([H])[H])c([H])c2c1C(=O)c1c(n([H])c3c([H])c(C#N)c([H])c([H])c13)C2(C([H])([H])[H])C([H])([H])[H]


 38 43  0  0  0  0  0  0  0  0999 V2000
   21.6288   12.0451   52.6972 C   0  0  0  0  0  0  0  0  0  0  0  0
   22.3528   10.8922   52.5403 C   0  0  0  0  0  0  0  0  0  0  0  0
   22.2788    9.8474   53.4718 C   0  0  0  0  0  0  0  0  0  0  0  0
   21.4519   10.0203   54.5513 C   0  0  0  0  0  0  0  0  0  0  0  0
   20.7311   11.1945   54.6870 C   0  0  0  0  0  0  0  0  0  0  0  0
   20.8313   12.1702   53.7716 N   0  0  0  0  0  0  0  0  0  0  0  0
   21.3374    8.9677   55.5471 C   0  0  0  0  0  0  0  0  0  0  0  0
   20.5754    9.1186   56.5491 O   0  0  0  0  0  0  0  0  0  0  0  0
   22.1048    7.7490   55.3766 C   0  0  0  0  0  0  0  0  0  0  0  0
   22.9192    7.6230   54.2783 C   0  0  0  0  0  0  0  0  0  0  0  0
   23.5325    6.4071   54.3326 N   0  0  0  0  0  0  0  0  0  0  0  0
   23.1286    5.7495   55.4439 C   0  0  0  0  0  0  0  0  0  0  0  0
   23.4445    4.5047   55.9587 C   0  0  0  0  0  0  0  0  0  0  0  0
   22.8675    4.0909   57.1328 C   0  0  0  0  0  0  0  0  0  0  0  0
   21.9831    4.9400   57.7648 C   0  0  0  0  0  0  0  0  0  0  0  0
   21.6670    6.1792   57.2549 C   0  0  0  0  0  0  0  0  0  0  0  0
   22.2418    6.5883   56.0880 C   0  0  0  0  0  0  0  0  0  0  0  0
   23.0775    8.6442   53.2418 C   0  0  0  0  0  0  0  0  0  0  0  0
   22.6987    7.9863   51.9076 C   0  0  0  0  0  0  0  0  0  0  0  0
   24.5718    8.9420   53.1302 C   0  0  0  0  0  0  0  0  0  0  0  0
   24.2067    6.0082   53.6544 H   0  0  0  0  0  0  0  0  0  0  0  0
   22.2040   15.4234   49.9136 C   0  0  0  0  0  0  0  0  0  0  0  0
   22.0454   15.4758   51.4483 C   0  0  0  0  0  0  0  0  0  0  0  0
   21.1299   14.4248   51.9879 C   0  0  0  0  0  0  0  0  0  0  0  0
   21.7013   13.1145   51.7451 N   0  0  0  0  0  0  0  0  0  0  0  0
   22.3583   12.9621   50.4526 C   0  0  0  0  0  0  0  0  0  0  0  0
   21.7439   14.0239   49.5648 C   0  0  0  0  0  0  0  0  0  0  0  0
   23.5600   15.6514   49.6716 N   0  0  0  0  0  0  0  0  0  0  0  0
   24.1337   16.8755   49.4463 C   0  0  0  0  0  0  0  0  0  0  0  0
   25.0933   16.8751   48.2812 C   0  0  0  0  0  0  0  0  0  0  0  0
   25.8893   15.7628   48.2197 O   0  0  0  0  0  0  0  0  0  0  0  0
   25.1499   14.5767   48.2590 C   0  0  0  0  0  0  0  0  0  0  0  0
   24.4479   14.5606   49.6013 C   0  0  0  0  0  0  0  0  0  0  0  0
   21.7230   16.7601   47.8183 C   0  0  0  0  0  0  0  0  0  0  0  0
   21.3264   16.4384   49.2608 C   0  0  0  0  0  0  0  0  0  0  0  0
   19.8650   16.1649   49.2024 C   0  0  0  0  0  0  0  0  0  0  0  0
   23.1775    2.7845   57.7045 C   0  0  0  0  0  0  0  0  0  0  0  0
   23.4353    1.7473   58.1449 N   0  0  0  0  0  0  0  0  0  0  0  0
 34 35  1  0  0  0
 35 36  1  0  0  0
 35 22  1  0  0  0
 22 28  1  0  0  0
 28 29  1  0  0  0
 29 30  1  0  0  0
 30 31  1  0  0  0
 31 32  1  0  0  0
 32 33  1  0  0  0
 22 23  1  0  0  0
 23 24  1  0  0  0
 24 25  1  0  0  0
 25  1  1  0  0  0
  1  2  2  0  0  0
  2  3  1  0  0  0
  3  4  2  0  0  0
  4  5  1  0  0  0
  5  6  2  0  0  0
  4  7  1  0  0  0
  7  8  2  0  0  0
  7  9  1  0  0  0
  9 10  2  0  0  0
 10 11  1  0  0  0
 11 12  1  0  0  0
 12 13  2  0  0  0
 13 14  1  0  0  0
 14 37  1  0  0  0
 37 38  3  0  0  0
 14 15  2  0  0  0
 15 16  1  0  0  0
 16 17  2  0  0  0
 10 18  1  0  0  0
 18 19  1  0  0  0
 18 20  1  0  0  0
 25 26  1  0  0  0
 26 27  1  0  0  0
 27 22  1  0  0  0
 33 28  1  0  0  0
  6  1  1  0  0  0
 17  9  1  0  0  0
 18  3  1  0  0  0
 17 12  1  0  0  0
 11 21  1  0  0  0
M  END
> <minimizedAffinity>
71.32859

> <CNNscore>
0.3274885118

> <CNNaffinity>
6.3225235939

> <CNN_VS>
2.0705537796

> <CNNaffinity_variance>
0.2902411520

$$$$
[H]c1nc(N2C([H])([H])C([H])([H])C(N3C([H])([H])C([H])([H])OC([H])([H])C3([H])[H])(C([H])(C([H])([H])[H])C([H])([H])[H])C([H])([H])C2([H])[H])c([H])c2c1C(=O)c1c(n([H])c3c([H])c(C#N)c([H])c([H])c13)C2(C([H])([H])[H])C([H])([H])[H]


 38 43  0  0  0  0  0  0  0  0999 V2000
   25.7868    8.4785   55.5681 C   0  0  0  0  0  0  0  0  0  0  0  0
   24.4295    8.4696   55.7560 C   0  0  0  0  0  0  0  0  0  0  0  0
   23.6094    7.5174   55.1349 C   0  0  0  0  0  0  0  0  0  0  0  0
   24.2165    6.5901   54.3283 C   0  0  0  0  0  0  0  0  0  0  0  0
   25.5897    6.6204   54.1547 C   0  0  0  0  0  0  0  0  0  0  0  0
   26.3380    7.5498   54.7683 N   0  0  0  0  0  0  0  0  0  0  0  0
   23.4128    5.5797   53.6606 C   0  0  0  0  0  0  0  0  0  0  0  0
   23.9653    4.7180   52.9125 O   0  0  0  0  0  0  0  0  0  0  0  0
   21.9768    5.5736   53.8630 C   0  0  0  0  0  0  0  0  0  0  0  0
   21.4154    6.5234   54.6805 C   0  0  0  0  0  0  0  0  0  0  0  0
   20.0682    6.3201   54.7170 N   0  0  0  0  0  0  0  0  0  0  0  0
   19.7529    5.2589   53.9391 C   0  0  0  0  0  0  0  0  0  0  0  0
   18.5489    4.6473   53.6378 C   0  0  0  0  0  0  0  0  0  0  0  0
   18.5318    3.5621   52.7984 C   0  0  0  0  0  0  0  0  0  0  0  0
   19.7288    3.1146   52.2792 C   0  0  0  0  0  0  0  0  0  0  0  0
   20.9282    3.7213   52.5772 C   0  0  0  0  0  0  0  0  0  0  0  0
   20.9427    4.7997   53.4116 C   0  0  0  0  0  0  0  0  0  0  0  0
   22.1686    7.5649   55.3805 C   0  0  0  0  0  0  0  0  0  0  0  0
   21.8658    7.4035   56.8767 C   0  0  0  0  0  0  0  0  0  0  0  0
   21.5488    8.9056   54.9900 C   0  0  0  0  0  0  0  0  0  0  0  0
   19.3606    6.8651   55.2420 H   0  0  0  0  0  0  0  0  0  0  0  0
   28.3793   11.2376   57.8394 C   0  0  0  0  0  0  0  0  0  0  0  0
   26.9111   10.8599   58.1310 C   0  0  0  0  0  0  0  0  0  0  0  0
   26.1048   10.6108   56.8974 C   0  0  0  0  0  0  0  0  0  0  0  0
   26.6280    9.4501   56.2036 N   0  0  0  0  0  0  0  0  0  0  0  0
   28.0819    9.3429   56.1980 C   0  0  0  0  0  0  0  0  0  0  0  0
   28.5869   10.7531   56.4202 C   0  0  0  0  0  0  0  0  0  0  0  0
   29.1363   10.5499   58.7899 N   0  0  0  0  0  0  0  0  0  0  0  0
   28.9765    9.2329   59.1336 C   0  0  0  0  0  0  0  0  0  0  0  0
   28.9867    9.0041   60.6256 C   0  0  0  0  0  0  0  0  0  0  0  0
   29.9291    9.7404   61.2923 O   0  0  0  0  0  0  0  0  0  0  0  0
   29.8459   11.1043   60.9960 C   0  0  0  0  0  0  0  0  0  0  0  0
   30.1322   11.2331   59.5140 C   0  0  0  0  0  0  0  0  0  0  0  0
   27.7812   13.4938   56.8595 C   0  0  0  0  0  0  0  0  0  0  0  0
   28.5659   12.7160   57.9181 C   0  0  0  0  0  0  0  0  0  0  0  0
   28.2465   13.3933   59.2037 C   0  0  0  0  0  0  0  0  0  0  0  0
   17.2804    2.8924   52.4591 C   0  0  0  0  0  0  0  0  0  0  0  0
   16.2879    2.3719   52.1758 N   0  0  0  0  0  0  0  0  0  0  0  0
 34 35  1  0  0  0
 35 36  1  0  0  0
 35 22  1  0  0  0
 22 28  1  0  0  0
 28 29  1  0  0  0
 29 30  1  0  0  0
 30 31  1  0  0  0
 31 32  1  0  0  0
 32 33  1  0  0  0
 22 23  1  0  0  0
 23 24  1  0  0  0
 24 25  1  0  0  0
 25  1  1  0  0  0
  1  2  2  0  0  0
  2  3  1  0  0  0
  3  4  2  0  0  0
  4  5  1  0  0  0
  5  6  2  0  0  0
  4  7  1  0  0  0
  7  8  2  0  0  0
  7  9  1  0  0  0
  9 10  2  0  0  0
 10 11  1  0  0  0
 11 12  1  0  0  0
 12 13  2  0  0  0
 13 14  1  0  0  0
 14 37  1  0  0  0
 37 38  3  0  0  0
 14 15  2  0  0  0
 15 16  1  0  0  0
 16 17  2  0  0  0
 10 18  1  0  0  0
 18 19  1  0  0  0
 18 20  1  0  0  0
 25 26  1  0  0  0
 26 27  1  0  0  0
 27 22  1  0  0  0
 33 28  1  0  0  0
  6  1  1  0  0  0
 17  9  1  0  0  0
 18  3  1  0  0  0
 17 12  1  0  0  0
 11 21  1  0  0  0
M  END
> <minimizedAffinity>
59.69048

> <CNNscore>
0.3231522441

> <CNNaffinity>
6.4687514305

> <CNN_VS>
2.0903916359

> <CNNaffinity_variance>
0.7630214691

$$$$
[H]c1nc(N2C([H])([H])C([H])([H])C(N3C([H])([H])C([H])([H])OC([H])([H])C3([H])[H])(C([H])(C([H])([H])[H])C([H])([H])[H])C([H])([H])C2([H])[H])c([H])c2c1C(=O)c1c(n([H])c3c([H])c(C#N)c([H])c([H])c13)C2(C([H])([H])[H])C([H])([H])[H]


 38 43  0  0  0  0  0  0  0  0999 V2000
   21.8242   11.1064   52.1294 C   0  0  0  0  0  0  0  0  0  0  0  0
   21.7999   10.8051   53.4660 C   0  0  0  0  0  0  0  0  0  0  0  0
   22.0432    9.5045   53.9290 C   0  0  0  0  0  0  0  0  0  0  0  0
   22.3078    8.5393   52.9924 C   0  0  0  0  0  0  0  0  0  0  0  0
   22.3265    8.8693   51.6479 C   0  0  0  0  0  0  0  0  0  0  0  0
   22.0880   10.1274   51.2474 N   0  0  0  0  0  0  0  0  0  0  0  0
   22.5679    7.1741   53.4183 C   0  0  0  0  0  0  0  0  0  0  0  0
   22.8134    6.2745   52.5593 O   0  0  0  0  0  0  0  0  0  0  0  0
   22.5420    6.8598   54.8338 C   0  0  0  0  0  0  0  0  0  0  0  0
   22.2721    7.8615   55.7335 C   0  0  0  0  0  0  0  0  0  0  0  0
   22.3015    7.3333   56.9895 N   0  0  0  0  0  0  0  0  0  0  0  0
   22.5847    6.0123   56.9147 C   0  0  0  0  0  0  0  0  0  0  0  0
   22.7279    5.0321   57.8807 C   0  0  0  0  0  0  0  0  0  0  0  0
   23.0233    3.7466   57.5028 C   0  0  0  0  0  0  0  0  0  0  0  0
   23.1687    3.4744   56.1584 C   0  0  0  0  0  0  0  0  0  0  0  0
   23.0267    4.4477   55.1951 C   0  0  0  0  0  0  0  0  0  0  0  0
   22.7330    5.7245   55.5731 C   0  0  0  0  0  0  0  0  0  0  0  0
   22.0031    9.2532   55.3690 C   0  0  0  0  0  0  0  0  0  0  0  0
   23.0425   10.1136   56.1009 C   0  0  0  0  0  0  0  0  0  0  0  0
   20.6612    9.6293   55.9951 C   0  0  0  0  0  0  0  0  0  0  0  0
   22.1395    7.8258   57.8865 H   0  0  0  0  0  0  0  0  0  0  0  0
   21.0494   15.0505   50.3028 C   0  0  0  0  0  0  0  0  0  0  0  0
   22.2966   14.1563   50.1348 C   0  0  0  0  0  0  0  0  0  0  0  0
   22.6406   13.3785   51.3638 C   0  0  0  0  0  0  0  0  0  0  0  0
   21.5774   12.4361   51.6534 N   0  0  0  0  0  0  0  0  0  0  0  0
   20.2298   12.9430   51.4250 C   0  0  0  0  0  0  0  0  0  0  0  0
   20.3515   14.4503   51.5047 C   0  0  0  0  0  0  0  0  0  0  0  0
   20.3356   14.9215   49.1097 N   0  0  0  0  0  0  0  0  0  0  0  0
   19.6909   13.7888   48.6862 C   0  0  0  0  0  0  0  0  0  0  0  0
   19.9554   13.4630   47.2363 C   0  0  0  0  0  0  0  0  0  0  0  0
   19.9547   14.5576   46.4137 O   0  0  0  0  0  0  0  0  0  0  0  0
   20.8150   15.5630   46.8654 C   0  0  0  0  0  0  0  0  0  0  0  0
   20.2788   16.0047   48.2117 C   0  0  0  0  0  0  0  0  0  0  0  0
   21.2667   16.8750   52.0440 C   0  0  0  0  0  0  0  0  0  0  0  0
   21.4490   16.4607   50.5824 C   0  0  0  0  0  0  0  0  0  0  0  0
   22.8360   16.8753   50.2387 C   0  0  0  0  0  0  0  0  0  0  0  0
   23.1816    2.6879   58.4946 C   0  0  0  0  0  0  0  0  0  0  0  0
   23.3219    1.8567   59.2856 N   0  0  0  0  0  0  0  0  0  0  0  0
 34 35  1  0  0  0
 35 36  1  0  0  0
 35 22  1  0  0  0
 22 28  1  0  0  0
 28 29  1  0  0  0
 29 30  1  0  0  0
 30 31  1  0  0  0
 31 32  1  0  0  0
 32 33  1  0  0  0
 22 23  1  0  0  0
 23 24  1  0  0  0
 24 25  1  0  0  0
 25  1  1  0  0  0
  1  2  2  0  0  0
  2  3  1  0  0  0
  3  4  2  0  0  0
  4  5  1  0  0  0
  5  6  2  0  0  0
  4  7  1  0  0  0
  7  8  2  0  0  0
  7  9  1  0  0  0
  9 10  2  0  0  0
 10 11  1  0  0  0
 11 12  1  0  0  0
 12 13  2  0  0  0
 13 14  1  0  0  0
 14 37  1  0  0  0
 37 38  3  0  0  0
 14 15  2  0  0  0
 15 16  1  0  0  0
 16 17  2  0  0  0
 10 18  1  0  0  0
 18 19  1  0  0  0
 18 20  1  0  0  0
 25 26  1  0  0  0
 26 27  1  0  0  0
 27 22  1  0  0  0
 33 28  1  0  0  0
  6  1  1  0  0  0
 17  9  1  0  0  0
 18  3  1  0  0  0
 17 12  1  0  0  0
 11 21  1  0  0  0
M  END
> <minimizedAffinity>
85.38697

> <CNNscore>
0.2934456468

> <CNNaffinity>
6.1924962997

> <CNN_VS>
1.8171610832

> <CNNaffinity_variance>
0.4072621763

$$$$
[H]c1nc(N2C([H])([H])C([H])([H])C(N3C([H])([H])C([H])([H])OC([H])([H])C3([H])[H])(C([H])(C([H])([H])[H])C([H])([H])[H])C([H])([H])C2([H])[H])c([H])c2c1C(=O)c1c(n([H])c3c([H])c(C#N)c([H])c([H])c13)C2(C([H])([H])[H])C([H])([H])[H]


 38 43  0  0  0  0  0  0  0  0999 V2000
   25.8118    9.6620   56.5566 C   0  0  0  0  0  0  0  0  0  0  0  0
   25.4103    8.3522   56.5249 C   0  0  0  0  0  0  0  0  0  0  0  0
   24.3632    7.9261   55.6960 C   0  0  0  0  0  0  0  0  0  0  0  0
   23.7515    8.8711   54.9139 C   0  0  0  0  0  0  0  0  0  0  0  0
   24.1757   10.1881   54.9643 C   0  0  0  0  0  0  0  0  0  0  0  0
   25.1825   10.5536   55.7723 N   0  0  0  0  0  0  0  0  0  0  0  0
   22.6605    8.4830   54.0354 C   0  0  0  0  0  0  0  0  0  0  0  0
   22.0885    9.3500   53.3084 O   0  0  0  0  0  0  0  0  0  0  0  0
   22.2394    7.0955   54.0044 C   0  0  0  0  0  0  0  0  0  0  0  0
   22.8835    6.1861   54.8066 C   0  0  0  0  0  0  0  0  0  0  0  0
   22.3206    4.9608   54.6086 N   0  0  0  0  0  0  0  0  0  0  0  0
   21.3276    5.0649   53.6955 C   0  0  0  0  0  0  0  0  0  0  0  0
   20.4588    4.1358   53.1510 C   0  0  0  0  0  0  0  0  0  0  0  0
   19.5319    4.5378   52.2227 C   0  0  0  0  0  0  0  0  0  0  0  0
   19.4989    5.8686   51.8614 C   0  0  0  0  0  0  0  0  0  0  0  0
   20.3620    6.7953   52.4016 C   0  0  0  0  0  0  0  0  0  0  0  0
   21.2823    6.3934   53.3241 C   0  0  0  0  0  0  0  0  0  0  0  0
   23.9871    6.5130   55.7106 C   0  0  0  0  0  0  0  0  0  0  0  0
   25.1739    5.6296   55.3016 C   0  0  0  0  0  0  0  0  0  0  0  0
   23.5867    6.0248   57.1018 C   0  0  0  0  0  0  0  0  0  0  0  0
   22.5788    4.0656   55.0619 H   0  0  0  0  0  0  0  0  0  0  0  0
   29.0296   10.7077   59.3930 C   0  0  0  0  0  0  0  0  0  0  0  0
   27.5055   10.7297   59.6379 C   0  0  0  0  0  0  0  0  0  0  0  0
   26.7142   11.1101   58.4284 C   0  0  0  0  0  0  0  0  0  0  0  0
   26.8836   10.1001   57.4021 N   0  0  0  0  0  0  0  0  0  0  0  0
   28.2329    9.5596   57.2906 C   0  0  0  0  0  0  0  0  0  0  0  0
   29.1374   10.6184   57.8855 C   0  0  0  0  0  0  0  0  0  0  0  0
   29.4979    9.5758   60.0630 N   0  0  0  0  0  0  0  0  0  0  0  0
   30.6348    9.5157   60.8259 C   0  0  0  0  0  0  0  0  0  0  0  0
   31.4769    8.2961   60.5399 C   0  0  0  0  0  0  0  0  0  0  0  0
   30.7495    7.1493   60.3656 O   0  0  0  0  0  0  0  0  0  0  0  0
   29.7431    7.2983   59.4065 C   0  0  0  0  0  0  0  0  0  0  0  0
   28.8019    8.3575   59.9424 C   0  0  0  0  0  0  0  0  0  0  0  0
   31.1859   11.9708   59.7967 C   0  0  0  0  0  0  0  0  0  0  0  0
   29.6584   11.9675   59.8868 C   0  0  0  0  0  0  0  0  0  0  0  0
   29.2368   13.2505   59.2623 C   0  0  0  0  0  0  0  0  0  0  0  0
   18.6002    3.5851   51.6276 C   0  0  0  0  0  0  0  0  0  0  0  0
   17.8704    2.8174   51.1649 N   0  0  0  0  0  0  0  0  0  0  0  0
 34 35  1  0  0  0
 35 36  1  0  0  0
 35 22  1  0  0  0
 22 28  1  0  0  0
 28 29  1  0  0  0
 29 30  1  0  0  0
 30 31  1  0  0  0
 31 32  1  0  0  0
 32 33  1  0  0  0
 22 23  1  0  0  0
 23 24  1  0  0  0
 24 25  1  0  0  0
 25  1  1  0  0  0
  1  2  2  0  0  0
  2  3  1  0  0  0
  3  4  2  0  0  0
  4  5  1  0  0  0
  5  6  2  0  0  0
  4  7  1  0  0  0
  7  8  2  0  0  0
  7  9  1  0  0  0
  9 10  2  0  0  0
 10 11  1  0  0  0
 11 12  1  0  0  0
 12 13  2  0  0  0
 13 14  1  0  0  0
 14 37  1  0  0  0
 37 38  3  0  0  0
 14 15  2  0  0  0
 15 16  1  0  0  0
 16 17  2  0  0  0
 10 18  1  0  0  0
 18 19  1  0  0  0
 18 20  1  0  0  0
 25 26  1  0  0  0
 26 27  1  0  0  0
 27 22  1  0  0  0
 33 28  1  0  0  0
  6  1  1  0  0  0
 17  9  1  0  0  0
 18  3  1  0  0  0
 17 12  1  0  0  0
 11 21  1  0  0  0
M  END
> <minimizedAffinity>
82.47790

> <CNNscore>
0.2907336354

> <CNNaffinity>
5.9925498962

> <CNN_VS>
1.7422357798

> <CNNaffinity_variance>
1.2587051392

$$$$
[H]c1nc(N2C([H])([H])C([H])([H])C(N3C([H])([H])C([H])([H])OC([H])([H])C3([H])[H])(C([H])(C([H])([H])[H])C([H])([H])[H])C([H])([H])C2([H])[H])c([H])c2c1C(=O)c1c(n([H])c3c([H])c(C#N)c([H])c([H])c13)C2(C([H])([H])[H])C([H])([H])[H]


 38 43  0  0  0  0  0  0  0  0999 V2000
   26.5867   11.0238   57.3366 C   0  0  0  0  0  0  0  0  0  0  0  0
   26.5259    9.7404   56.8603 C   0  0  0  0  0  0  0  0  0  0  0  0
   25.4135    9.2757   56.1451 C   0  0  0  0  0  0  0  0  0  0  0  0
   24.3827   10.1552   55.9377 C   0  0  0  0  0  0  0  0  0  0  0  0
   24.4684   11.4466   56.4294 C   0  0  0  0  0  0  0  0  0  0  0  0
   25.5521   11.8509   57.1093 N   0  0  0  0  0  0  0  0  0  0  0  0
   23.2056    9.7251   55.2015 C   0  0  0  0  0  0  0  0  0  0  0  0
   22.2471   10.5314   55.0049 O   0  0  0  0  0  0  0  0  0  0  0  0
   23.1458    8.3661   54.6985 C   0  0  0  0  0  0  0  0  0  0  0  0
   24.2039    7.5226   54.9319 C   0  0  0  0  0  0  0  0  0  0  0  0
   23.9233    6.3126   54.3709 N   0  0  0  0  0  0  0  0  0  0  0  0
   22.7062    6.3619   53.7820 C   0  0  0  0  0  0  0  0  0  0  0  0
   21.9667    5.4216   53.0867 C   0  0  0  0  0  0  0  0  0  0  0  0
   20.7333    5.7614   52.5908 C   0  0  0  0  0  0  0  0  0  0  0  0
   20.2695    7.0426   52.8055 C   0  0  0  0  0  0  0  0  0  0  0  0
   21.0031    7.9802   53.4970 C   0  0  0  0  0  0  0  0  0  0  0  0
   22.2286    7.6401   53.9889 C   0  0  0  0  0  0  0  0  0  0  0  0
   25.4152    7.8946   55.6642 C   0  0  0  0  0  0  0  0  0  0  0  0
   26.5996    7.6489   54.7191 C   0  0  0  0  0  0  0  0  0  0  0  0
   25.5871    6.8787   56.7922 C   0  0  0  0  0  0  0  0  0  0  0  0
   24.5165    5.4631   54.3703 H   0  0  0  0  0  0  0  0  0  0  0  0
   29.9758   12.2651   59.8794 C   0  0  0  0  0  0  0  0  0  0  0  0
   28.4720   12.5285   60.1088 C   0  0  0  0  0  0  0  0  0  0  0  0
   27.7031   12.7270   58.8426 C   0  0  0  0  0  0  0  0  0  0  0  0
   27.7240   11.5022   58.0668 N   0  0  0  0  0  0  0  0  0  0  0  0
   28.9949   10.7883   58.0823 C   0  0  0  0  0  0  0  0  0  0  0  0
   30.0351   11.8325   58.4298 C   0  0  0  0  0  0  0  0  0  0  0  0
   30.3201   11.2603   60.7856 N   0  0  0  0  0  0  0  0  0  0  0  0
   31.5831   10.7675   60.9860 C   0  0  0  0  0  0  0  0  0  0  0  0
   31.6291    9.2599   61.0438 C   0  0  0  0  0  0  0  0  0  0  0  0
   30.5942    8.7008   61.7446 O   0  0  0  0  0  0  0  0  0  0  0  0
   29.3467    9.1463   61.2972 C   0  0  0  0  0  0  0  0  0  0  0  0
   29.3149   10.6393   61.5518 C   0  0  0  0  0  0  0  0  0  0  0  0
   29.9101   14.7847   60.1143 C   0  0  0  0  0  0  0  0  0  0  0  0
   30.7642   13.5155   60.0829 C   0  0  0  0  0  0  0  0  0  0  0  0
   31.6290   13.6079   61.2901 C   0  0  0  0  0  0  0  0  0  0  0  0
   19.9264    4.7951   51.8527 C   0  0  0  0  0  0  0  0  0  0  0  0
   19.2843    4.0418   51.2557 N   0  0  0  0  0  0  0  0  0  0  0  0
 34 35  1  0  0  0
 35 36  1  0  0  0
 35 22  1  0  0  0
 22 28  1  0  0  0
 28 29  1  0  0  0
 29 30  1  0  0  0
 30 31  1  0  0  0
 31 32  1  0  0  0
 32 33  1  0  0  0
 22 23  1  0  0  0
 23 24  1  0  0  0
 24 25  1  0  0  0
 25  1  1  0  0  0
  1  2  2  0  0  0
  2  3  1  0  0  0
  3  4  2  0  0  0
  4  5  1  0  0  0
  5  6  2  0  0  0
  4  7  1  0  0  0
  7  8  2  0  0  0
  7  9  1  0  0  0
  9 10  2  0  0  0
 10 11  1  0  0  0
 11 12  1  0  0  0
 12 13  2  0  0  0
 13 14  1  0  0  0
 14 37  1  0  0  0
 37 38  3  0  0  0
 14 15  2  0  0  0
 15 16  1  0  0  0
 16 17  2  0  0  0
 10 18  1  0  0  0
 18 19  1  0  0  0
 18 20  1  0  0  0
 25 26  1  0  0  0
 26 27  1  0  0  0
 27 22  1  0  0  0
 33 28  1  0  0  0
  6  1  1  0  0  0
 17  9  1  0  0  0
 18  3  1  0  0  0
 17 12  1  0  0  0
 11 21  1  0  0  0
M  END
> <minimizedAffinity>
62.04344

> <CNNscore>
0.2760836184

> <CNNaffinity>
6.0687303543

> <CNN_VS>
1.6754770279

> <CNNaffinity_variance>
1.2120873928

$$$$
[H]c1nc(N2C([H])([H])C([H])([H])C(N3C([H])([H])C([H])([H])OC([H])([H])C3([H])[H])(C([H])(C([H])([H])[H])C([H])([H])[H])C([H])([H])C2([H])[H])c([H])c2c1C(=O)c1c(n([H])c3c([H])c(C#N)c([H])c([H])c13)C2(C([H])([H])[H])C([H])([H])[H]


 38 43  0  0  0  0  0  0  0  0999 V2000
   25.1219    8.1248   55.1701 C   0  0  0  0  0  0  0  0  0  0  0  0
   23.8152    8.5360   55.1324 C   0  0  0  0  0  0  0  0  0  0  0  0
   22.7811    7.6606   54.7729 C   0  0  0  0  0  0  0  0  0  0  0  0
   23.1249    6.3714   54.4586 C   0  0  0  0  0  0  0  0  0  0  0  0
   24.4523    5.9807   54.5042 C   0  0  0  0  0  0  0  0  0  0  0  0
   25.4116    6.8513   54.8537 N   0  0  0  0  0  0  0  0  0  0  0  0
   22.0915    5.4221   54.0796 C   0  0  0  0  0  0  0  0  0  0  0  0
   22.3997    4.2276   53.7870 O   0  0  0  0  0  0  0  0  0  0  0  0
   20.7098    5.8614   54.0418 C   0  0  0  0  0  0  0  0  0  0  0  0
   20.4158    7.1631   54.3653 C   0  0  0  0  0  0  0  0  0  0  0  0
   19.0687    7.3407   54.2595 N   0  0  0  0  0  0  0  0  0  0  0  0
   18.4914    6.1792   53.8743 C   0  0  0  0  0  0  0  0  0  0  0  0
   17.1764    5.8274   53.6265 C   0  0  0  0  0  0  0  0  0  0  0  0
   16.8795    4.5448   53.2403 C   0  0  0  0  0  0  0  0  0  0  0  0
   17.9141    3.6417   53.1115 C   0  0  0  0  0  0  0  0  0  0  0  0
   19.2235    3.9889   53.3572 C   0  0  0  0  0  0  0  0  0  0  0  0
   19.5161    5.2643   53.7409 C   0  0  0  0  0  0  0  0  0  0  0  0
   21.4087    8.1653   54.7548 C   0  0  0  0  0  0  0  0  0  0  0  0
   21.0001    8.6808   56.1418 C   0  0  0  0  0  0  0  0  0  0  0  0
   21.2328    9.3588   53.8174 C   0  0  0  0  0  0  0  0  0  0  0  0
   18.5294    8.2076   54.4358 H   0  0  0  0  0  0  0  0  0  0  0  0
   28.3115   10.7785   56.6791 C   0  0  0  0  0  0  0  0  0  0  0  0
   26.7881   10.9115   56.8910 C   0  0  0  0  0  0  0  0  0  0  0  0
   25.9819   10.4420   55.7233 C   0  0  0  0  0  0  0  0  0  0  0  0
   26.1812    9.0176   55.5392 N   0  0  0  0  0  0  0  0  0  0  0  0
   27.5469    8.5564   55.7569 C   0  0  0  0  0  0  0  0  0  0  0  0
   28.4184    9.7771   55.5487 C   0  0  0  0  0  0  0  0  0  0  0  0
   28.8174   10.3166   57.8957 N   0  0  0  0  0  0  0  0  0  0  0  0
   28.7372    9.0272   58.3531 C   0  0  0  0  0  0  0  0  0  0  0  0
   28.3094    8.9361   59.7978 C   0  0  0  0  0  0  0  0  0  0  0  0
   28.8863    9.8783   60.6066 O   0  0  0  0  0  0  0  0  0  0  0  0
   28.7170   11.1765   60.1157 C   0  0  0  0  0  0  0  0  0  0  0  0
   29.4338   11.2208   58.7819 C   0  0  0  0  0  0  0  0  0  0  0  0
   29.6914   12.0290   54.9644 C   0  0  0  0  0  0  0  0  0  0  0  0
   28.9007   12.0879   56.2731 C   0  0  0  0  0  0  0  0  0  0  0  0
   27.9826   13.2476   56.1120 C   0  0  0  0  0  0  0  0  0  0  0  0
   15.5038    4.1390   52.9709 C   0  0  0  0  0  0  0  0  0  0  0  0
   14.4102    3.8206   52.7743 N   0  0  0  0  0  0  0  0  0  0  0  0
 34 35  1  0  0  0
 35 36  1  0  0  0
 35 22  1  0  0  0
 22 28  1  0  0  0
 28 29  1  0  0  0
 29 30  1  0  0  0
 30 31  1  0  0  0
 31 32  1  0  0  0
 32 33  1  0  0  0
 22 23  1  0  0  0
 23 24  1  0  0  0
 24 25  1  0  0  0
 25  1  1  0  0  0
  1  2  2  0  0  0
  2  3  1  0  0  0
  3  4  2  0  0  0
  4  5  1  0  0  0
  5  6  2  0  0  0
  4  7  1  0  0  0
  7  8  2  0  0  0
  7  9  1  0  0  0
  9 10  2  0  0  0
 10 11  1  0  0  0
 11 12  1  0  0  0
 12 13  2  0  0  0
 13 14  1  0  0  0
 14 37  1  0  0  0
 37 38  3  0  0  0
 14 15  2  0  0  0
 15 16  1  0  0  0
 16 17  2  0  0  0
 10 18  1  0  0  0
 18 19  1  0  0  0
 18 20  1  0  0  0
 25 26  1  0  0  0
 26 27  1  0  0  0
 27 22  1  0  0  0
 33 28  1  0  0  0
  6  1  1  0  0  0
 17  9  1  0  0  0
 18  3  1  0  0  0
 17 12  1  0  0  0
 11 21  1  0  0  0
M  END
> <minimizedAffinity>
59.74258

> <CNNscore>
0.2705732286

> <CNNaffinity>
6.6852197647

> <CNN_VS>
1.8088414669

> <CNNaffinity_variance>
1.2037886381

$$$$
[H]OC(=O)c1c([H])c([H])nc([H])c1N([H])C([H])([H])C1([H])c2c([H])c([H])c(Sc3sc([H])c([H])c3[H])c([H])c2OC([H])([H])C1([H])[H]


 29 32  0  0  0  0  0  0  0  0999 V2000
   20.7789    7.1288   52.6547 C   0  0  0  0  0  0  0  0  0  0  0  0
   20.4095    5.6724   52.4215 C   0  0  0  0  0  0  0  0  0  0  0  0
   20.6828    4.8688   53.6552 C   0  0  0  0  0  0  0  0  0  0  0  0
   21.9755    5.0904   54.1327 O   0  0  0  0  0  0  0  0  0  0  0  0
   22.7806    6.1387   53.6870 C   0  0  0  0  0  0  0  0  0  0  0  0
   24.1493    6.1474   53.9846 C   0  0  0  0  0  0  0  0  0  0  0  0
   24.9700    7.1730   53.5560 C   0  0  0  0  0  0  0  0  0  0  0  0
   24.3891    8.1877   52.8238 C   0  0  0  0  0  0  0  0  0  0  0  0
   23.0225    8.1852   52.5230 C   0  0  0  0  0  0  0  0  0  0  0  0
   22.2385    7.1589   52.9602 C   0  0  0  0  0  0  0  0  0  0  0  0
   19.9674    7.6195   53.8224 C   0  0  0  0  0  0  0  0  0  0  0  0
   20.0649    9.0634   54.0218 N   0  0  0  0  0  0  0  0  0  0  0  0
   19.2587    9.6517   53.7457 H   0  0  0  0  0  0  0  0  0  0  0  0
   21.9485   10.6409   53.8707 C   0  0  0  0  0  0  0  0  0  0  0  0
   23.1208   11.1306   54.4904 C   0  0  0  0  0  0  0  0  0  0  0  0
   23.5368   10.6887   55.7111 C   0  0  0  0  0  0  0  0  0  0  0  0
   22.8177    9.7647   56.3435 N   0  0  0  0  0  0  0  0  0  0  0  0
   21.7005    9.2657   55.8032 C   0  0  0  0  0  0  0  0  0  0  0  0
   21.2300    9.6866   54.5509 C   0  0  0  0  0  0  0  0  0  0  0  0
   21.5291   12.3606   52.2711 O   0  0  0  0  0  0  0  0  0  0  0  0
   21.5518   11.1787   52.6000 C   0  0  0  0  0  0  0  0  0  0  0  0
   21.1371   10.2743   51.5991 O   0  0  0  0  0  0  0  0  0  0  0  0
   20.1835   10.2330   51.2807 H   0  0  0  0  0  0  0  0  0  0  0  0
   26.6898    7.1101   53.9738 S   0  0  0  0  0  0  0  0  0  0  0  0
   27.1174    8.4003   55.1623 C   0  0  0  0  0  0  0  0  0  0  0  0
   28.3181    9.0551   55.2794 C   0  0  0  0  0  0  0  0  0  0  0  0
   28.4110    9.9882   56.2460 C   0  0  0  0  0  0  0  0  0  0  0  0
   27.3014   10.1990   57.0234 C   0  0  0  0  0  0  0  0  0  0  0  0
   26.1711    9.0986   56.3882 S   0  0  0  0  0  0  0  0  0  0  0  0
 20 21  2  0  0  0
 21 22  1  0  0  0
 21 14  1  0  0  0
 14 15  2  0  0  0
 15 16  1  0  0  0
 16 17  2  0  0  0
 17 18  1  0  0  0
 18 19  2  0  0  0
 19 12  1  0  0  0
 12 11  1  0  0  0
 11  1  1  0  0  0
  1  2  1  0  0  0
  2  3  1  0  0  0
  3  4  1  0  0  0
  4  5  1  0  0  0
  5  6  2  0  0  0
  6  7  1  0  0  0
  7 24  1  0  0  0
 24 25  1  0  0  0
 25 26  2  0  0  0
 26 27  1  0  0  0
 27 28  2  0  0  0
 28 29  1  0  0  0
  7  8  2  0  0  0
  8  9  1  0  0  0
  9 10  2  0  0  0
 19 14  1  0  0  0
 10  1  1  0  0  0
 10  5  1  0  0  0
 29 25  1  0  0  0
 22 23  1  0  0  0
 12 13  1  0  0  0
M  END
> <minimizedAffinity>
17.88289

> <CNNscore>
0.7229727507

> <CNNaffinity>
6.6232290268

> <CNN_VS>
4.7884140015

> <CNNaffinity_variance>
0.5087114573

$$$$
[H]OC(=O)c1c([H])c([H])nc([H])c1N([H])C([H])([H])C1([H])c2c([H])c([H])c(Sc3sc([H])c([H])c3[H])c([H])c2OC([H])([H])C1([H])[H]


 29 32  0  0  0  0  0  0  0  0999 V2000
   20.0231    8.4294   52.9714 C   0  0  0  0  0  0  0  0  0  0  0  0
   20.2684    9.0322   51.5972 C   0  0  0  0  0  0  0  0  0  0  0  0
   21.5419    8.4959   51.0203 C   0  0  0  0  0  0  0  0  0  0  0  0
   22.5999    8.6117   51.9234 O   0  0  0  0  0  0  0  0  0  0  0  0
   22.4168    8.9104   53.2736 C   0  0  0  0  0  0  0  0  0  0  0  0
   23.5104    9.2893   54.0627 C   0  0  0  0  0  0  0  0  0  0  0  0
   23.3580    9.5905   55.4025 C   0  0  0  0  0  0  0  0  0  0  0  0
   22.0873    9.5036   55.9326 C   0  0  0  0  0  0  0  0  0  0  0  0
   20.9905    9.1257   55.1499 C   0  0  0  0  0  0  0  0  0  0  0  0
   21.1731    8.8346   53.8306 C   0  0  0  0  0  0  0  0  0  0  0  0
   19.9662    6.9353   52.8058 C   0  0  0  0  0  0  0  0  0  0  0  0
   21.2823    6.3030   52.8514 N   0  0  0  0  0  0  0  0  0  0  0  0
   21.7069    5.9906   51.9602 H   0  0  0  0  0  0  0  0  0  0  0  0
   23.3299    5.8137   54.1272 C   0  0  0  0  0  0  0  0  0  0  0  0
   23.8829    5.5482   55.4007 C   0  0  0  0  0  0  0  0  0  0  0  0
   23.1283    5.5505   56.5360 C   0  0  0  0  0  0  0  0  0  0  0  0
   21.8264    5.8108   56.4461 N   0  0  0  0  0  0  0  0  0  0  0  0
   21.2504    6.0679   55.2666 C   0  0  0  0  0  0  0  0  0  0  0  0
   21.9820    6.0776   54.0703 C   0  0  0  0  0  0  0  0  0  0  0  0
   24.5368    4.8684   52.2991 O   0  0  0  0  0  0  0  0  0  0  0  0
   24.1921    5.8298   52.9793 C   0  0  0  0  0  0  0  0  0  0  0  0
   24.7167    7.0721   52.5632 O   0  0  0  0  0  0  0  0  0  0  0  0
   25.6964    7.2887   52.6394 H   0  0  0  0  0  0  0  0  0  0  0  0
   24.7904   10.0613   56.3313 S   0  0  0  0  0  0  0  0  0  0  0  0
   26.2817    9.2994   55.6564 C   0  0  0  0  0  0  0  0  0  0  0  0
   26.3859    8.5554   54.5075 C   0  0  0  0  0  0  0  0  0  0  0  0
   27.6080    8.0829   54.1968 C   0  0  0  0  0  0  0  0  0  0  0  0
   28.6346    8.3865   55.0535 C   0  0  0  0  0  0  0  0  0  0  0  0
   27.8708    9.3144   56.2567 S   0  0  0  0  0  0  0  0  0  0  0  0
 20 21  2  0  0  0
 21 22  1  0  0  0
 21 14  1  0  0  0
 14 15  2  0  0  0
 15 16  1  0  0  0
 16 17  2  0  0  0
 17 18  1  0  0  0
 18 19  2  0  0  0
 19 12  1  0  0  0
 12 11  1  0  0  0
 11  1  1  0  0  0
  1  2  1  0  0  0
  2  3  1  0  0  0
  3  4  1  0  0  0
  4  5  1  0  0  0
  5  6  2  0  0  0
  6  7  1  0  0  0
  7 24  1  0  0  0
 24 25  1  0  0  0
 25 26  2  0  0  0
 26 27  1  0  0  0
 27 28  2  0  0  0
 28 29  1  0  0  0
  7  8  2  0  0  0
  8  9  1  0  0  0
  9 10  2  0  0  0
 19 14  1  0  0  0
 10  1  1  0  0  0
 10  5  1  0  0  0
 29 25  1  0  0  0
 22 23  1  0  0  0
 12 13  1  0  0  0
M  END
> <minimizedAffinity>
17.37241

> <CNNscore>
0.6700943708

> <CNNaffinity>
6.3958301544

> <CNN_VS>
4.2858099937

> <CNNaffinity_variance>
0.5614939928

$$$$
[H]OC(=O)c1c([H])c([H])nc([H])c1N([H])C([H])([H])C1([H])c2c([H])c([H])c(Sc3sc([H])c([H])c3[H])c([H])c2OC([H])([H])C1([H])[H]


 29 32  0  0  0  0  0  0  0  0999 V2000
   21.4152   10.2302   54.4955 C   0  0  0  0  0  0  0  0  0  0  0  0
   21.3966   10.7304   53.0598 C   0  0  0  0  0  0  0  0  0  0  0  0
   21.8248    9.6381   52.1292 C   0  0  0  0  0  0  0  0  0  0  0  0
   23.0220    9.0534   52.5449 O   0  0  0  0  0  0  0  0  0  0  0  0
   23.5715    9.2646   53.8096 C   0  0  0  0  0  0  0  0  0  0  0  0
   24.8954    8.8887   54.0708 C   0  0  0  0  0  0  0  0  0  0  0  0
   25.4650    9.0859   55.3140 C   0  0  0  0  0  0  0  0  0  0  0  0
   24.6794    9.6673   56.2877 C   0  0  0  0  0  0  0  0  0  0  0  0
   23.3562   10.0452   56.0334 C   0  0  0  0  0  0  0  0  0  0  0  0
   22.8224    9.8374   54.7962 C   0  0  0  0  0  0  0  0  0  0  0  0
   20.4903    9.0464   54.5736 C   0  0  0  0  0  0  0  0  0  0  0  0
   21.0507    7.9301   55.3312 N   0  0  0  0  0  0  0  0  0  0  0  0
   20.7974    7.8404   56.3313 H   0  0  0  0  0  0  0  0  0  0  0  0
   21.7886    6.4722   53.4902 C   0  0  0  0  0  0  0  0  0  0  0  0
   22.7199    5.4961   53.0683 C   0  0  0  0  0  0  0  0  0  0  0  0
   23.7398    5.0710   53.8668 C   0  0  0  0  0  0  0  0  0  0  0  0
   23.8657    5.5901   55.0856 N   0  0  0  0  0  0  0  0  0  0  0  0
   23.0123    6.5161   55.5366 C   0  0  0  0  0  0  0  0  0  0  0  0
   21.9473    6.9866   54.7550 C   0  0  0  0  0  0  0  0  0  0  0  0
   19.5541    6.9401   52.7975 O   0  0  0  0  0  0  0  0  0  0  0  0
   20.7613    6.8980   52.5821 C   0  0  0  0  0  0  0  0  0  0  0  0
   21.1510    7.3197   51.2929 O   0  0  0  0  0  0  0  0  0  0  0  0
   20.9210    6.7917   50.4678 H   0  0  0  0  0  0  0  0  0  0  0  0
   27.1446    8.5831   55.5637 S   0  0  0  0  0  0  0  0  0  0  0  0
   27.8379    9.3465   57.0458 C   0  0  0  0  0  0  0  0  0  0  0  0
   28.1795    8.7206   58.2187 C   0  0  0  0  0  0  0  0  0  0  0  0
   28.6831    9.4955   59.1981 C   0  0  0  0  0  0  0  0  0  0  0  0
   28.8087   10.8355   58.9361 C   0  0  0  0  0  0  0  0  0  0  0  0
   28.2253   10.9733   57.3446 S   0  0  0  0  0  0  0  0  0  0  0  0
 20 21  2  0  0  0
 21 22  1  0  0  0
 21 14  1  0  0  0
 14 15  2  0  0  0
 15 16  1  0  0  0
 16 17  2  0  0  0
 17 18  1  0  0  0
 18 19  2  0  0  0
 19 12  1  0  0  0
 12 11  1  0  0  0
 11  1  1  0  0  0
  1  2  1  0  0  0
  2  3  1  0  0  0
  3  4  1  0  0  0
  4  5  1  0  0  0
  5  6  2  0  0  0
  6  7  1  0  0  0
  7 24  1  0  0  0
 24 25  1  0  0  0
 25 26  2  0  0  0
 26 27  1  0  0  0
 27 28  2  0  0  0
 28 29  1  0  0  0
  7  8  2  0  0  0
  8  9  1  0  0  0
  9 10  2  0  0  0
 19 14  1  0  0  0
 10  1  1  0  0  0
 10  5  1  0  0  0
 29 25  1  0  0  0
 22 23  1  0  0  0
 12 13  1  0  0  0
M  END
> <minimizedAffinity>
8.95961

> <CNNscore>
0.6564173698

> <CNNaffinity>
6.3742461205

> <CNN_VS>
4.1841659546

> <CNNaffinity_variance>
0.2025994509

$$$$
[H]OC(=O)c1c([H])c([H])nc([H])c1N([H])C([H])([H])C1([H])c2c([H])c([H])c(Sc3sc([H])c([H])c3[H])c([H])c2OC([H])([H])C1([H])[H]


 29 32  0  0  0  0  0  0  0  0999 V2000
   21.5925   10.1667   54.3080 C   0  0  0  0  0  0  0  0  0  0  0  0
   21.5426   10.2985   52.7940 C   0  0  0  0  0  0  0  0  0  0  0  0
   21.8886    8.9904   52.1524 C   0  0  0  0  0  0  0  0  0  0  0  0
   23.0740    8.4659   52.6698 O   0  0  0  0  0  0  0  0  0  0  0  0
   23.6784    8.9535   53.8286 C   0  0  0  0  0  0  0  0  0  0  0  0
   24.9935    8.5866   54.1415 C   0  0  0  0  0  0  0  0  0  0  0  0
   25.6165    9.0544   55.2825 C   0  0  0  0  0  0  0  0  0  0  0  0
   24.8932    9.8968   56.1013 C   0  0  0  0  0  0  0  0  0  0  0  0
   23.5791   10.2674   55.7946 C   0  0  0  0  0  0  0  0  0  0  0  0
   22.9915    9.7890   54.6612 C   0  0  0  0  0  0  0  0  0  0  0  0
   20.6209    9.0873   54.7000 C   0  0  0  0  0  0  0  0  0  0  0  0
   21.2718    7.8203   55.0243 N   0  0  0  0  0  0  0  0  0  0  0  0
   21.9949    7.8166   55.7655 H   0  0  0  0  0  0  0  0  0  0  0  0
   21.9102    5.6431   54.0695 C   0  0  0  0  0  0  0  0  0  0  0  0
   21.4836    4.5157   53.3313 C   0  0  0  0  0  0  0  0  0  0  0  0
   20.1979    4.3723   52.9012 C   0  0  0  0  0  0  0  0  0  0  0  0
   19.3119    5.3241   53.1837 N   0  0  0  0  0  0  0  0  0  0  0  0
   19.6612    6.4125   53.8783 C   0  0  0  0  0  0  0  0  0  0  0  0
   20.9698    6.6076   54.3431 C   0  0  0  0  0  0  0  0  0  0  0  0
   23.6659    5.7298   55.6826 O   0  0  0  0  0  0  0  0  0  0  0  0
   23.2716    5.7097   54.5208 C   0  0  0  0  0  0  0  0  0  0  0  0
   24.2903    5.7591   53.5455 O   0  0  0  0  0  0  0  0  0  0  0  0
   24.8550    6.5802   53.4064 H   0  0  0  0  0  0  0  0  0  0  0  0
   27.2809    8.5437   55.6066 S   0  0  0  0  0  0  0  0  0  0  0  0
   27.9244    9.3338   57.0972 C   0  0  0  0  0  0  0  0  0  0  0  0
   28.2469    8.7258   58.2849 C   0  0  0  0  0  0  0  0  0  0  0  0
   28.7131    9.5191   59.2682 C   0  0  0  0  0  0  0  0  0  0  0  0
   28.8232   10.8582   58.9949 C   0  0  0  0  0  0  0  0  0  0  0  0
   28.2776   10.9698   57.3881 S   0  0  0  0  0  0  0  0  0  0  0  0
 20 21  2  0  0  0
 21 22  1  0  0  0
 21 14  1  0  0  0
 14 15  2  0  0  0
 15 16  1  0  0  0
 16 17  2  0  0  0
 17 18  1  0  0  0
 18 19  2  0  0  0
 19 12  1  0  0  0
 12 11  1  0  0  0
 11  1  1  0  0  0
  1  2  1  0  0  0
  2  3  1  0  0  0
  3  4  1  0  0  0
  4  5  1  0  0  0
  5  6  2  0  0  0
  6  7  1  0  0  0
  7 24  1  0  0  0
 24 25  1  0  0  0
 25 26  2  0  0  0
 26 27  1  0  0  0
 27 28  2  0  0  0
 28 29  1  0  0  0
  7  8  2  0  0  0
  8  9  1  0  0  0
  9 10  2  0  0  0
 19 14  1  0  0  0
 10  1  1  0  0  0
 10  5  1  0  0  0
 29 25  1  0  0  0
 22 23  1  0  0  0
 12 13  1  0  0  0
M  END
> <minimizedAffinity>
14.38558

> <CNNscore>
0.6325497031

> <CNNaffinity>
6.5335426331

> <CNN_VS>
4.1327905655

> <CNNaffinity_variance>
0.1695327759

$$$$
[H]OC(=O)c1c([H])c([H])nc([H])c1N([H])C([H])([H])C1([H])c2c([H])c([H])c(Sc3sc([H])c([H])c3[H])c([H])c2OC([H])([H])C1([H])[H]


 29 32  0  0  0  0  0  0  0  0999 V2000
   19.8701    7.9303   53.0528 C   0  0  0  0  0  0  0  0  0  0  0  0
   19.8670    8.6599   51.7188 C   0  0  0  0  0  0  0  0  0  0  0  0
   21.1588    8.4222   50.9997 C   0  0  0  0  0  0  0  0  0  0  0  0
   22.2561    8.6816   51.8223 O   0  0  0  0  0  0  0  0  0  0  0  0
   22.1479    8.8479   53.2031 C   0  0  0  0  0  0  0  0  0  0  0  0
   23.2196    9.3794   53.9317 C   0  0  0  0  0  0  0  0  0  0  0  0
   23.1399    9.5548   55.2999 C   0  0  0  0  0  0  0  0  0  0  0  0
   21.9640    9.1864   55.9202 C   0  0  0  0  0  0  0  0  0  0  0  0
   20.8895    8.6549   55.1982 C   0  0  0  0  0  0  0  0  0  0  0  0
   20.9987    8.4938   53.8488 C   0  0  0  0  0  0  0  0  0  0  0  0
   20.0806    6.4684   52.7679 C   0  0  0  0  0  0  0  0  0  0  0  0
   20.9219    5.8060   53.7616 N   0  0  0  0  0  0  0  0  0  0  0  0
   20.4585    5.2711   54.5176 H   0  0  0  0  0  0  0  0  0  0  0  0
   23.1147    5.8439   54.8795 C   0  0  0  0  0  0  0  0  0  0  0  0
   24.5099    6.0051   54.7198 C   0  0  0  0  0  0  0  0  0  0  0  0
   25.0842    6.2011   53.4991 C   0  0  0  0  0  0  0  0  0  0  0  0
   24.3081    6.2430   52.4190 N   0  0  0  0  0  0  0  0  0  0  0  0
   22.9817    6.0973   52.5120 C   0  0  0  0  0  0  0  0  0  0  0  0
   22.3424    5.8934   53.7434 C   0  0  0  0  0  0  0  0  0  0  0  0
   21.6345    6.1753   56.7210 O   0  0  0  0  0  0  0  0  0  0  0  0
   22.5835    5.6052   56.1918 C   0  0  0  0  0  0  0  0  0  0  0  0
   23.1987    4.6126   56.9842 O   0  0  0  0  0  0  0  0  0  0  0  0
   23.7177    4.8409   57.8155 H   0  0  0  0  0  0  0  0  0  0  0  0
   24.5388   10.2330   56.1481 S   0  0  0  0  0  0  0  0  0  0  0  0
   26.0715    9.4494   55.6034 C   0  0  0  0  0  0  0  0  0  0  0  0
   26.2871    8.7790   54.4251 C   0  0  0  0  0  0  0  0  0  0  0  0
   27.5193    8.2722   54.2295 C   0  0  0  0  0  0  0  0  0  0  0  0
   28.4442    8.4709   55.2219 C   0  0  0  0  0  0  0  0  0  0  0  0
   27.5748    9.3515   56.3885 S   0  0  0  0  0  0  0  0  0  0  0  0
 20 21  2  0  0  0
 21 22  1  0  0  0
 21 14  1  0  0  0
 14 15  2  0  0  0
 15 16  1  0  0  0
 16 17  2  0  0  0
 17 18  1  0  0  0
 18 19  2  0  0  0
 19 12  1  0  0  0
 12 11  1  0  0  0
 11  1  1  0  0  0
  1  2  1  0  0  0
  2  3  1  0  0  0
  3  4  1  0  0  0
  4  5  1  0  0  0
  5  6  2  0  0  0
  6  7  1  0  0  0
  7 24  1  0  0  0
 24 25  1  0  0  0
 25 26  2  0  0  0
 26 27  1  0  0  0
 27 28  2  0  0  0
 28 29  1  0  0  0
  7  8  2  0  0  0
  8  9  1  0  0  0
  9 10  2  0  0  0
 19 14  1  0  0  0
 10  1  1  0  0  0
 10  5  1  0  0  0
 29 25  1  0  0  0
 22 23  1  0  0  0
 12 13  1  0  0  0
M  END
> <minimizedAffinity>
14.74113

> <CNNscore>
0.6310061812

> <CNNaffinity>
6.3386411667

> <CNN_VS>
3.9997217655

> <CNNaffinity_variance>
0.4770334661

$$$$
[H]OC(=O)c1c([H])c([H])nc([H])c1N([H])C([H])([H])C1([H])c2c([H])c([H])c(Sc3sc([H])c([H])c3[H])c([H])c2OC([H])([H])C1([H])[H]


 29 32  0  0  0  0  0  0  0  0999 V2000
   21.4173    9.8304   54.3596 C   0  0  0  0  0  0  0  0  0  0  0  0
   21.3361   10.2253   52.8935 C   0  0  0  0  0  0  0  0  0  0  0  0
   21.8253    9.1033   52.0309 C   0  0  0  0  0  0  0  0  0  0  0  0
   23.0693    8.6362   52.4579 O   0  0  0  0  0  0  0  0  0  0  0  0
   23.6251    8.9747   53.6917 C   0  0  0  0  0  0  0  0  0  0  0  0
   24.9774    8.7135   53.9473 C   0  0  0  0  0  0  0  0  0  0  0  0
   25.5539    9.0381   55.1602 C   0  0  0  0  0  0  0  0  0  0  0  0
   24.7461    9.6294   56.1095 C   0  0  0  0  0  0  0  0  0  0  0  0
   23.3945    9.8932   55.8608 C   0  0  0  0  0  0  0  0  0  0  0  0
   22.8546    9.5610   54.6537 C   0  0  0  0  0  0  0  0  0  0  0  0
   20.5825    8.5922   54.5410 C   0  0  0  0  0  0  0  0  0  0  0  0
   20.9255    7.5269   53.6021 N   0  0  0  0  0  0  0  0  0  0  0  0
   20.3045    7.3725   52.7880 H   0  0  0  0  0  0  0  0  0  0  0  0
   22.5136    6.2867   55.0162 C   0  0  0  0  0  0  0  0  0  0  0  0
   23.6863    5.4982   55.0493 C   0  0  0  0  0  0  0  0  0  0  0  0
   24.3503    5.1348   53.9156 C   0  0  0  0  0  0  0  0  0  0  0  0
   23.8818    5.5343   52.7359 N   0  0  0  0  0  0  0  0  0  0  0  0
   22.7768    6.2827   52.6460 C   0  0  0  0  0  0  0  0  0  0  0  0
   22.0576    6.6830   53.7814 C   0  0  0  0  0  0  0  0  0  0  0  0
   21.4487    7.7026   56.6141 O   0  0  0  0  0  0  0  0  0  0  0  0
   21.8466    6.6011   56.2481 C   0  0  0  0  0  0  0  0  0  0  0  0
   21.6084    5.5495   57.1586 O   0  0  0  0  0  0  0  0  0  0  0  0
   22.0807    5.4958   58.0455 H   0  0  0  0  0  0  0  0  0  0  0  0
   27.2699    8.6750   55.4047 S   0  0  0  0  0  0  0  0  0  0  0  0
   27.8783    9.4127   56.9362 C   0  0  0  0  0  0  0  0  0  0  0  0
   28.1585    8.7660   58.1141 C   0  0  0  0  0  0  0  0  0  0  0  0
   28.6048    9.5240   59.1338 C   0  0  0  0  0  0  0  0  0  0  0  0
   28.7385   10.8691   58.9039 C   0  0  0  0  0  0  0  0  0  0  0  0
   28.2418   11.0349   57.2859 S   0  0  0  0  0  0  0  0  0  0  0  0
 20 21  2  0  0  0
 21 22  1  0  0  0
 21 14  1  0  0  0
 14 15  2  0  0  0
 15 16  1  0  0  0
 16 17  2  0  0  0
 17 18  1  0  0  0
 18 19  2  0  0  0
 19 12  1  0  0  0
 12 11  1  0  0  0
 11  1  1  0  0  0
  1  2  1  0  0  0
  2  3  1  0  0  0
  3  4  1  0  0  0
  4  5  1  0  0  0
  5  6  2  0  0  0
  6  7  1  0  0  0
  7 24  1  0  0  0
 24 25  1  0  0  0
 25 26  2  0  0  0
 26 27  1  0  0  0
 27 28  2  0  0  0
 28 29  1  0  0  0
  7  8  2  0  0  0
  8  9  1  0  0  0
  9 10  2  0  0  0
 19 14  1  0  0  0
 10  1  1  0  0  0
 10  5  1  0  0  0
 29 25  1  0  0  0
 22 23  1  0  0  0
 12 13  1  0  0  0
M  END
> <minimizedAffinity>
8.71283

> <CNNscore>
0.6274926662

> <CNNaffinity>
6.4584898949

> <CNN_VS>
4.0526552200

> <CNNaffinity_variance>
0.0675090700

$$$$
[H]OC(=O)c1c([H])c([H])nc([H])c1N([H])C([H])([H])C1([H])c2c([H])c([H])c(Sc3sc([H])c([H])c3[H])c([H])c2OC([H])([H])C1([H])[H]


 29 32  0  0  0  0  0  0  0  0999 V2000
   20.3106    9.6388   52.2769 C   0  0  0  0  0  0  0  0  0  0  0  0
   20.2834   11.0770   51.7841 C   0  0  0  0  0  0  0  0  0  0  0  0
   21.6341   11.4705   51.2713 C   0  0  0  0  0  0  0  0  0  0  0  0
   22.6374   11.1720   52.1946 O   0  0  0  0  0  0  0  0  0  0  0  0
   22.4295   10.3520   53.3037 C   0  0  0  0  0  0  0  0  0  0  0  0
   23.3757   10.3150   54.3359 C   0  0  0  0  0  0  0  0  0  0  0  0
   23.1954    9.5120   55.4457 C   0  0  0  0  0  0  0  0  0  0  0  0
   22.0477    8.7483   55.4976 C   0  0  0  0  0  0  0  0  0  0  0  0
   21.0984    8.7805   54.4699 C   0  0  0  0  0  0  0  0  0  0  0  0
   21.3048    9.5832   53.3874 C   0  0  0  0  0  0  0  0  0  0  0  0
   20.7346    8.7733   51.1219 C   0  0  0  0  0  0  0  0  0  0  0  0
   21.6980    7.7428   51.5012 N   0  0  0  0  0  0  0  0  0  0  0  0
   22.6275    7.7492   51.0448 H   0  0  0  0  0  0  0  0  0  0  0  0
   22.3308    6.1851   53.2991 C   0  0  0  0  0  0  0  0  0  0  0  0
   21.9063    5.1342   54.1438 C   0  0  0  0  0  0  0  0  0  0  0  0
   20.6279    4.6609   54.1293 C   0  0  0  0  0  0  0  0  0  0  0  0
   19.7472    5.2040   53.2925 N   0  0  0  0  0  0  0  0  0  0  0  0
   20.0948    6.2002   52.4704 C   0  0  0  0  0  0  0  0  0  0  0  0
   21.3960    6.7226   52.4466 C   0  0  0  0  0  0  0  0  0  0  0  0
   24.2639    7.4033   52.6126 O   0  0  0  0  0  0  0  0  0  0  0  0
   23.6836    6.6565   53.3945 C   0  0  0  0  0  0  0  0  0  0  0  0
   24.4561    6.2319   54.4965 O   0  0  0  0  0  0  0  0  0  0  0  0
   25.2419    5.6127   54.3890 H   0  0  0  0  0  0  0  0  0  0  0  0
   24.4383    9.5220   56.7072 S   0  0  0  0  0  0  0  0  0  0  0  0
   26.0677    9.1634   56.0169 C   0  0  0  0  0  0  0  0  0  0  0  0
   26.3458    8.6068   54.7932 C   0  0  0  0  0  0  0  0  0  0  0  0
   27.6450    8.4297   54.4860 C   0  0  0  0  0  0  0  0  0  0  0  0
   28.5695    8.8201   55.4203 C   0  0  0  0  0  0  0  0  0  0  0  0
   27.6071    9.4174   56.6888 S   0  0  0  0  0  0  0  0  0  0  0  0
 20 21  2  0  0  0
 21 22  1  0  0  0
 21 14  1  0  0  0
 14 15  2  0  0  0
 15 16  1  0  0  0
 16 17  2  0  0  0
 17 18  1  0  0  0
 18 19  2  0  0  0
 19 12  1  0  0  0
 12 11  1  0  0  0
 11  1  1  0  0  0
  1  2  1  0  0  0
  2  3  1  0  0  0
  3  4  1  0  0  0
  4  5  1  0  0  0
  5  6  2  0  0  0
  6  7  1  0  0  0
  7 24  1  0  0  0
 24 25  1  0  0  0
 25 26  2  0  0  0
 26 27  1  0  0  0
 27 28  2  0  0  0
 28 29  1  0  0  0
  7  8  2  0  0  0
  8  9  1  0  0  0
  9 10  2  0  0  0
 19 14  1  0  0  0
 10  1  1  0  0  0
 10  5  1  0  0  0
 29 25  1  0  0  0
 22 23  1  0  0  0
 12 13  1  0  0  0
M  END
> <minimizedAffinity>
24.16461

> <CNNscore>
0.6175388098

> <CNNaffinity>
6.4535393715

> <CNN_VS>
3.9853110313

> <CNNaffinity_variance>
0.3258238137

$$$$
[H]OC(=O)c1c([H])c([H])nc([H])c1N([H])C([H])([H])C1([H])c2c([H])c([H])c(Sc3sc([H])c([H])c3[H])c([H])c2OC([H])([H])C1([H])[H]


 29 32  0  0  0  0  0  0  0  0999 V2000
   20.7817    9.7301   53.3980 C   0  0  0  0  0  0  0  0  0  0  0  0
   21.2003    9.6582   51.9380 C   0  0  0  0  0  0  0  0  0  0  0  0
   21.9618    8.3942   51.6832 C   0  0  0  0  0  0  0  0  0  0  0  0
   22.9904    8.2222   52.6109 O   0  0  0  0  0  0  0  0  0  0  0  0
   23.0915    8.9747   53.7811 C   0  0  0  0  0  0  0  0  0  0  0  0
   24.2785    8.9591   54.5247 C   0  0  0  0  0  0  0  0  0  0  0  0
   24.4063    9.6945   55.6873 C   0  0  0  0  0  0  0  0  0  0  0  0
   23.3197   10.4447   56.0872 C   0  0  0  0  0  0  0  0  0  0  0  0
   22.1310   10.4648   55.3491 C   0  0  0  0  0  0  0  0  0  0  0  0
   22.0356    9.7282   54.2058 C   0  0  0  0  0  0  0  0  0  0  0  0
   19.9443    8.5147   53.6885 C   0  0  0  0  0  0  0  0  0  0  0  0
   20.4473    7.7270   54.8112 N   0  0  0  0  0  0  0  0  0  0  0  0
   20.0422    7.8962   55.7490 H   0  0  0  0  0  0  0  0  0  0  0  0
   21.4595    5.7638   53.7245 C   0  0  0  0  0  0  0  0  0  0  0  0
   22.5284    4.8389   53.7344 C   0  0  0  0  0  0  0  0  0  0  0  0
   23.5514    4.9194   54.6318 C   0  0  0  0  0  0  0  0  0  0  0  0
   23.5468    5.9006   55.5307 N   0  0  0  0  0  0  0  0  0  0  0  0
   22.5600    6.8028   55.5675 C   0  0  0  0  0  0  0  0  0  0  0  0
   21.4855    6.7640   54.6671 C   0  0  0  0  0  0  0  0  0  0  0  0
   20.1203    6.4694   51.8804 O   0  0  0  0  0  0  0  0  0  0  0  0
   20.4347    5.6385   52.7268 C   0  0  0  0  0  0  0  0  0  0  0  0
   19.6899    4.4403   52.6902 O   0  0  0  0  0  0  0  0  0  0  0  0
   18.7140    4.4123   52.9336 H   0  0  0  0  0  0  0  0  0  0  0  0
   25.9399    9.6211   56.5698 S   0  0  0  0  0  0  0  0  0  0  0  0
   27.2307    8.8545   55.5667 C   0  0  0  0  0  0  0  0  0  0  0  0
   28.5517    8.6881   55.9008 C   0  0  0  0  0  0  0  0  0  0  0  0
   29.3388    8.0848   54.9898 C   0  0  0  0  0  0  0  0  0  0  0  0
   28.7515    7.6924   53.8146 C   0  0  0  0  0  0  0  0  0  0  0  0
   27.1324    8.1729   54.0137 S   0  0  0  0  0  0  0  0  0  0  0  0
 20 21  2  0  0  0
 21 22  1  0  0  0
 21 14  1  0  0  0
 14 15  2  0  0  0
 15 16  1  0  0  0
 16 17  2  0  0  0
 17 18  1  0  0  0
 18 19  2  0  0  0
 19 12  1  0  0  0
 12 11  1  0  0  0
 11  1  1  0  0  0
  1  2  1  0  0  0
  2  3  1  0  0  0
  3  4  1  0  0  0
  4  5  1  0  0  0
  5  6  2  0  0  0
  6  7  1  0  0  0
  7 24  1  0  0  0
 24 25  1  0  0  0
 25 26  2  0  0  0
 26 27  1  0  0  0
 27 28  2  0  0  0
 28 29  1  0  0  0
  7  8  2  0  0  0
  8  9  1  0  0  0
  9 10  2  0  0  0
 19 14  1  0  0  0
 10  1  1  0  0  0
 10  5  1  0  0  0
 29 25  1  0  0  0
 22 23  1  0  0  0
 12 13  1  0  0  0
M  END
> <minimizedAffinity>
19.29572

> <CNNscore>
0.6123712063

> <CNNaffinity>
6.3076620102

> <CNN_VS>
3.8626306057

> <CNNaffinity_variance>
0.1601485461

$$$$
[H]OC(=O)c1c([H])c([H])nc([H])c1N([H])C([H])([H])C1([H])c2c([H])c([H])c(Sc3sc([H])c([H])c3[H])c([H])c2OC([H])([H])C1([H])[H]


 29 32  0  0  0  0  0  0  0  0999 V2000
   20.4558    7.0111   52.8452 C   0  0  0  0  0  0  0  0  0  0  0  0
   20.3176    5.5839   52.3393 C   0  0  0  0  0  0  0  0  0  0  0  0
   21.0219    4.6401   53.2642 C   0  0  0  0  0  0  0  0  0  0  0  0
   22.3273    5.0600   53.5250 O   0  0  0  0  0  0  0  0  0  0  0  0
   22.7939    6.3344   53.2026 C   0  0  0  0  0  0  0  0  0  0  0  0
   24.1681    6.6048   53.2259 C   0  0  0  0  0  0  0  0  0  0  0  0
   24.6580    7.8578   52.9114 C   0  0  0  0  0  0  0  0  0  0  0  0
   23.7413    8.8319   52.5736 C   0  0  0  0  0  0  0  0  0  0  0  0
   22.3672    8.5685   52.5483 C   0  0  0  0  0  0  0  0  0  0  0  0
   21.9146    7.3217   52.8639 C   0  0  0  0  0  0  0  0  0  0  0  0
   19.8707    7.0583   54.2303 C   0  0  0  0  0  0  0  0  0  0  0  0
   19.8907    8.3965   54.8157 N   0  0  0  0  0  0  0  0  0  0  0  0
   18.9854    8.8619   55.0054 H   0  0  0  0  0  0  0  0  0  0  0  0
   22.1476    8.5193   55.7909 C   0  0  0  0  0  0  0  0  0  0  0  0
   23.2647    9.3417   56.0625 C   0  0  0  0  0  0  0  0  0  0  0  0
   23.3208   10.6455   55.6682 C   0  0  0  0  0  0  0  0  0  0  0  0
   22.2906   11.1650   55.0052 N   0  0  0  0  0  0  0  0  0  0  0  0
   21.2078   10.4327   54.7221 C   0  0  0  0  0  0  0  0  0  0  0  0
   21.1007    9.0880   55.1052 C   0  0  0  0  0  0  0  0  0  0  0  0
   22.9410    6.2695   55.8182 O   0  0  0  0  0  0  0  0  0  0  0  0
   22.1732    7.1449   56.2052 C   0  0  0  0  0  0  0  0  0  0  0  0
   21.2237    6.7240   57.1607 O   0  0  0  0  0  0  0  0  0  0  0  0
   20.4807    6.0865   56.9280 H   0  0  0  0  0  0  0  0  0  0  0  0
   26.4088    8.1187   52.9644 S   0  0  0  0  0  0  0  0  0  0  0  0
   26.9420    8.6163   54.6161 C   0  0  0  0  0  0  0  0  0  0  0  0
   26.1426    8.8971   55.6961 C   0  0  0  0  0  0  0  0  0  0  0  0
   26.7634    9.2509   56.8375 C   0  0  0  0  0  0  0  0  0  0  0  0
   28.1336    9.2984   56.8178 C   0  0  0  0  0  0  0  0  0  0  0  0
   28.5118    8.8520   55.2210 S   0  0  0  0  0  0  0  0  0  0  0  0
 20 21  2  0  0  0
 21 22  1  0  0  0
 21 14  1  0  0  0
 14 15  2  0  0  0
 15 16  1  0  0  0
 16 17  2  0  0  0
 17 18  1  0  0  0
 18 19  2  0  0  0
 19 12  1  0  0  0
 12 11  1  0  0  0
 11  1  1  0  0  0
  1  2  1  0  0  0
  2  3  1  0  0  0
  3  4  1  0  0  0
  4  5  1  0  0  0
  5  6  2  0  0  0
  6  7  1  0  0  0
  7 24  1  0  0  0
 24 25  1  0  0  0
 25 26  2  0  0  0
 26 27  1  0  0  0
 27 28  2  0  0  0
 28 29  1  0  0  0
  7  8  2  0  0  0
  8  9  1  0  0  0
  9 10  2  0  0  0
 19 14  1  0  0  0
 10  1  1  0  0  0
 10  5  1  0  0  0
 29 25  1  0  0  0
 22 23  1  0  0  0
 12 13  1  0  0  0
M  END
> <minimizedAffinity>
16.36844

> <CNNscore>
0.6065206528

> <CNNaffinity>
6.3011560440

> <CNN_VS>
3.8217811584

> <CNNaffinity_variance>
0.3804509044

$$$$
[H]N=c1c(C(=O)N([H])C([H])([H])c2oc([H])c([H])c2[H])c([H])c2c(=O)n3c([H])c([H])c([H])c([H])c3nc2n1C([H])([H])c1c([H])c([H])c(C([H])([H])[H])c([H])c1[H]


 35 39  0  0  0  0  0  0  0  0999 V2000
   22.4821    8.4397   54.5679 N   0  0  0  0  0  0  0  0  0  0  0  0
   22.0675    7.1441   54.5673 C   0  0  0  0  0  0  0  0  0  0  0  0
   22.5440    6.4095   55.4624 N   0  0  0  0  0  0  0  0  0  0  0  0
   21.2286    6.6078   53.6253 C   0  0  0  0  0  0  0  0  0  0  0  0
   20.7922    7.4673   52.6116 C   0  0  0  0  0  0  0  0  0  0  0  0
   21.1863    8.7644   52.5779 C   0  0  0  0  0  0  0  0  0  0  0  0
   20.7587    9.5858   51.5653 C   0  0  0  0  0  0  0  0  0  0  0  0
   19.9894    9.1714   50.6643 O   0  0  0  0  0  0  0  0  0  0  0  0
   21.1620   10.8657   51.5206 N   0  0  0  0  0  0  0  0  0  0  0  0
   20.7503   11.6849   50.5318 C   0  0  0  0  0  0  0  0  0  0  0  0
   21.1305   12.9893   50.4423 C   0  0  0  0  0  0  0  0  0  0  0  0
   21.9829   13.5106   51.4105 C   0  0  0  0  0  0  0  0  0  0  0  0
   22.3832   12.6488   52.4038 C   0  0  0  0  0  0  0  0  0  0  0  0
   21.9879   11.3309   52.4784 C   0  0  0  0  0  0  0  0  0  0  0  0
   22.3940   10.5124   53.4603 N   0  0  0  0  0  0  0  0  0  0  0  0
   22.0327    9.2200   53.5729 C   0  0  0  0  0  0  0  0  0  0  0  0
   22.4358    5.4560   55.7071 H   0  0  0  0  0  0  0  0  0  0  0  0
   20.6634    5.2836   53.6059 C   0  0  0  0  0  0  0  0  0  0  0  0
   21.5366    4.3241   53.5784 O   0  0  0  0  0  0  0  0  0  0  0  0
   19.3035    4.9264   53.6059 N   0  0  0  0  0  0  0  0  0  0  0  0
   18.5774    5.6551   53.5882 H   0  0  0  0  0  0  0  0  0  0  0  0
   18.8724    3.5332   53.5942 C   0  0  0  0  0  0  0  0  0  0  0  0
   17.4086    3.4053   53.5736 C   0  0  0  0  0  0  0  0  0  0  0  0
   16.6700    2.4332   52.9554 C   0  0  0  0  0  0  0  0  0  0  0  0
   15.3168    2.7095   53.2002 C   0  0  0  0  0  0  0  0  0  0  0  0
   15.3304    3.8499   53.9632 C   0  0  0  0  0  0  0  0  0  0  0  0
   16.5607    4.2184   54.1553 O   0  0  0  0  0  0  0  0  0  0  0  0
   23.3913    8.9384   55.5588 C   0  0  0  0  0  0  0  0  0  0  0  0
   29.1188    8.5437   54.7140 C   0  0  0  0  0  0  0  0  0  0  0  0
   27.6390    8.6224   54.8648 C   0  0  0  0  0  0  0  0  0  0  0  0
   26.7593    8.1478   53.9492 C   0  0  0  0  0  0  0  0  0  0  0  0
   25.3707    8.2517   54.1545 C   0  0  0  0  0  0  0  0  0  0  0  0
   24.8321    8.8282   55.2717 C   0  0  0  0  0  0  0  0  0  0  0  0
   25.7692    9.3071   56.1971 C   0  0  0  0  0  0  0  0  0  0  0  0
   27.1403    9.2077   55.9996 C   0  0  0  0  0  0  0  0  0  0  0  0
 29 30  1  0  0  0
 30 31  2  0  0  0
 31 32  1  0  0  0
 32 33  2  0  0  0
 33 28  1  0  0  0
 28  1  1  0  0  0
  1  2  1  0  0  0
  2  3  2  0  0  0
  2  4  1  0  0  0
  4 18  1  0  0  0
 18 19  2  0  0  0
 18 20  1  0  0  0
 20 22  1  0  0  0
 22 23  1  0  0  0
 23 24  2  0  0  0
 24 25  1  0  0  0
 25 26  2  0  0  0
 26 27  1  0  0  0
  4  5  2  0  0  0
  5  6  1  0  0  0
  6  7  1  0  0  0
  7  8  2  0  0  0
  7  9  1  0  0  0
  9 10  1  0  0  0
 10 11  2  0  0  0
 11 12  1  0  0  0
 12 13  2  0  0  0
 13 14  1  0  0  0
 14 15  2  0  0  0
 15 16  1  0  0  0
 33 34  1  0  0  0
 34 35  2  0  0  0
 35 30  1  0  0  0
 16  1  1  0  0  0
 27 23  1  0  0  0
 16  6  2  0  0  0
 14  9  1  0  0  0
  3 17  1  0  0  0
 20 21  1  0  0  0
M  END
> <minimizedAffinity>
24.34935

> <CNNscore>
0.5793997049

> <CNNaffinity>
6.6869444847

> <CNN_VS>
3.8744137287

> <CNNaffinity_variance>
0.2715812027

$$$$
[H]N=c1c(C(=O)N([H])C([H])([H])c2oc([H])c([H])c2[H])c([H])c2c(=O)n3c([H])c([H])c([H])c([H])c3nc2n1C([H])([H])c1c([H])c([H])c(C([H])([H])[H])c([H])c1[H]


 35 39  0  0  0  0  0  0  0  0999 V2000
   22.3158    8.3091   54.5906 N   0  0  0  0  0  0  0  0  0  0  0  0
   21.8645    7.0262   54.6225 C   0  0  0  0  0  0  0  0  0  0  0  0
   22.3150    6.3031   55.5401 N   0  0  0  0  0  0  0  0  0  0  0  0
   21.0159    6.4883   53.6900 C   0  0  0  0  0  0  0  0  0  0  0  0
   20.6098    7.3319   52.6506 C   0  0  0  0  0  0  0  0  0  0  0  0
   21.0407    8.6159   52.5843 C   0  0  0  0  0  0  0  0  0  0  0  0
   20.6423    9.4212   51.5471 C   0  0  0  0  0  0  0  0  0  0  0  0
   19.8665    9.0042   50.6529 O   0  0  0  0  0  0  0  0  0  0  0  0
   21.0820   10.6875   51.4703 N   0  0  0  0  0  0  0  0  0  0  0  0
   20.6992   11.4907   50.4571 C   0  0  0  0  0  0  0  0  0  0  0  0
   21.1168   12.7810   50.3347 C   0  0  0  0  0  0  0  0  0  0  0  0
   21.9783   13.3042   51.2938 C   0  0  0  0  0  0  0  0  0  0  0  0
   22.3484   12.4588   52.3126 C   0  0  0  0  0  0  0  0  0  0  0  0
   21.9155   11.1551   52.4204 C   0  0  0  0  0  0  0  0  0  0  0  0
   22.2927   10.3526   53.4266 N   0  0  0  0  0  0  0  0  0  0  0  0
   21.8942    9.0744   53.5719 C   0  0  0  0  0  0  0  0  0  0  0  0
   22.1784    5.3602   55.8098 H   0  0  0  0  0  0  0  0  0  0  0  0
   20.4135    5.1806   53.7029 C   0  0  0  0  0  0  0  0  0  0  0  0
   21.2579    4.1978   53.7731 O   0  0  0  0  0  0  0  0  0  0  0  0
   19.0457    4.8607   53.6418 N   0  0  0  0  0  0  0  0  0  0  0  0
   18.3438    5.6069   53.5464 H   0  0  0  0  0  0  0  0  0  0  0  0
   18.5745    3.4809   53.6736 C   0  0  0  0  0  0  0  0  0  0  0  0
   19.5977    2.5341   53.2087 C   0  0  0  0  0  0  0  0  0  0  0  0
   20.1469    1.4960   53.9111 C   0  0  0  0  0  0  0  0  0  0  0  0
   21.0786    0.8643   53.0742 C   0  0  0  0  0  0  0  0  0  0  0  0
   21.0278    1.5765   51.9025 C   0  0  0  0  0  0  0  0  0  0  0  0
   20.1585    2.5335   52.0238 O   0  0  0  0  0  0  0  0  0  0  0  0
   23.2332    8.8088   55.5733 C   0  0  0  0  0  0  0  0  0  0  0  0
   28.9501    8.5666   54.6078 C   0  0  0  0  0  0  0  0  0  0  0  0
   27.4722    8.6061   54.7897 C   0  0  0  0  0  0  0  0  0  0  0  0
   26.5862    8.1129   53.8903 C   0  0  0  0  0  0  0  0  0  0  0  0
   25.1999    8.1798   54.1249 C   0  0  0  0  0  0  0  0  0  0  0  0
   24.6701    8.7373   55.2558 C   0  0  0  0  0  0  0  0  0  0  0  0
   25.6136    9.2364   56.1639 C   0  0  0  0  0  0  0  0  0  0  0  0
   26.9824    9.1735   55.9375 C   0  0  0  0  0  0  0  0  0  0  0  0
 29 30  1  0  0  0
 30 31  2  0  0  0
 31 32  1  0  0  0
 32 33  2  0  0  0
 33 28  1  0  0  0
 28  1  1  0  0  0
  1  2  1  0  0  0
  2  3  2  0  0  0
  2  4  1  0  0  0
  4 18  1  0  0  0
 18 19  2  0  0  0
 18 20  1  0  0  0
 20 22  1  0  0  0
 22 23  1  0  0  0
 23 24  2  0  0  0
 24 25  1  0  0  0
 25 26  2  0  0  0
 26 27  1  0  0  0
  4  5  2  0  0  0
  5  6  1  0  0  0
  6  7  1  0  0  0
  7  8  2  0  0  0
  7  9  1  0  0  0
  9 10  1  0  0  0
 10 11  2  0  0  0
 11 12  1  0  0  0
 12 13  2  0  0  0
 13 14  1  0  0  0
 14 15  2  0  0  0
 15 16  1  0  0  0
 33 34  1  0  0  0
 34 35  2  0  0  0
 35 30  1  0  0  0
 16  1  1  0  0  0
 27 23  1  0  0  0
 16  6  2  0  0  0
 14  9  1  0  0  0
  3 17  1  0  0  0
 20 21  1  0  0  0
M  END
> <minimizedAffinity>
34.78072

> <CNNscore>
0.5654166341

> <CNNaffinity>
6.6135482788

> <CNN_VS>
3.7394101620

> <CNNaffinity_variance>
0.2430667132

$$$$
[H]N=c1c(C(=O)N([H])C([H])([H])c2oc([H])c([H])c2[H])c([H])c2c(=O)n3c([H])c([H])c([H])c([H])c3nc2n1C([H])([H])c1c([H])c([H])c(C([H])([H])[H])c([H])c1[H]


 35 39  0  0  0  0  0  0  0  0999 V2000
   21.8639    8.4819   54.3743 N   0  0  0  0  0  0  0  0  0  0  0  0
   20.8992    7.5837   54.0381 C   0  0  0  0  0  0  0  0  0  0  0  0
   19.7146    7.9647   54.1776 N   0  0  0  0  0  0  0  0  0  0  0  0
   21.1549    6.3013   53.6273 C   0  0  0  0  0  0  0  0  0  0  0  0
   22.4991    5.9189   53.5643 C   0  0  0  0  0  0  0  0  0  0  0  0
   23.4881    6.7860   53.8940 C   0  0  0  0  0  0  0  0  0  0  0  0
   24.7993    6.3848   53.8401 C   0  0  0  0  0  0  0  0  0  0  0  0
   25.1169    5.2270   53.4741 O   0  0  0  0  0  0  0  0  0  0  0  0
   25.7789    7.2365   54.1831 N   0  0  0  0  0  0  0  0  0  0  0  0
   27.0718    6.8566   54.1353 C   0  0  0  0  0  0  0  0  0  0  0  0
   28.1007    7.6823   54.4724 C   0  0  0  0  0  0  0  0  0  0  0  0
   27.8156    8.9796   54.8868 C   0  0  0  0  0  0  0  0  0  0  0  0
   26.4879    9.3339   54.9239 C   0  0  0  0  0  0  0  0  0  0  0  0
   25.4594    8.4845   54.5788 C   0  0  0  0  0  0  0  0  0  0  0  0
   24.1720    8.8578   54.6239 N   0  0  0  0  0  0  0  0  0  0  0  0
   23.1362    8.0624   54.2953 C   0  0  0  0  0  0  0  0  0  0  0  0
   18.8297    7.5481   54.0225 H   0  0  0  0  0  0  0  0  0  0  0  0
   20.2065    5.3243   53.1594 C   0  0  0  0  0  0  0  0  0  0  0  0
   19.5191    5.6924   52.1222 O   0  0  0  0  0  0  0  0  0  0  0  0
   19.9455    4.0505   53.6947 N   0  0  0  0  0  0  0  0  0  0  0  0
   20.4396    3.7334   54.5395 H   0  0  0  0  0  0  0  0  0  0  0  0
   18.9551    3.1556   53.1073 C   0  0  0  0  0  0  0  0  0  0  0  0
   17.5865    3.4929   53.5227 C   0  0  0  0  0  0  0  0  0  0  0  0
   16.4281    2.8700   53.1449 C   0  0  0  0  0  0  0  0  0  0  0  0
   15.3662    3.5266   53.7841 C   0  0  0  0  0  0  0  0  0  0  0  0
   15.9661    4.5190   54.5176 C   0  0  0  0  0  0  0  0  0  0  0  0
   17.2509    4.4636   54.3373 O   0  0  0  0  0  0  0  0  0  0  0  0
   21.5370    9.8007   54.8338 C   0  0  0  0  0  0  0  0  0  0  0  0
   21.1965   13.8040   50.6467 C   0  0  0  0  0  0  0  0  0  0  0  0
   21.2790   12.8282   51.7692 C   0  0  0  0  0  0  0  0  0  0  0  0
   21.0782   13.1529   53.0697 C   0  0  0  0  0  0  0  0  0  0  0  0
   21.1686   12.1803   54.0833 C   0  0  0  0  0  0  0  0  0  0  0  0
   21.4597   10.8696   53.8229 C   0  0  0  0  0  0  0  0  0  0  0  0
   21.6605   10.5688   52.4689 C   0  0  0  0  0  0  0  0  0  0  0  0
   21.5730   11.5243   51.4649 C   0  0  0  0  0  0  0  0  0  0  0  0
 29 30  1  0  0  0
 30 31  2  0  0  0
 31 32  1  0  0  0
 32 33  2  0  0  0
 33 28  1  0  0  0
 28  1  1  0  0  0
  1  2  1  0  0  0
  2  3  2  0  0  0
  2  4  1  0  0  0
  4 18  1  0  0  0
 18 19  2  0  0  0
 18 20  1  0  0  0
 20 22  1  0  0  0
 22 23  1  0  0  0
 23 24  2  0  0  0
 24 25  1  0  0  0
 25 26  2  0  0  0
 26 27  1  0  0  0
  4  5  2  0  0  0
  5  6  1  0  0  0
  6  7  1  0  0  0
  7  8  2  0  0  0
  7  9  1  0  0  0
  9 10  1  0  0  0
 10 11  2  0  0  0
 11 12  1  0  0  0
 12 13  2  0  0  0
 13 14  1  0  0  0
 14 15  2  0  0  0
 15 16  1  0  0  0
 33 34  1  0  0  0
 34 35  2  0  0  0
 35 30  1  0  0  0
 16  1  1  0  0  0
 27 23  1  0  0  0
 16  6  2  0  0  0
 14  9  1  0  0  0
  3 17  1  0  0  0
 20 21  1  0  0  0
M  END
> <minimizedAffinity>
27.22926

> <CNNscore>
0.4871218204

> <CNNaffinity>
6.6643762589

> <CNN_VS>
3.2463631630

> <CNNaffinity_variance>
0.2541173398

$$$$
[H]N=c1c(C(=O)N([H])C([H])([H])c2oc([H])c([H])c2[H])c([H])c2c(=O)n3c([H])c([H])c([H])c([H])c3nc2n1C([H])([H])c1c([H])c([H])c(C([H])([H])[H])c([H])c1[H]


 35 39  0  0  0  0  0  0  0  0999 V2000
   26.8238    8.2608   54.9255 N   0  0  0  0  0  0  0  0  0  0  0  0
   27.6193    8.8273   53.9786 C   0  0  0  0  0  0  0  0  0  0  0  0
   28.7933    9.0898   54.3260 N   0  0  0  0  0  0  0  0  0  0  0  0
   27.1911    9.1707   52.7226 C   0  0  0  0  0  0  0  0  0  0  0  0
   25.8479    8.9162   52.4262 C   0  0  0  0  0  0  0  0  0  0  0  0
   25.0240    8.3549   53.3454 C   0  0  0  0  0  0  0  0  0  0  0  0
   23.7058    8.1286   53.0387 C   0  0  0  0  0  0  0  0  0  0  0  0
   23.2358    8.4148   51.9106 O   0  0  0  0  0  0  0  0  0  0  0  0
   22.8844    7.5891   53.9536 N   0  0  0  0  0  0  0  0  0  0  0  0
   21.5868    7.3609   53.6668 C   0  0  0  0  0  0  0  0  0  0  0  0
   20.7143    6.8164   54.5592 C   0  0  0  0  0  0  0  0  0  0  0  0
   21.1728    6.4764   55.8281 C   0  0  0  0  0  0  0  0  0  0  0  0
   22.5002    6.7222   56.0870 C   0  0  0  0  0  0  0  0  0  0  0  0
   23.3690    7.2742   55.1710 C   0  0  0  0  0  0  0  0  0  0  0  0
   24.6606    7.5024   55.4511 N   0  0  0  0  0  0  0  0  0  0  0  0
   25.5442    8.0382   54.5877 C   0  0  0  0  0  0  0  0  0  0  0  0
   29.5767    9.4918   53.8729 H   0  0  0  0  0  0  0  0  0  0  0  0
   27.9845    9.6776   51.6332 C   0  0  0  0  0  0  0  0  0  0  0  0
   28.9646   10.4486   51.9921 O   0  0  0  0  0  0  0  0  0  0  0  0
   27.8127    9.4404   50.2580 N   0  0  0  0  0  0  0  0  0  0  0  0
   27.0256    8.8667   49.9265 H   0  0  0  0  0  0  0  0  0  0  0  0
   28.7052   10.0166   49.2589 C   0  0  0  0  0  0  0  0  0  0  0  0
   28.8564    9.1485   48.0829 C   0  0  0  0  0  0  0  0  0  0  0  0
   28.5603    9.4551   46.7825 C   0  0  0  0  0  0  0  0  0  0  0  0
   28.8617    8.3289   46.0027 C   0  0  0  0  0  0  0  0  0  0  0  0
   29.3276    7.4022   46.9010 C   0  0  0  0  0  0  0  0  0  0  0  0
   29.3075    7.9177   48.0927 O   0  0  0  0  0  0  0  0  0  0  0  0
   27.3161    7.9559   56.2377 C   0  0  0  0  0  0  0  0  0  0  0  0
   28.9790   12.2410   59.7799 C   0  0  0  0  0  0  0  0  0  0  0  0
   28.5215   11.1893   58.8293 C   0  0  0  0  0  0  0  0  0  0  0  0
   27.9537   11.4521   57.6269 C   0  0  0  0  0  0  0  0  0  0  0  0
   27.5453   10.4099   56.7735 C   0  0  0  0  0  0  0  0  0  0  0  0
   27.6935    9.0899   57.0993 C   0  0  0  0  0  0  0  0  0  0  0  0
   28.2842    8.8544   58.3481 C   0  0  0  0  0  0  0  0  0  0  0  0
   28.6887    9.8786   59.1943 C   0  0  0  0  0  0  0  0  0  0  0  0
 29 30  1  0  0  0
 30 31  2  0  0  0
 31 32  1  0  0  0
 32 33  2  0  0  0
 33 28  1  0  0  0
 28  1  1  0  0  0
  1  2  1  0  0  0
  2  3  2  0  0  0
  2  4  1  0  0  0
  4 18  1  0  0  0
 18 19  2  0  0  0
 18 20  1  0  0  0
 20 22  1  0  0  0
 22 23  1  0  0  0
 23 24  2  0  0  0
 24 25  1  0  0  0
 25 26  2  0  0  0
 26 27  1  0  0  0
  4  5  2  0  0  0
  5  6  1  0  0  0
  6  7  1  0  0  0
  7  8  2  0  0  0
  7  9  1  0  0  0
  9 10  1  0  0  0
 10 11  2  0  0  0
 11 12  1  0  0  0
 12 13  2  0  0  0
 13 14  1  0  0  0
 14 15  2  0  0  0
 15 16  1  0  0  0
 33 34  1  0  0  0
 34 35  2  0  0  0
 35 30  1  0  0  0
 16  1  1  0  0  0
 27 23  1  0  0  0
 16  6  2  0  0  0
 14  9  1  0  0  0
  3 17  1  0  0  0
 20 21  1  0  0  0
M  END
> <minimizedAffinity>
29.99172

> <CNNscore>
0.4866390526

> <CNNaffinity>
6.1205587387

> <CNN_VS>
2.9785029888

> <CNNaffinity_variance>
0.0898185372

$$$$
[H]N=c1c(C(=O)N([H])C([H])([H])c2oc([H])c([H])c2[H])c([H])c2c(=O)n3c([H])c([H])c([H])c([H])c3nc2n1C([H])([H])c1c([H])c([H])c(C([H])([H])[H])c([H])c1[H]


 35 39  0  0  0  0  0  0  0  0999 V2000
   21.9066    8.5319   54.3017 N   0  0  0  0  0  0  0  0  0  0  0  0
   20.9483    7.6240   53.9735 C   0  0  0  0  0  0  0  0  0  0  0  0
   19.7612    8.0066   54.0850 N   0  0  0  0  0  0  0  0  0  0  0  0
   21.2118    6.3320   53.5994 C   0  0  0  0  0  0  0  0  0  0  0  0
   22.5572    5.9502   53.5668 C   0  0  0  0  0  0  0  0  0  0  0  0
   23.5400    6.8269   53.8896 C   0  0  0  0  0  0  0  0  0  0  0  0
   24.8523    6.4265   53.8662 C   0  0  0  0  0  0  0  0  0  0  0  0
   25.1770    5.2603   53.5346 O   0  0  0  0  0  0  0  0  0  0  0  0
   25.8256    7.2882   54.2025 N   0  0  0  0  0  0  0  0  0  0  0  0
   27.1195    6.9092   54.1843 C   0  0  0  0  0  0  0  0  0  0  0  0
   28.1421    7.7448   54.5162 C   0  0  0  0  0  0  0  0  0  0  0  0
   27.8491    9.0517   54.8930 C   0  0  0  0  0  0  0  0  0  0  0  0
   26.5206    9.4048   54.9007 C   0  0  0  0  0  0  0  0  0  0  0  0
   25.4985    8.5453   54.5614 C   0  0  0  0  0  0  0  0  0  0  0  0
   24.2101    8.9176   54.5771 N   0  0  0  0  0  0  0  0  0  0  0  0
   23.1805    8.1125   54.2529 C   0  0  0  0  0  0  0  0  0  0  0  0
   18.8793    7.5848   53.9269 H   0  0  0  0  0  0  0  0  0  0  0  0
   20.2718    5.3419   53.1419 C   0  0  0  0  0  0  0  0  0  0  0  0
   19.5787    5.6946   52.1031 O   0  0  0  0  0  0  0  0  0  0  0  0
   20.0243    4.0703   53.6884 N   0  0  0  0  0  0  0  0  0  0  0  0
   20.5234    3.7651   54.5348 H   0  0  0  0  0  0  0  0  0  0  0  0
   19.0414    3.1608   53.1108 C   0  0  0  0  0  0  0  0  0  0  0  0
   17.6755    3.4599   53.5630 C   0  0  0  0  0  0  0  0  0  0  0  0
   17.3048    4.2701   54.6016 C   0  0  0  0  0  0  0  0  0  0  0  0
   15.9037    4.2599   54.6675 C   0  0  0  0  0  0  0  0  0  0  0  0
   15.5167    3.4296   53.6459 C   0  0  0  0  0  0  0  0  0  0  0  0
   16.5731    2.9886   53.0329 O   0  0  0  0  0  0  0  0  0  0  0  0
   21.5711    9.8614   54.7224 C   0  0  0  0  0  0  0  0  0  0  0  0
   21.1405   14.1274   50.8122 C   0  0  0  0  0  0  0  0  0  0  0  0
   21.2563   12.9864   51.7626 C   0  0  0  0  0  0  0  0  0  0  0  0
   21.5602   11.7192   51.3895 C   0  0  0  0  0  0  0  0  0  0  0  0
   21.6569   10.6857   52.3402 C   0  0  0  0  0  0  0  0  0  0  0  0
   21.4536   10.8926   53.6768 C   0  0  0  0  0  0  0  0  0  0  0  0
   21.1423   12.2132   54.0274 C   0  0  0  0  0  0  0  0  0  0  0  0
   21.0451   13.2367   53.0938 C   0  0  0  0  0  0  0  0  0  0  0  0
 29 30  1  0  0  0
 30 31  2  0  0  0
 31 32  1  0  0  0
 32 33  2  0  0  0
 33 28  1  0  0  0
 28  1  1  0  0  0
  1  2  1  0  0  0
  2  3  2  0  0  0
  2  4  1  0  0  0
  4 18  1  0  0  0
 18 19  2  0  0  0
 18 20  1  0  0  0
 20 22  1  0  0  0
 22 23  1  0  0  0
 23 24  2  0  0  0
 24 25  1  0  0  0
 25 26  2  0  0  0
 26 27  1  0  0  0
  4  5  2  0  0  0
  5  6  1  0  0  0
  6  7  1  0  0  0
  7  8  2  0  0  0
  7  9  1  0  0  0
  9 10  1  0  0  0
 10 11  2  0  0  0
 11 12  1  0  0  0
 12 13  2  0  0  0
 13 14  1  0  0  0
 14 15  2  0  0  0
 15 16  1  0  0  0
 33 34  1  0  0  0
 34 35  2  0  0  0
 35 30  1  0  0  0
 16  1  1  0  0  0
 27 23  1  0  0  0
 16  6  2  0  0  0
 14  9  1  0  0  0
  3 17  1  0  0  0
 20 21  1  0  0  0
M  END
> <minimizedAffinity>
28.04600

> <CNNscore>
0.4628314376

> <CNNaffinity>
6.5433797836

> <CNN_VS>
3.0284819603

> <CNNaffinity_variance>
0.1856188327

$$$$
[H]N=c1c(C(=O)N([H])C([H])([H])c2oc([H])c([H])c2[H])c([H])c2c(=O)n3c([H])c([H])c([H])c([H])c3nc2n1C([H])([H])c1c([H])c([H])c(C([H])([H])[H])c([H])c1[H]


 35 39  0  0  0  0  0  0  0  0999 V2000
   21.7174    7.5239   52.1444 N   0  0  0  0  0  0  0  0  0  0  0  0
   20.6938    6.6815   52.4495 C   0  0  0  0  0  0  0  0  0  0  0  0
   19.6234    6.8612   51.8250 N   0  0  0  0  0  0  0  0  0  0  0  0
   20.7579    5.7174   53.4216 C   0  0  0  0  0  0  0  0  0  0  0  0
   21.9598    5.6203   54.1307 C   0  0  0  0  0  0  0  0  0  0  0  0
   23.0012    6.4443   53.8563 C   0  0  0  0  0  0  0  0  0  0  0  0
   24.1656    6.3420   54.5751 C   0  0  0  0  0  0  0  0  0  0  0  0
   24.3043    5.4854   55.4819 O   0  0  0  0  0  0  0  0  0  0  0  0
   25.1915    7.1688   54.3166 N   0  0  0  0  0  0  0  0  0  0  0  0
   26.3419    7.0803   55.0145 C   0  0  0  0  0  0  0  0  0  0  0  0
   27.4101    7.8946   54.7906 C   0  0  0  0  0  0  0  0  0  0  0  0
   27.3206    8.8658   53.7984 C   0  0  0  0  0  0  0  0  0  0  0  0
   26.1345    8.9286   53.1064 C   0  0  0  0  0  0  0  0  0  0  0  0
   25.0635    8.0957   53.3469 C   0  0  0  0  0  0  0  0  0  0  0  0
   23.9176    8.1792   52.6550 N   0  0  0  0  0  0  0  0  0  0  0  0
   22.8474    7.3866   52.8552 C   0  0  0  0  0  0  0  0  0  0  0  0
   18.7353    6.4232   51.8315 H   0  0  0  0  0  0  0  0  0  0  0  0
   19.7650    4.7241   53.7391 C   0  0  0  0  0  0  0  0  0  0  0  0
   19.3651    4.0175   52.7269 O   0  0  0  0  0  0  0  0  0  0  0  0
   19.1910    4.4487   54.9928 N   0  0  0  0  0  0  0  0  0  0  0  0
   19.4502    5.0103   55.8149 H   0  0  0  0  0  0  0  0  0  0  0  0
   18.1948    3.3985   55.1706 C   0  0  0  0  0  0  0  0  0  0  0  0
   17.0080    3.6112   54.3305 C   0  0  0  0  0  0  0  0  0  0  0  0
   16.4173    2.7103   53.4866 C   0  0  0  0  0  0  0  0  0  0  0  0
   15.3167    3.3452   52.8924 C   0  0  0  0  0  0  0  0  0  0  0  0
   15.3175    4.6087   53.4275 C   0  0  0  0  0  0  0  0  0  0  0  0
   16.3127    4.7199   54.2542 O   0  0  0  0  0  0  0  0  0  0  0  0
   21.5820    8.5402   51.1413 C   0  0  0  0  0  0  0  0  0  0  0  0
   20.9961   13.9224   53.2300 C   0  0  0  0  0  0  0  0  0  0  0  0
   21.1394   12.5671   52.6287 C   0  0  0  0  0  0  0  0  0  0  0  0
   21.2611   12.3392   51.2982 C   0  0  0  0  0  0  0  0  0  0  0  0
   21.3960   11.0316   50.7948 C   0  0  0  0  0  0  0  0  0  0  0  0
   21.4124    9.9288   51.6035 C   0  0  0  0  0  0  0  0  0  0  0  0
   21.2852   10.2006   52.9724 C   0  0  0  0  0  0  0  0  0  0  0  0
   21.1514   11.4884   53.4746 C   0  0  0  0  0  0  0  0  0  0  0  0
 29 30  1  0  0  0
 30 31  2  0  0  0
 31 32  1  0  0  0
 32 33  2  0  0  0
 33 28  1  0  0  0
 28  1  1  0  0  0
  1  2  1  0  0  0
  2  3  2  0  0  0
  2  4  1  0  0  0
  4 18  1  0  0  0
 18 19  2  0  0  0
 18 20  1  0  0  0
 20 22  1  0  0  0
 22 23  1  0  0  0
 23 24  2  0  0  0
 24 25  1  0  0  0
 25 26  2  0  0  0
 26 27  1  0  0  0
  4  5  2  0  0  0
  5  6  1  0  0  0
  6  7  1  0  0  0
  7  8  2  0  0  0
  7  9  1  0  0  0
  9 10  1  0  0  0
 10 11  2  0  0  0
 11 12  1  0  0  0
 12 13  2  0  0  0
 13 14  1  0  0  0
 14 15  2  0  0  0
 15 16  1  0  0  0
 33 34  1  0  0  0
 34 35  2  0  0  0
 35 30  1  0  0  0
 16  1  1  0  0  0
 27 23  1  0  0  0
 16  6  2  0  0  0
 14  9  1  0  0  0
  3 17  1  0  0  0
 20 21  1  0  0  0
M  END
> <minimizedAffinity>
32.60987

> <CNNscore>
0.4488919675

> <CNNaffinity>
6.6873564720

> <CNN_VS>
3.0019006729

> <CNNaffinity_variance>
0.4165015817

$$$$
[H]N=c1c(C(=O)N([H])C([H])([H])c2oc([H])c([H])c2[H])c([H])c2c(=O)n3c([H])c([H])c([H])c([H])c3nc2n1C([H])([H])c1c([H])c([H])c(C([H])([H])[H])c([H])c1[H]


 35 39  0  0  0  0  0  0  0  0999 V2000
   21.3669    7.4894   52.1112 N   0  0  0  0  0  0  0  0  0  0  0  0
   20.3213    6.6627   52.3827 C   0  0  0  0  0  0  0  0  0  0  0  0
   19.2670    6.8737   51.7411 N   0  0  0  0  0  0  0  0  0  0  0  0
   20.3476    5.6819   53.3399 C   0  0  0  0  0  0  0  0  0  0  0  0
   21.5335    5.5494   54.0701 C   0  0  0  0  0  0  0  0  0  0  0  0
   22.5959    6.3569   53.8292 C   0  0  0  0  0  0  0  0  0  0  0  0
   23.7440    6.2198   54.5683 C   0  0  0  0  0  0  0  0  0  0  0  0
   23.8481    5.3461   55.4633 O   0  0  0  0  0  0  0  0  0  0  0  0
   24.7907    7.0301   54.3431 N   0  0  0  0  0  0  0  0  0  0  0  0
   25.9253    6.9075   55.0613 C   0  0  0  0  0  0  0  0  0  0  0  0
   27.0134    7.7038   54.8713 C   0  0  0  0  0  0  0  0  0  0  0  0
   26.9623    8.6925   53.8937 C   0  0  0  0  0  0  0  0  0  0  0  0
   25.7913    8.7900   53.1804 C   0  0  0  0  0  0  0  0  0  0  0  0
   24.6997    7.9749   53.3865 C   0  0  0  0  0  0  0  0  0  0  0  0
   23.5692    8.0923   52.6744 N   0  0  0  0  0  0  0  0  0  0  0  0
   22.4800    7.3181   52.8410 C   0  0  0  0  0  0  0  0  0  0  0  0
   18.3705    6.4535   51.7234 H   0  0  0  0  0  0  0  0  0  0  0  0
   19.3295    4.7037   53.6220 C   0  0  0  0  0  0  0  0  0  0  0  0
   19.7416    3.4734   53.5996 O   0  0  0  0  0  0  0  0  0  0  0  0
   17.9708    4.9300   53.9044 N   0  0  0  0  0  0  0  0  0  0  0  0
   17.5930    5.8869   53.8943 H   0  0  0  0  0  0  0  0  0  0  0  0
   17.0484    3.8351   54.1825 C   0  0  0  0  0  0  0  0  0  0  0  0
   16.8580    3.6224   55.6240 C   0  0  0  0  0  0  0  0  0  0  0  0
   17.8051    3.2517   56.5396 C   0  0  0  0  0  0  0  0  0  0  0  0
   17.1757    3.1693   57.7904 C   0  0  0  0  0  0  0  0  0  0  0  0
   15.8680    3.5019   57.5408 C   0  0  0  0  0  0  0  0  0  0  0  0
   15.7281    3.7564   56.2751 O   0  0  0  0  0  0  0  0  0  0  0  0
   21.2710    8.5242   51.1226 C   0  0  0  0  0  0  0  0  0  0  0  0
   21.2808   14.0985   52.7354 C   0  0  0  0  0  0  0  0  0  0  0  0
   21.2930   12.6500   52.3881 C   0  0  0  0  0  0  0  0  0  0  0  0
   21.3716   11.6536   53.3036 C   0  0  0  0  0  0  0  0  0  0  0  0
   21.3760   10.3027   52.9080 C   0  0  0  0  0  0  0  0  0  0  0  0
   21.3026    9.9185   51.5975 C   0  0  0  0  0  0  0  0  0  0  0  0
   21.2218   10.9733   50.6783 C   0  0  0  0  0  0  0  0  0  0  0  0
   21.2175   12.3078   51.0628 C   0  0  0  0  0  0  0  0  0  0  0  0
 29 30  1  0  0  0
 30 31  2  0  0  0
 31 32  1  0  0  0
 32 33  2  0  0  0
 33 28  1  0  0  0
 28  1  1  0  0  0
  1  2  1  0  0  0
  2  3  2  0  0  0
  2  4  1  0  0  0
  4 18  1  0  0  0
 18 19  2  0  0  0
 18 20  1  0  0  0
 20 22  1  0  0  0
 22 23  1  0  0  0
 23 24  2  0  0  0
 24 25  1  0  0  0
 25 26  2  0  0  0
 26 27  1  0  0  0
  4  5  2  0  0  0
  5  6  1  0  0  0
  6  7  1  0  0  0
  7  8  2  0  0  0
  7  9  1  0  0  0
  9 10  1  0  0  0
 10 11  2  0  0  0
 11 12  1  0  0  0
 12 13  2  0  0  0
 13 14  1  0  0  0
 14 15  2  0  0  0
 15 16  1  0  0  0
 33 34  1  0  0  0
 34 35  2  0  0  0
 35 30  1  0  0  0
 16  1  1  0  0  0
 27 23  1  0  0  0
 16  6  2  0  0  0
 14  9  1  0  0  0
  3 17  1  0  0  0
 20 21  1  0  0  0
M  END
> <minimizedAffinity>
31.60832

> <CNNscore>
0.4325485528

> <CNNaffinity>
6.7662658691

> <CNN_VS>
2.9267385006

> <CNNaffinity_variance>
0.5079239607

$$$$
[H]N=c1c(C(=O)N([H])C([H])([H])c2oc([H])c([H])c2[H])c([H])c2c(=O)n3c([H])c([H])c([H])c([H])c3nc2n1C([H])([H])c1c([H])c([H])c(C([H])([H])[H])c([H])c1[H]


 35 39  0  0  0  0  0  0  0  0999 V2000
   23.1464    6.5156   53.3434 N   0  0  0  0  0  0  0  0  0  0  0  0
   22.3683    5.4143   53.5231 C   0  0  0  0  0  0  0  0  0  0  0  0
   22.9651    4.3598   53.8389 N   0  0  0  0  0  0  0  0  0  0  0  0
   21.0130    5.3914   53.3197 C   0  0  0  0  0  0  0  0  0  0  0  0
   20.4217    6.5865   52.8968 C   0  0  0  0  0  0  0  0  0  0  0  0
   21.1654    7.7040   52.7046 C   0  0  0  0  0  0  0  0  0  0  0  0
   20.5670    8.8614   52.2742 C   0  0  0  0  0  0  0  0  0  0  0  0
   19.3309    8.9228   52.0650 O   0  0  0  0  0  0  0  0  0  0  0  0
   21.3045    9.9640   52.0666 N   0  0  0  0  0  0  0  0  0  0  0  0
   20.7307   11.1086   51.6436 C   0  0  0  0  0  0  0  0  0  0  0  0
   21.4343   12.2524   51.4188 C   0  0  0  0  0  0  0  0  0  0  0  0
   22.8093   12.2506   51.6322 C   0  0  0  0  0  0  0  0  0  0  0  0
   23.3617   11.0679   52.0630 C   0  0  0  0  0  0  0  0  0  0  0  0
   22.6335    9.9195   52.2854 C   0  0  0  0  0  0  0  0  0  0  0  0
   23.1994    8.7789   52.7068 N   0  0  0  0  0  0  0  0  0  0  0  0
   22.5274    7.6350   52.9376 C   0  0  0  0  0  0  0  0  0  0  0  0
   22.6782    3.4311   54.0283 H   0  0  0  0  0  0  0  0  0  0  0  0
   20.1048    4.3051   53.5811 C   0  0  0  0  0  0  0  0  0  0  0  0
   19.6985    4.2249   54.8109 O   0  0  0  0  0  0  0  0  0  0  0  0
   19.6284    3.3421   52.6740 N   0  0  0  0  0  0  0  0  0  0  0  0
   19.9546    3.3448   51.6983 H   0  0  0  0  0  0  0  0  0  0  0  0
   18.6969    2.2956   53.0792 C   0  0  0  0  0  0  0  0  0  0  0  0
   17.4430    2.8450   53.6132 C   0  0  0  0  0  0  0  0  0  0  0  0
   16.2793    3.0712   52.9295 C   0  0  0  0  0  0  0  0  0  0  0  0
   15.3509    3.6014   53.8373 C   0  0  0  0  0  0  0  0  0  0  0  0
   16.0289    3.6604   55.0288 C   0  0  0  0  0  0  0  0  0  0  0  0
   17.2355    3.2134   54.8540 O   0  0  0  0  0  0  0  0  0  0  0  0
   24.5671    6.4727   53.5355 C   0  0  0  0  0  0  0  0  0  0  0  0
   27.1481   10.4907   56.8322 C   0  0  0  0  0  0  0  0  0  0  0  0
   26.4256    9.4715   56.0210 C   0  0  0  0  0  0  0  0  0  0  0  0
   25.0844    9.2809   56.0665 C   0  0  0  0  0  0  0  0  0  0  0  0
   24.4628    8.3005   55.2704 C   0  0  0  0  0  0  0  0  0  0  0  0
   25.1620    7.4931   54.4161 C   0  0  0  0  0  0  0  0  0  0  0  0
   26.5451    7.7173   54.3935 C   0  0  0  0  0  0  0  0  0  0  0  0
   27.1638    8.6828   55.1770 C   0  0  0  0  0  0  0  0  0  0  0  0
 29 30  1  0  0  0
 30 31  2  0  0  0
 31 32  1  0  0  0
 32 33  2  0  0  0
 33 28  1  0  0  0
 28  1  1  0  0  0
  1  2  1  0  0  0
  2  3  2  0  0  0
  2  4  1  0  0  0
  4 18  1  0  0  0
 18 19  2  0  0  0
 18 20  1  0  0  0
 20 22  1  0  0  0
 22 23  1  0  0  0
 23 24  2  0  0  0
 24 25  1  0  0  0
 25 26  2  0  0  0
 26 27  1  0  0  0
  4  5  2  0  0  0
  5  6  1  0  0  0
  6  7  1  0  0  0
  7  8  2  0  0  0
  7  9  1  0  0  0
  9 10  1  0  0  0
 10 11  2  0  0  0
 11 12  1  0  0  0
 12 13  2  0  0  0
 13 14  1  0  0  0
 14 15  2  0  0  0
 15 16  1  0  0  0
 33 34  1  0  0  0
 34 35  2  0  0  0
 35 30  1  0  0  0
 16  1  1  0  0  0
 27 23  1  0  0  0
 16  6  2  0  0  0
 14  9  1  0  0  0
  3 17  1  0  0  0
 20 21  1  0  0  0
M  END
> <minimizedAffinity>
47.17062

> <CNNscore>
0.3704277873

> <CNNaffinity>
6.2568693161

> <CNN_VS>
2.3177182674

> <CNNaffinity_variance>
0.2070531845

$$$$
[H]N=c1c(C(=O)N([H])C([H])([H])c2oc([H])c([H])c2[H])c([H])c2c(=O)n3c([H])c([H])c([H])c([H])c3nc2n1C([H])([H])c1c([H])c([H])c(C([H])([H])[H])c([H])c1[H]


 35 39  0  0  0  0  0  0  0  0999 V2000
   22.0027    9.0425   54.4152 N   0  0  0  0  0  0  0  0  0  0  0  0
   20.9437    8.2335   54.1423 C   0  0  0  0  0  0  0  0  0  0  0  0
   19.8079    8.7435   54.2762 N   0  0  0  0  0  0  0  0  0  0  0  0
   21.0570    6.9112   53.7998 C   0  0  0  0  0  0  0  0  0  0  0  0
   22.3526    6.3873   53.7401 C   0  0  0  0  0  0  0  0  0  0  0  0
   23.4325    7.1625   54.0079 C   0  0  0  0  0  0  0  0  0  0  0  0
   24.6936    6.6238   53.9589 C   0  0  0  0  0  0  0  0  0  0  0  0
   24.8823    5.4211   53.6534 O   0  0  0  0  0  0  0  0  0  0  0  0
   25.7628    7.3855   54.2409 N   0  0  0  0  0  0  0  0  0  0  0  0
   27.0081    6.8702   54.1969 C   0  0  0  0  0  0  0  0  0  0  0  0
   28.1235    7.6004   54.4740 C   0  0  0  0  0  0  0  0  0  0  0  0
   27.9826    8.9409   54.8195 C   0  0  0  0  0  0  0  0  0  0  0  0
   26.6999    9.4338   54.8547 C   0  0  0  0  0  0  0  0  0  0  0  0
   25.5823    8.6794   54.5710 C   0  0  0  0  0  0  0  0  0  0  0  0
   24.3417    9.1875   54.6126 N   0  0  0  0  0  0  0  0  0  0  0  0
   23.2228    8.4884   54.3425 C   0  0  0  0  0  0  0  0  0  0  0  0
   18.8818    8.4142   54.1564 H   0  0  0  0  0  0  0  0  0  0  0  0
   20.0034    6.0152   53.3995 C   0  0  0  0  0  0  0  0  0  0  0  0
   20.0037    5.7104   52.1382 O   0  0  0  0  0  0  0  0  0  0  0  0
   18.9958    5.4547   54.2044 N   0  0  0  0  0  0  0  0  0  0  0  0
   18.9347    5.6996   55.2018 H   0  0  0  0  0  0  0  0  0  0  0  0
   17.9909    4.5477   53.6617 C   0  0  0  0  0  0  0  0  0  0  0  0
   18.5810    3.2934   53.1738 C   0  0  0  0  0  0  0  0  0  0  0  0
   17.9286    2.2441   52.5857 C   0  0  0  0  0  0  0  0  0  0  0  0
   18.8869    1.2654   52.2834 C   0  0  0  0  0  0  0  0  0  0  0  0
   20.0740    1.7998   52.7172 C   0  0  0  0  0  0  0  0  0  0  0  0
   19.8512    2.9738   53.2257 O   0  0  0  0  0  0  0  0  0  0  0  0
   21.8234   10.4111   54.8051 C   0  0  0  0  0  0  0  0  0  0  0  0
   20.7145   14.4670   50.8059 C   0  0  0  0  0  0  0  0  0  0  0  0
   21.0202   13.3829   51.7806 C   0  0  0  0  0  0  0  0  0  0  0  0
   21.6550   12.2304   51.4553 C   0  0  0  0  0  0  0  0  0  0  0  0
   21.9160   11.2459   52.4268 C   0  0  0  0  0  0  0  0  0  0  0  0
   21.5512   11.3889   53.7372 C   0  0  0  0  0  0  0  0  0  0  0  0
   20.8982   12.5915   54.0387 C   0  0  0  0  0  0  0  0  0  0  0  0
   20.6377   13.5662   53.0842 C   0  0  0  0  0  0  0  0  0  0  0  0
 29 30  1  0  0  0
 30 31  2  0  0  0
 31 32  1  0  0  0
 32 33  2  0  0  0
 33 28  1  0  0  0
 28  1  1  0  0  0
  1  2  1  0  0  0
  2  3  2  0  0  0
  2  4  1  0  0  0
  4 18  1  0  0  0
 18 19  2  0  0  0
 18 20  1  0  0  0
 20 22  1  0  0  0
 22 23  1  0  0  0
 23 24  2  0  0  0
 24 25  1  0  0  0
 25 26  2  0  0  0
 26 27  1  0  0  0
  4  5  2  0  0  0
  5  6  1  0  0  0
  6  7  1  0  0  0
  7  8  2  0  0  0
  7  9  1  0  0  0
  9 10  1  0  0  0
 10 11  2  0  0  0
 11 12  1  0  0  0
 12 13  2  0  0  0
 13 14  1  0  0  0
 14 15  2  0  0  0
 15 16  1  0  0  0
 33 34  1  0  0  0
 34 35  2  0  0  0
 35 30  1  0  0  0
 16  1  1  0  0  0
 27 23  1  0  0  0
 16  6  2  0  0  0
 14  9  1  0  0  0
  3 17  1  0  0  0
 20 21  1  0  0  0
M  END
> <minimizedAffinity>
41.44914

> <CNNscore>
0.3599579632

> <CNNaffinity>
6.3843250275

> <CNN_VS>
2.2980885506

> <CNNaffinity_variance>
0.3142578304

$$$$
[H]/C(=C(\[H])C([H])([H])C([H])([H])N([H])C(=O)/C([H])=C([H])/C([H])=C([H])/C([H])=C(\[H])c1sc([H])c([H])c1[H])C([H])([H])OC(=O)C([H])([H])C([H])(C([H])([H])[H])C([H])([H])[H]


 27 27  0  0  0  0  0  0  0  0999 V2000
   22.4032    8.3342   55.2138 N   0  0  0  0  0  0  0  0  0  0  0  0
   23.2677    9.4148   55.4684 C   0  0  0  0  0  0  0  0  0  0  0  0
   22.9295   10.5625   55.0856 O   0  0  0  0  0  0  0  0  0  0  0  0
   22.6782    7.3745   55.5321 H   0  0  0  0  0  0  0  0  0  0  0  0
   24.5235    9.2335   56.1541 C   0  0  0  0  0  0  0  0  0  0  0  0
   25.6895    9.2009   55.5759 C   0  0  0  0  0  0  0  0  0  0  0  0
   26.9344    9.0131   56.3291 C   0  0  0  0  0  0  0  0  0  0  0  0
   27.1595    9.5580   57.4898 C   0  0  0  0  0  0  0  0  0  0  0  0
   28.4220    9.3522   58.2266 C   0  0  0  0  0  0  0  0  0  0  0  0
   28.5097    9.6363   59.5056 C   0  0  0  0  0  0  0  0  0  0  0  0
   29.7833    9.4251   60.2352 C   0  0  0  0  0  0  0  0  0  0  0  0
   30.2581    8.2578   60.7695 C   0  0  0  0  0  0  0  0  0  0  0  0
   31.4471    8.3032   61.3920 C   0  0  0  0  0  0  0  0  0  0  0  0
   32.0828    9.5151   61.4383 C   0  0  0  0  0  0  0  0  0  0  0  0
   31.0078   10.5474   60.6168 S   0  0  0  0  0  0  0  0  0  0  0  0
   21.1396    8.4658   54.5305 C   0  0  0  0  0  0  0  0  0  0  0  0
   20.9018    7.3869   53.4907 C   0  0  0  0  0  0  0  0  0  0  0  0
   21.6586    8.8611   51.6558 C   0  0  0  0  0  0  0  0  0  0  0  0
   21.6088    7.6893   52.2326 C   0  0  0  0  0  0  0  0  0  0  0  0
   20.9943   10.0404   52.2149 C   0  0  0  0  0  0  0  0  0  0  0  0
   21.8549   11.1551   52.1396 O   0  0  0  0  0  0  0  0  0  0  0  0
   21.4831   12.2792   51.4430 C   0  0  0  0  0  0  0  0  0  0  0  0
   21.1203   12.1815   50.2528 O   0  0  0  0  0  0  0  0  0  0  0  0
   21.4949   13.6396   52.0604 C   0  0  0  0  0  0  0  0  0  0  0  0
   19.5536   15.2031   52.2786 C   0  0  0  0  0  0  0  0  0  0  0  0
   20.5083   14.5341   51.3419 C   0  0  0  0  0  0  0  0  0  0  0  0
   21.1922   15.5687   50.4980 C   0  0  0  0  0  0  0  0  0  0  0  0
 25 26  1  0  0  0
 26 27  1  0  0  0
 26 24  1  0  0  0
 24 22  1  0  0  0
 22 23  2  0  0  0
 22 21  1  0  0  0
 21 20  1  0  0  0
 20 18  1  0  0  0
 18 19  2  0  0  0
 19 17  1  0  0  0
 17 16  1  0  0  0
 16  1  1  0  0  0
  1  2  1  0  0  0
  2  3  2  0  0  0
  2  5  1  0  0  0
  5  6  2  0  0  0
  6  7  1  0  0  0
  7  8  2  0  0  0
  8  9  1  0  0  0
  9 10  2  0  0  0
 10 11  1  0  0  0
 11 12  2  0  0  0
 12 13  1  0  0  0
 13 14  2  0  0  0
 14 15  1  0  0  0
 15 11  1  0  0  0
  1  4  1  0  0  0
M  END
> <minimizedAffinity>
6.94764

> <CNNscore>
0.7163891196

> <CNNaffinity>
5.8707890511

> <CNN_VS>
4.2057695389

> <CNNaffinity_variance>
0.1860905886

$$$$
[H]/C(=C(\[H])C([H])([H])C([H])([H])N([H])C(=O)/C([H])=C([H])/C([H])=C([H])/C([H])=C(\[H])c1sc([H])c([H])c1[H])C([H])([H])OC(=O)C([H])([H])C([H])(C([H])([H])[H])C([H])([H])[H]


 27 27  0  0  0  0  0  0  0  0999 V2000
   29.2132   10.2977   59.5350 N   0  0  0  0  0  0  0  0  0  0  0  0
   28.7658    9.0774   58.9958 C   0  0  0  0  0  0  0  0  0  0  0  0
   29.3427    8.0164   59.3415 O   0  0  0  0  0  0  0  0  0  0  0  0
   28.7352   11.1863   59.2523 H   0  0  0  0  0  0  0  0  0  0  0  0
   27.6677    9.0201   58.0626 C   0  0  0  0  0  0  0  0  0  0  0  0
   27.7773    9.1706   56.7740 C   0  0  0  0  0  0  0  0  0  0  0  0
   26.6205    9.1013   55.8743 C   0  0  0  0  0  0  0  0  0  0  0  0
   26.5485    8.2884   54.8600 C   0  0  0  0  0  0  0  0  0  0  0  0
   25.3717    8.2393   53.9702 C   0  0  0  0  0  0  0  0  0  0  0  0
   24.1561    8.1798   54.4634 C   0  0  0  0  0  0  0  0  0  0  0  0
   22.9815    8.1310   53.5594 C   0  0  0  0  0  0  0  0  0  0  0  0
   22.4007    9.1709   52.8851 C   0  0  0  0  0  0  0  0  0  0  0  0
   21.3363    8.8895   52.1164 C   0  0  0  0  0  0  0  0  0  0  0  0
   20.9234    7.5847   52.0733 C   0  0  0  0  0  0  0  0  0  0  0  0
   22.0268    6.7958   53.1009 S   0  0  0  0  0  0  0  0  0  0  0  0
   30.3074   10.4052   60.4687 C   0  0  0  0  0  0  0  0  0  0  0  0
   30.0993   11.4796   61.5195 C   0  0  0  0  0  0  0  0  0  0  0  0
   32.2025   12.5972   62.1830 C   0  0  0  0  0  0  0  0  0  0  0  0
   31.3057   11.6608   62.3476 C   0  0  0  0  0  0  0  0  0  0  0  0
   32.1035   13.6016   61.1218 C   0  0  0  0  0  0  0  0  0  0  0  0
   32.2221   14.8940   61.6736 O   0  0  0  0  0  0  0  0  0  0  0  0
   31.9256   16.0048   60.9217 C   0  0  0  0  0  0  0  0  0  0  0  0
   32.7605   16.9269   60.8188 O   0  0  0  0  0  0  0  0  0  0  0  0
   30.6221   16.1597   60.2085 C   0  0  0  0  0  0  0  0  0  0  0  0
   28.5708   17.2125   61.1803 C   0  0  0  0  0  0  0  0  0  0  0  0
   29.4822   16.0270   61.1950 C   0  0  0  0  0  0  0  0  0  0  0  0
   28.6838   14.7766   60.9732 C   0  0  0  0  0  0  0  0  0  0  0  0
 25 26  1  0  0  0
 26 27  1  0  0  0
 26 24  1  0  0  0
 24 22  1  0  0  0
 22 23  2  0  0  0
 22 21  1  0  0  0
 21 20  1  0  0  0
 20 18  1  0  0  0
 18 19  2  0  0  0
 19 17  1  0  0  0
 17 16  1  0  0  0
 16  1  1  0  0  0
  1  2  1  0  0  0
  2  3  2  0  0  0
  2  5  1  0  0  0
  5  6  2  0  0  0
  6  7  1  0  0  0
  7  8  2  0  0  0
  8  9  1  0  0  0
  9 10  2  0  0  0
 10 11  1  0  0  0
 11 12  2  0  0  0
 12 13  1  0  0  0
 13 14  2  0  0  0
 14 15  1  0  0  0
 15 11  1  0  0  0
  1  4  1  0  0  0
M  END
> <minimizedAffinity>
-4.36677

> <CNNscore>
0.6509943008

> <CNNaffinity>
5.8466997147

> <CNN_VS>
3.8061680794

> <CNNaffinity_variance>
0.3588075638

$$$$
[H]/C(=C(\[H])C([H])([H])C([H])([H])N([H])C(=O)/C([H])=C([H])/C([H])=C([H])/C([H])=C(\[H])c1sc([H])c([H])c1[H])C([H])([H])OC(=O)C([H])([H])C([H])(C([H])([H])[H])C([H])([H])[H]


 27 27  0  0  0  0  0  0  0  0999 V2000
   21.5616    8.7926   55.4360 N   0  0  0  0  0  0  0  0  0  0  0  0
   22.3790    9.9153   55.2097 C   0  0  0  0  0  0  0  0  0  0  0  0
   22.0867   10.6960   54.2699 O   0  0  0  0  0  0  0  0  0  0  0  0
   21.7986    8.1383   56.2195 H   0  0  0  0  0  0  0  0  0  0  0  0
   23.5355   10.1862   56.0277 C   0  0  0  0  0  0  0  0  0  0  0  0
   24.6966    9.6143   55.8879 C   0  0  0  0  0  0  0  0  0  0  0  0
   25.8379    9.9327   56.7531 C   0  0  0  0  0  0  0  0  0  0  0  0
   26.8557    9.1381   56.9190 C   0  0  0  0  0  0  0  0  0  0  0  0
   27.9917    9.4837   57.7961 C   0  0  0  0  0  0  0  0  0  0  0  0
   28.1280    8.9215   58.9750 C   0  0  0  0  0  0  0  0  0  0  0  0
   29.2736    9.2766   59.8472 C   0  0  0  0  0  0  0  0  0  0  0  0
   30.1238    8.4255   60.4999 C   0  0  0  0  0  0  0  0  0  0  0  0
   31.0989    8.9761   61.2410 C   0  0  0  0  0  0  0  0  0  0  0  0
   31.1585   10.3436   61.2796 C   0  0  0  0  0  0  0  0  0  0  0  0
   29.8596   10.8155   60.2866 S   0  0  0  0  0  0  0  0  0  0  0  0
   20.3974    8.4793   54.6441 C   0  0  0  0  0  0  0  0  0  0  0  0
   20.5597    7.2266   53.8036 C   0  0  0  0  0  0  0  0  0  0  0  0
   22.1824    7.4712   51.9544 C   0  0  0  0  0  0  0  0  0  0  0  0
   20.9659    7.5548   52.4248 C   0  0  0  0  0  0  0  0  0  0  0  0
   23.3125    7.0285   52.7739 C   0  0  0  0  0  0  0  0  0  0  0  0
   24.2518    8.0731   52.8983 O   0  0  0  0  0  0  0  0  0  0  0  0
   25.4200    7.8832   53.5956 C   0  0  0  0  0  0  0  0  0  0  0  0
   25.4482    7.0871   54.5565 O   0  0  0  0  0  0  0  0  0  0  0  0
   26.6822    8.6024   53.2468 C   0  0  0  0  0  0  0  0  0  0  0  0
   28.4423    6.9968   54.0113 C   0  0  0  0  0  0  0  0  0  0  0  0
   27.7464    8.2934   54.2773 C   0  0  0  0  0  0  0  0  0  0  0  0
   28.7600    9.3933   54.3921 C   0  0  0  0  0  0  0  0  0  0  0  0
 25 26  1  0  0  0
 26 27  1  0  0  0
 26 24  1  0  0  0
 24 22  1  0  0  0
 22 23  2  0  0  0
 22 21  1  0  0  0
 21 20  1  0  0  0
 20 18  1  0  0  0
 18 19  2  0  0  0
 19 17  1  0  0  0
 17 16  1  0  0  0
 16  1  1  0  0  0
  1  2  1  0  0  0
  2  3  2  0  0  0
  2  5  1  0  0  0
  5  6  2  0  0  0
  6  7  1  0  0  0
  7  8  2  0  0  0
  8  9  1  0  0  0
  9 10  2  0  0  0
 10 11  1  0  0  0
 11 12  2  0  0  0
 12 13  1  0  0  0
 13 14  2  0  0  0
 14 15  1  0  0  0
 15 11  1  0  0  0
  1  4  1  0  0  0
M  END
> <minimizedAffinity>
5.37914

> <CNNscore>
0.6225290895

> <CNNaffinity>
6.0743942261

> <CNN_VS>
3.7814869881

> <CNNaffinity_variance>
0.4862238467

$$$$
[H]/C(=C(\[H])C([H])([H])C([H])([H])N([H])C(=O)/C([H])=C([H])/C([H])=C([H])/C([H])=C(\[H])c1sc([H])c([H])c1[H])C([H])([H])OC(=O)C([H])([H])C([H])(C([H])([H])[H])C([H])([H])[H]


 27 27  0  0  0  0  0  0  0  0999 V2000
   23.2102    8.8635   53.8500 N   0  0  0  0  0  0  0  0  0  0  0  0
   24.2679    7.9355   53.8498 C   0  0  0  0  0  0  0  0  0  0  0  0
   24.2482    6.9971   53.0148 O   0  0  0  0  0  0  0  0  0  0  0  0
   23.2213    9.6498   54.5426 H   0  0  0  0  0  0  0  0  0  0  0  0
   25.3648    8.0385   54.7805 C   0  0  0  0  0  0  0  0  0  0  0  0
   26.4519    8.7255   54.5767 C   0  0  0  0  0  0  0  0  0  0  0  0
   27.5351    8.7921   55.5638 C   0  0  0  0  0  0  0  0  0  0  0  0
   27.4069    9.3506   56.7327 C   0  0  0  0  0  0  0  0  0  0  0  0
   28.5140    9.4036   57.7077 C   0  0  0  0  0  0  0  0  0  0  0  0
   28.2770    9.3699   58.9988 C   0  0  0  0  0  0  0  0  0  0  0  0
   29.3976    9.4237   59.9687 C   0  0  0  0  0  0  0  0  0  0  0  0
   30.0853   10.5286   60.3925 C   0  0  0  0  0  0  0  0  0  0  0  0
   31.0710   10.3370   61.2840 C   0  0  0  0  0  0  0  0  0  0  0  0
   31.3032    9.0509   61.6929 C   0  0  0  0  0  0  0  0  0  0  0  0
   30.1457    8.1545   60.8254 S   0  0  0  0  0  0  0  0  0  0  0  0
   22.0918    8.8004   52.9413 C   0  0  0  0  0  0  0  0  0  0  0  0
   21.3673   10.1242   52.7847 C   0  0  0  0  0  0  0  0  0  0  0  0
   21.4187   11.8304   50.9961 C   0  0  0  0  0  0  0  0  0  0  0  0
   21.3846   10.5826   51.3834 C   0  0  0  0  0  0  0  0  0  0  0  0
   21.4433   12.9465   51.9440 C   0  0  0  0  0  0  0  0  0  0  0  0
   21.8096   14.1334   51.2763 O   0  0  0  0  0  0  0  0  0  0  0  0
   20.8975   15.1452   51.0985 C   0  0  0  0  0  0  0  0  0  0  0  0
   19.8406   15.1532   51.7624 O   0  0  0  0  0  0  0  0  0  0  0  0
   21.1204   16.2573   50.1262 C   0  0  0  0  0  0  0  0  0  0  0  0
   23.0242   17.5666   49.1661 C   0  0  0  0  0  0  0  0  0  0  0  0
   22.4687   16.8951   50.3814 C   0  0  0  0  0  0  0  0  0  0  0  0
   22.4273   17.8709   51.5199 C   0  0  0  0  0  0  0  0  0  0  0  0
 25 26  1  0  0  0
 26 27  1  0  0  0
 26 24  1  0  0  0
 24 22  1  0  0  0
 22 23  2  0  0  0
 22 21  1  0  0  0
 21 20  1  0  0  0
 20 18  1  0  0  0
 18 19  2  0  0  0
 19 17  1  0  0  0
 17 16  1  0  0  0
 16  1  1  0  0  0
  1  2  1  0  0  0
  2  3  2  0  0  0
  2  5  1  0  0  0
  5  6  2  0  0  0
  6  7  1  0  0  0
  7  8  2  0  0  0
  8  9  1  0  0  0
  9 10  2  0  0  0
 10 11  1  0  0  0
 11 12  2  0  0  0
 12 13  1  0  0  0
 13 14  2  0  0  0
 14 15  1  0  0  0
 15 11  1  0  0  0
  1  4  1  0  0  0
M  END
> <minimizedAffinity>
2.63537

> <CNNscore>
0.6044501066

> <CNNaffinity>
5.6705222130

> <CNN_VS>
3.4275476933

> <CNNaffinity_variance>
0.2466142923

$$$$
[H]/C(=C(\[H])C([H])([H])C([H])([H])N([H])C(=O)/C([H])=C([H])/C([H])=C([H])/C([H])=C(\[H])c1sc([H])c([H])c1[H])C([H])([H])OC(=O)C([H])([H])C([H])(C([H])([H])[H])C([H])([H])[H]


 27 27  0  0  0  0  0  0  0  0999 V2000
   21.9293    6.9223   53.6577 N   0  0  0  0  0  0  0  0  0  0  0  0
   21.0694    7.0817   54.7600 C   0  0  0  0  0  0  0  0  0  0  0  0
   19.9740    7.6732   54.5912 O   0  0  0  0  0  0  0  0  0  0  0  0
   22.8437    6.4281   53.7910 H   0  0  0  0  0  0  0  0  0  0  0  0
   21.4165    6.5840   56.0684 C   0  0  0  0  0  0  0  0  0  0  0  0
   22.0489    5.4692   56.2971 C   0  0  0  0  0  0  0  0  0  0  0  0
   22.3744    5.0153   57.6537 C   0  0  0  0  0  0  0  0  0  0  0  0
   23.1668    4.0132   57.9039 C   0  0  0  0  0  0  0  0  0  0  0  0
   23.4776    3.5774   59.2796 C   0  0  0  0  0  0  0  0  0  0  0  0
   24.7077    3.2809   59.6308 C   0  0  0  0  0  0  0  0  0  0  0  0
   25.0076    2.8443   61.0159 C   0  0  0  0  0  0  0  0  0  0  0  0
   24.2520    2.0347   61.8204 C   0  0  0  0  0  0  0  0  0  0  0  0
   24.7253    1.7712   63.0490 C   0  0  0  0  0  0  0  0  0  0  0  0
   25.9249    2.3358   63.3915 C   0  0  0  0  0  0  0  0  0  0  0  0
   26.3522    3.2119   61.9965 S   0  0  0  0  0  0  0  0  0  0  0  0
   21.6270    7.4043   52.3322 C   0  0  0  0  0  0  0  0  0  0  0  0
   21.8249    8.9003   52.1755 C   0  0  0  0  0  0  0  0  0  0  0  0
   22.0270   10.0958   54.3302 C   0  0  0  0  0  0  0  0  0  0  0  0
   21.3047    9.6354   53.3430 C   0  0  0  0  0  0  0  0  0  0  0  0
   23.4804    9.9248   54.3862 C   0  0  0  0  0  0  0  0  0  0  0  0
   23.7924    8.6270   54.8413 O   0  0  0  0  0  0  0  0  0  0  0  0
   24.8580    7.9389   54.3139 C   0  0  0  0  0  0  0  0  0  0  0  0
   24.7655    6.7110   54.1096 O   0  0  0  0  0  0  0  0  0  0  0  0
   26.1474    8.6096   53.9681 C   0  0  0  0  0  0  0  0  0  0  0  0
   28.4186    7.6288   54.3425 C   0  0  0  0  0  0  0  0  0  0  0  0
   27.2068    8.2302   54.9799 C   0  0  0  0  0  0  0  0  0  0  0  0
   27.6140    9.3924   55.8364 C   0  0  0  0  0  0  0  0  0  0  0  0
 25 26  1  0  0  0
 26 27  1  0  0  0
 26 24  1  0  0  0
 24 22  1  0  0  0
 22 23  2  0  0  0
 22 21  1  0  0  0
 21 20  1  0  0  0
 20 18  1  0  0  0
 18 19  2  0  0  0
 19 17  1  0  0  0
 17 16  1  0  0  0
 16  1  1  0  0  0
  1  2  1  0  0  0
  2  3  2  0  0  0
  2  5  1  0  0  0
  5  6  2  0  0  0
  6  7  1  0  0  0
  7  8  2  0  0  0
  8  9  1  0  0  0
  9 10  2  0  0  0
 10 11  1  0  0  0
 11 12  2  0  0  0
 12 13  1  0  0  0
 13 14  2  0  0  0
 14 15  1  0  0  0
 15 11  1  0  0  0
  1  4  1  0  0  0
M  END
> <minimizedAffinity>
8.99790

> <CNNscore>
0.5717223287

> <CNNaffinity>
5.8444538116

> <CNN_VS>
3.3414046764

> <CNNaffinity_variance>
0.6861389875

$$$$
[H]/C(=C(\[H])C([H])([H])C([H])([H])N([H])C(=O)/C([H])=C([H])/C([H])=C([H])/C([H])=C(\[H])c1sc([H])c([H])c1[H])C([H])([H])OC(=O)C([H])([H])C([H])(C([H])([H])[H])C([H])([H])[H]


 27 27  0  0  0  0  0  0  0  0999 V2000
   20.0014    7.3839   52.7139 N   0  0  0  0  0  0  0  0  0  0  0  0
   21.0540    7.8890   51.9286 C   0  0  0  0  0  0  0  0  0  0  0  0
   22.0249    7.1372   51.6636 O   0  0  0  0  0  0  0  0  0  0  0  0
   19.1875    8.0050   52.9371 H   0  0  0  0  0  0  0  0  0  0  0  0
   21.0412    9.2406   51.4256 C   0  0  0  0  0  0  0  0  0  0  0  0
   21.2802   10.3029   52.1395 C   0  0  0  0  0  0  0  0  0  0  0  0
   21.2526   11.6544   51.5694 C   0  0  0  0  0  0  0  0  0  0  0  0
   21.5305   12.7269   52.2531 C   0  0  0  0  0  0  0  0  0  0  0  0
   21.4951   14.0756   51.6541 C   0  0  0  0  0  0  0  0  0  0  0  0
   22.2617   14.3794   50.6322 C   0  0  0  0  0  0  0  0  0  0  0  0
   22.2172   15.7378   50.0388 C   0  0  0  0  0  0  0  0  0  0  0  0
   21.2707   16.2514   49.1941 C   0  0  0  0  0  0  0  0  0  0  0  0
   21.4363   17.5177   48.7793 C   0  0  0  0  0  0  0  0  0  0  0  0
   22.5393   18.1869   49.2381 C   0  0  0  0  0  0  0  0  0  0  0  0
   23.3065   17.0347   50.2281 S   0  0  0  0  0  0  0  0  0  0  0  0
   19.9707    6.0414   53.2407 C   0  0  0  0  0  0  0  0  0  0  0  0
   21.0580    5.7705   54.2636 C   0  0  0  0  0  0  0  0  0  0  0  0
   22.9917    7.1929   54.8556 C   0  0  0  0  0  0  0  0  0  0  0  0
   21.7052    7.0207   54.7021 C   0  0  0  0  0  0  0  0  0  0  0  0
   23.9626    6.1264   54.6011 C   0  0  0  0  0  0  0  0  0  0  0  0
   25.1958    6.6859   54.2073 O   0  0  0  0  0  0  0  0  0  0  0  0
   25.2369    7.8823   53.5333 C   0  0  0  0  0  0  0  0  0  0  0  0
   24.1738    8.4577   53.2226 O   0  0  0  0  0  0  0  0  0  0  0  0
   26.5238    8.5365   53.1489 C   0  0  0  0  0  0  0  0  0  0  0  0
   26.6364    8.9286   55.6176 C   0  0  0  0  0  0  0  0  0  0  0  0
   27.4129    8.6674   54.3665 C   0  0  0  0  0  0  0  0  0  0  0  0
   28.2886    7.4650   54.5603 C   0  0  0  0  0  0  0  0  0  0  0  0
 25 26  1  0  0  0
 26 27  1  0  0  0
 26 24  1  0  0  0
 24 22  1  0  0  0
 22 23  2  0  0  0
 22 21  1  0  0  0
 21 20  1  0  0  0
 20 18  1  0  0  0
 18 19  2  0  0  0
 19 17  1  0  0  0
 17 16  1  0  0  0
 16  1  1  0  0  0
  1  2  1  0  0  0
  2  3  2  0  0  0
  2  5  1  0  0  0
  5  6  2  0  0  0
  6  7  1  0  0  0
  7  8  2  0  0  0
  8  9  1  0  0  0
  9 10  2  0  0  0
 10 11  1  0  0  0
 11 12  2  0  0  0
 12 13  1  0  0  0
 13 14  2  0  0  0
 14 15  1  0  0  0
 15 11  1  0  0  0
  1  4  1  0  0  0
M  END
> <minimizedAffinity>
11.59493

> <CNNscore>
0.5711507797

> <CNNaffinity>
6.2101812363

> <CNN_VS>
3.5469498634

> <CNNaffinity_variance>
0.5751963854

$$$$
[H]/C(=C(\[H])C([H])([H])C([H])([H])N([H])C(=O)/C([H])=C([H])/C([H])=C([H])/C([H])=C(\[H])c1sc([H])c([H])c1[H])C([H])([H])OC(=O)C([H])([H])C([H])(C([H])([H])[H])C([H])([H])[H]


 27 27  0  0  0  0  0  0  0  0999 V2000
   25.8111    7.7929   54.2421 N   0  0  0  0  0  0  0  0  0  0  0  0
   24.4558    7.6449   53.8939 C   0  0  0  0  0  0  0  0  0  0  0  0
   23.9632    6.4898   53.8605 O   0  0  0  0  0  0  0  0  0  0  0  0
   26.2280    8.7538   54.2738 H   0  0  0  0  0  0  0  0  0  0  0  0
   23.6276    8.7824   53.5774 C   0  0  0  0  0  0  0  0  0  0  0  0
   22.3640    8.7207   53.2701 C   0  0  0  0  0  0  0  0  0  0  0  0
   21.5728    9.9159   52.9573 C   0  0  0  0  0  0  0  0  0  0  0  0
   21.9230   10.7938   52.0621 C   0  0  0  0  0  0  0  0  0  0  0  0
   21.1075   11.9884   51.7670 C   0  0  0  0  0  0  0  0  0  0  0  0
   21.3063   13.1156   52.4105 C   0  0  0  0  0  0  0  0  0  0  0  0
   20.4807   14.3091   52.1053 C   0  0  0  0  0  0  0  0  0  0  0  0
   20.4811   15.0559   50.9582 C   0  0  0  0  0  0  0  0  0  0  0  0
   19.6417   16.1026   50.9035 C   0  0  0  0  0  0  0  0  0  0  0  0
   18.8566   16.3326   52.0015 C   0  0  0  0  0  0  0  0  0  0  0  0
   19.3117   15.0886   53.0698 S   0  0  0  0  0  0  0  0  0  0  0  0
   26.6787    6.6864   54.5641 C   0  0  0  0  0  0  0  0  0  0  0  0
   28.0524    6.7933   53.9291 C   0  0  0  0  0  0  0  0  0  0  0  0
   28.2727    9.1461   53.2020 C   0  0  0  0  0  0  0  0  0  0  0  0
   28.5771    8.1686   54.0145 C   0  0  0  0  0  0  0  0  0  0  0  0
   27.3469    8.9753   52.0802 C   0  0  0  0  0  0  0  0  0  0  0  0
   28.0719    8.7605   50.8899 O   0  0  0  0  0  0  0  0  0  0  0  0
   28.0057    9.6652   49.8583 C   0  0  0  0  0  0  0  0  0  0  0  0
   27.1301   10.5547   49.8666 O   0  0  0  0  0  0  0  0  0  0  0  0
   28.9545    9.6294   48.7048 C   0  0  0  0  0  0  0  0  0  0  0  0
   28.7147    8.8905   46.3263 C   0  0  0  0  0  0  0  0  0  0  0  0
   28.5721    8.5070   47.7647 C   0  0  0  0  0  0  0  0  0  0  0  0
   29.3535    7.2544   48.0306 C   0  0  0  0  0  0  0  0  0  0  0  0
 25 26  1  0  0  0
 26 27  1  0  0  0
 26 24  1  0  0  0
 24 22  1  0  0  0
 22 23  2  0  0  0
 22 21  1  0  0  0
 21 20  1  0  0  0
 20 18  1  0  0  0
 18 19  2  0  0  0
 19 17  1  0  0  0
 17 16  1  0  0  0
 16  1  1  0  0  0
  1  2  1  0  0  0
  2  3  2  0  0  0
  2  5  1  0  0  0
  5  6  2  0  0  0
  6  7  1  0  0  0
  7  8  2  0  0  0
  8  9  1  0  0  0
  9 10  2  0  0  0
 10 11  1  0  0  0
 11 12  2  0  0  0
 12 13  1  0  0  0
 13 14  2  0  0  0
 14 15  1  0  0  0
 15 11  1  0  0  0
  1  4  1  0  0  0
M  END
> <minimizedAffinity>
24.33031

> <CNNscore>
0.5697921515

> <CNNaffinity>
5.4489097595

> <CNN_VS>
3.1047461033

> <CNNaffinity_variance>
0.1092403904

$$$$
[H]/C(=C(\[H])C([H])([H])C([H])([H])N([H])C(=O)/C([H])=C([H])/C([H])=C([H])/C([H])=C(\[H])c1sc([H])c([H])c1[H])C([H])([H])OC(=O)C([H])([H])C([H])(C([H])([H])[H])C([H])([H])[H]


 27 27  0  0  0  0  0  0  0  0999 V2000
   24.0082    9.0715   54.3560 N   0  0  0  0  0  0  0  0  0  0  0  0
   24.0473    9.2484   55.7514 C   0  0  0  0  0  0  0  0  0  0  0  0
   22.9654    9.2588   56.3898 O   0  0  0  0  0  0  0  0  0  0  0  0
   24.9071    9.0600   53.8176 H   0  0  0  0  0  0  0  0  0  0  0  0
   25.2934    9.4165   56.4579 C   0  0  0  0  0  0  0  0  0  0  0  0
   26.4531    9.5876   55.8915 C   0  0  0  0  0  0  0  0  0  0  0  0
   27.6881    9.7534   56.6658 C   0  0  0  0  0  0  0  0  0  0  0  0
   27.7546    9.5842   57.9549 C   0  0  0  0  0  0  0  0  0  0  0  0
   29.0113    9.7575   58.7097 C   0  0  0  0  0  0  0  0  0  0  0  0
   29.2071   10.8188   59.4577 C   0  0  0  0  0  0  0  0  0  0  0  0
   30.4737   10.9818   60.2115 C   0  0  0  0  0  0  0  0  0  0  0  0
   30.6579   11.6128   61.4121 C   0  0  0  0  0  0  0  0  0  0  0  0
   31.9044   11.6378   61.9109 C   0  0  0  0  0  0  0  0  0  0  0  0
   32.8850   11.0288   61.1743 C   0  0  0  0  0  0  0  0  0  0  0  0
   32.0419   10.4439   59.8167 S   0  0  0  0  0  0  0  0  0  0  0  0
   22.7877    8.9020   53.6061 C   0  0  0  0  0  0  0  0  0  0  0  0
   22.5311   10.0193   52.6123 C   0  0  0  0  0  0  0  0  0  0  0  0
   21.3158   12.1724   52.5938 C   0  0  0  0  0  0  0  0  0  0  0  0
   21.7319   11.1012   53.2164 C   0  0  0  0  0  0  0  0  0  0  0  0
   21.6092   12.4233   51.1810 C   0  0  0  0  0  0  0  0  0  0  0  0
   22.1354   13.7223   51.0249 O   0  0  0  0  0  0  0  0  0  0  0  0
   21.3157   14.7730   50.6912 C   0  0  0  0  0  0  0  0  0  0  0  0
   20.6845   14.7515   49.6147 O   0  0  0  0  0  0  0  0  0  0  0  0
   21.1443   15.9629   51.5782 C   0  0  0  0  0  0  0  0  0  0  0  0
   22.9584   17.6666   51.3200 C   0  0  0  0  0  0  0  0  0  0  0  0
   21.6125   17.2081   50.8569 C   0  0  0  0  0  0  0  0  0  0  0  0
   21.6279   17.0281   49.3678 C   0  0  0  0  0  0  0  0  0  0  0  0
 25 26  1  0  0  0
 26 27  1  0  0  0
 26 24  1  0  0  0
 24 22  1  0  0  0
 22 23  2  0  0  0
 22 21  1  0  0  0
 21 20  1  0  0  0
 20 18  1  0  0  0
 18 19  2  0  0  0
 19 17  1  0  0  0
 17 16  1  0  0  0
 16  1  1  0  0  0
  1  2  1  0  0  0
  2  3  2  0  0  0
  2  5  1  0  0  0
  5  6  2  0  0  0
  6  7  1  0  0  0
  7  8  2  0  0  0
  8  9  1  0  0  0
  9 10  2  0  0  0
 10 11  1  0  0  0
 11 12  2  0  0  0
 12 13  1  0  0  0
 13 14  2  0  0  0
 14 15  1  0  0  0
 15 11  1  0  0  0
  1  4  1  0  0  0
M  END
> <minimizedAffinity>
13.68145

> <CNNscore>
0.5631680489

> <CNNaffinity>
5.4876165390

> <CNN_VS>
3.0904502869

> <CNNaffinity_variance>
0.2134133875

$$$$
[H]/C(=C(\[H])C([H])([H])C([H])([H])N([H])C(=O)/C([H])=C([H])/C([H])=C([H])/C([H])=C(\[H])c1sc([H])c([H])c1[H])C([H])([H])OC(=O)C([H])([H])C([H])(C([H])([H])[H])C([H])([H])[H]


 27 27  0  0  0  0  0  0  0  0999 V2000
   22.2533   11.0873   53.2535 N   0  0  0  0  0  0  0  0  0  0  0  0
   22.1220    9.8824   53.9682 C   0  0  0  0  0  0  0  0  0  0  0  0
   21.1792    9.1056   53.6750 O   0  0  0  0  0  0  0  0  0  0  0  0
   23.0387   11.7389   53.4917 H   0  0  0  0  0  0  0  0  0  0  0  0
   23.0397    9.5236   55.0213 C   0  0  0  0  0  0  0  0  0  0  0  0
   24.3082    9.2834   54.8535 C   0  0  0  0  0  0  0  0  0  0  0  0
   25.1929    8.9223   55.9668 C   0  0  0  0  0  0  0  0  0  0  0  0
   26.3345    9.5054   56.1939 C   0  0  0  0  0  0  0  0  0  0  0  0
   27.2056    9.1221   57.3223 C   0  0  0  0  0  0  0  0  0  0  0  0
   27.9480   10.0158   57.9342 C   0  0  0  0  0  0  0  0  0  0  0  0
   28.8191    9.6187   59.0667 C   0  0  0  0  0  0  0  0  0  0  0  0
   29.4772   10.4381   59.9437 C   0  0  0  0  0  0  0  0  0  0  0  0
   30.2159    9.8518   60.8996 C   0  0  0  0  0  0  0  0  0  0  0  0
   30.2470    8.4830   60.9145 C   0  0  0  0  0  0  0  0  0  0  0  0
   29.2504    8.0592   59.6018 S   0  0  0  0  0  0  0  0  0  0  0  0
   21.3600   11.4899   52.1950 C   0  0  0  0  0  0  0  0  0  0  0  0
   21.8608   12.6850   51.4059 C   0  0  0  0  0  0  0  0  0  0  0  0
   20.5908   14.7352   50.8611 C   0  0  0  0  0  0  0  0  0  0  0  0
   20.7438   13.4384   50.8068 C   0  0  0  0  0  0  0  0  0  0  0  0
   21.5440   15.6103   51.5470 C   0  0  0  0  0  0  0  0  0  0  0  0
   21.4817   16.9083   50.9992 O   0  0  0  0  0  0  0  0  0  0  0  0
   22.3050   17.2686   49.9602 C   0  0  0  0  0  0  0  0  0  0  0  0
   23.4842   16.8605   49.9311 O   0  0  0  0  0  0  0  0  0  0  0  0
   21.8410   18.1447   48.8426 C   0  0  0  0  0  0  0  0  0  0  0  0
   21.7546   18.1772   46.3422 C   0  0  0  0  0  0  0  0  0  0  0  0
   22.5057   17.7191   47.5515 C   0  0  0  0  0  0  0  0  0  0  0  0
   23.9286   18.1864   47.4661 C   0  0  0  0  0  0  0  0  0  0  0  0
 25 26  1  0  0  0
 26 27  1  0  0  0
 26 24  1  0  0  0
 24 22  1  0  0  0
 22 23  2  0  0  0
 22 21  1  0  0  0
 21 20  1  0  0  0
 20 18  1  0  0  0
 18 19  2  0  0  0
 19 17  1  0  0  0
 17 16  1  0  0  0
 16  1  1  0  0  0
  1  2  1  0  0  0
  2  3  2  0  0  0
  2  5  1  0  0  0
  5  6  2  0  0  0
  6  7  1  0  0  0
  7  8  2  0  0  0
  8  9  1  0  0  0
  9 10  2  0  0  0
 10 11  1  0  0  0
 11 12  2  0  0  0
 12 13  1  0  0  0
 13 14  2  0  0  0
 14 15  1  0  0  0
 15 11  1  0  0  0
  1  4  1  0  0  0
M  END
> <minimizedAffinity>
9.71411

> <CNNscore>
0.5588737726

> <CNNaffinity>
5.5519819260

> <CNN_VS>
3.1028571129

> <CNNaffinity_variance>
0.4820998609

$$$$
[H]Oc1nc(N([H])c2c([H])c(OC([H])([H])[H])c([H])c([H])c2OC([H])([H])[H])c([H])c2c([H])c([H])c([H])c([H])c12


 24 26  0  0  0  0  0  0  0  0999 V2000
   24.9719   10.0093   54.7609 N   0  0  0  0  0  0  0  0  0  0  0  0
   25.0716   11.0255   54.3851 H   0  0  0  0  0  0  0  0  0  0  0  0
   23.6784    9.4965   54.7160 C   0  0  0  0  0  0  0  0  0  0  0  0
   23.3889    8.4523   53.8378 C   0  0  0  0  0  0  0  0  0  0  0  0
   22.1187    7.9095   53.7571 C   0  0  0  0  0  0  0  0  0  0  0  0
   21.8226    6.8759   52.8911 C   0  0  0  0  0  0  0  0  0  0  0  0
   20.5441    6.3707   52.8481 C   0  0  0  0  0  0  0  0  0  0  0  0
   19.5660    6.8755   53.6478 C   0  0  0  0  0  0  0  0  0  0  0  0
   19.8556    7.9029   54.5101 C   0  0  0  0  0  0  0  0  0  0  0  0
   21.1257    8.4122   54.5597 C   0  0  0  0  0  0  0  0  0  0  0  0
   21.4275    9.4445   55.4226 C   0  0  0  0  0  0  0  0  0  0  0  0
   20.4303    9.9567   56.2356 O   0  0  0  0  0  0  0  0  0  0  0  0
   22.6753    9.9222   55.4500 N   0  0  0  0  0  0  0  0  0  0  0  0
   20.3802    9.5936   57.1756 H   0  0  0  0  0  0  0  0  0  0  0  0
   27.8962    9.0490   56.9032 C   0  0  0  0  0  0  0  0  0  0  0  0
   28.5716    8.2734   55.9975 C   0  0  0  0  0  0  0  0  0  0  0  0
   28.0944    8.0639   54.7216 C   0  0  0  0  0  0  0  0  0  0  0  0
   26.9000    8.6452   54.3249 C   0  0  0  0  0  0  0  0  0  0  0  0
   26.1715    9.4442   55.2067 C   0  0  0  0  0  0  0  0  0  0  0  0
   26.6930    9.6230   56.4740 C   0  0  0  0  0  0  0  0  0  0  0  0
   28.7291    8.2307   59.0672 C   0  0  0  0  0  0  0  0  0  0  0  0
   28.3866    9.2540   58.1884 O   0  0  0  0  0  0  0  0  0  0  0  0
   26.3948    8.4545   53.0526 O   0  0  0  0  0  0  0  0  0  0  0  0
   25.3348    7.5251   52.8541 C   0  0  0  0  0  0  0  0  0  0  0  0
 21 22  1  0  0  0
 22 15  1  0  0  0
 15 16  2  0  0  0
 16 17  1  0  0  0
 17 18  2  0  0  0
 18 23  1  0  0  0
 23 24  1  0  0  0
 18 19  1  0  0  0
 19  1  1  0  0  0
  1  3  1  0  0  0
  3  4  2  0  0  0
  4  5  1  0  0  0
  5  6  2  0  0  0
  6  7  1  0  0  0
  7  8  2  0  0  0
  8  9  1  0  0  0
  9 10  2  0  0  0
 10 11  1  0  0  0
 11 12  1  0  0  0
 11 13  2  0  0  0
 19 20  2  0  0  0
 20 15  1  0  0  0
 13  3  1  0  0  0
 10  5  1  0  0  0
  1  2  1  0  0  0
 12 14  1  0  0  0
M  END
> <minimizedAffinity>
13.71898

> <CNNscore>
0.6662369967

> <CNNaffinity>
5.5166192055

> <CNN_VS>
3.6753757000

> <CNNaffinity_variance>
0.0855697319

$$$$
[H]Oc1nc(N([H])c2c([H])c(OC([H])([H])[H])c([H])c([H])c2OC([H])([H])[H])c([H])c2c([H])c([H])c([H])c([H])c12


 24 26  0  0  0  0  0  0  0  0999 V2000
   23.0357    8.4206   54.7671 N   0  0  0  0  0  0  0  0  0  0  0  0
   22.4883    7.8255   55.4951 H   0  0  0  0  0  0  0  0  0  0  0  0
   24.3922    8.5719   55.0410 C   0  0  0  0  0  0  0  0  0  0  0  0
   25.3278    7.9355   54.2255 C   0  0  0  0  0  0  0  0  0  0  0  0
   26.6866    8.0559   54.4576 C   0  0  0  0  0  0  0  0  0  0  0  0
   27.6200    7.4298   53.6559 C   0  0  0  0  0  0  0  0  0  0  0  0
   28.9598    7.5804   53.9282 C   0  0  0  0  0  0  0  0  0  0  0  0
   29.3787    8.3385   54.9774 C   0  0  0  0  0  0  0  0  0  0  0  0
   28.4544    8.9627   55.7770 C   0  0  0  0  0  0  0  0  0  0  0  0
   27.1185    8.8184   55.5135 C   0  0  0  0  0  0  0  0  0  0  0  0
   26.1815    9.4412   56.3105 C   0  0  0  0  0  0  0  0  0  0  0  0
   26.6102   10.2123   57.3779 O   0  0  0  0  0  0  0  0  0  0  0  0
   24.8844    9.2829   56.0303 N   0  0  0  0  0  0  0  0  0  0  0  0
   26.6855   11.2057   57.2185 H   0  0  0  0  0  0  0  0  0  0  0  0
   21.0993    8.6553   51.5642 C   0  0  0  0  0  0  0  0  0  0  0  0
   20.6785    9.9552   51.6705 C   0  0  0  0  0  0  0  0  0  0  0  0
   21.0120   10.7407   52.7527 C   0  0  0  0  0  0  0  0  0  0  0  0
   21.7938   10.2194   53.7720 C   0  0  0  0  0  0  0  0  0  0  0  0
   22.2495    8.9020   53.7148 C   0  0  0  0  0  0  0  0  0  0  0  0
   21.8876    8.1564   52.6088 C   0  0  0  0  0  0  0  0  0  0  0  0
   19.4525    7.6695   50.0272 C   0  0  0  0  0  0  0  0  0  0  0  0
   20.7571    7.8712   50.4678 O   0  0  0  0  0  0  0  0  0  0  0  0
   22.1454   10.9813   54.8703 O   0  0  0  0  0  0  0  0  0  0  0  0
   21.5540   10.6992   56.1343 C   0  0  0  0  0  0  0  0  0  0  0  0
 21 22  1  0  0  0
 22 15  1  0  0  0
 15 16  2  0  0  0
 16 17  1  0  0  0
 17 18  2  0  0  0
 18 23  1  0  0  0
 23 24  1  0  0  0
 18 19  1  0  0  0
 19  1  1  0  0  0
  1  3  1  0  0  0
  3  4  2  0  0  0
  4  5  1  0  0  0
  5  6  2  0  0  0
  6  7  1  0  0  0
  7  8  2  0  0  0
  8  9  1  0  0  0
  9 10  2  0  0  0
 10 11  1  0  0  0
 11 12  1  0  0  0
 11 13  2  0  0  0
 19 20  2  0  0  0
 20 15  1  0  0  0
 13  3  1  0  0  0
 10  5  1  0  0  0
  1  2  1  0  0  0
 12 14  1  0  0  0
M  END
> <minimizedAffinity>
17.10380

> <CNNscore>
0.6435725093

> <CNNaffinity>
5.6186800003

> <CNN_VS>
3.6160280704

> <CNNaffinity_variance>
0.0952909738

$$$$
[H]Oc1nc(N([H])c2c([H])c(OC([H])([H])[H])c([H])c([H])c2OC([H])([H])[H])c([H])c2c([H])c([H])c([H])c([H])c12


 24 26  0  0  0  0  0  0  0  0999 V2000
   23.4964    7.5126   52.6838 N   0  0  0  0  0  0  0  0  0  0  0  0
   23.9314    7.3707   51.6967 H   0  0  0  0  0  0  0  0  0  0  0  0
   24.3726    8.0225   53.6380 C   0  0  0  0  0  0  0  0  0  0  0  0
   25.7466    7.8704   53.4526 C   0  0  0  0  0  0  0  0  0  0  0  0
   26.6567    8.3598   54.3729 C   0  0  0  0  0  0  0  0  0  0  0  0
   28.0184    8.2141   54.1980 C   0  0  0  0  0  0  0  0  0  0  0  0
   28.8824    8.7184   55.1419 C   0  0  0  0  0  0  0  0  0  0  0  0
   28.4138    9.3597   56.2465 C   0  0  0  0  0  0  0  0  0  0  0  0
   27.0611    9.5069   56.4245 C   0  0  0  0  0  0  0  0  0  0  0  0
   26.1934    9.0080   55.4901 C   0  0  0  0  0  0  0  0  0  0  0  0
   24.8324    9.1504   55.6591 C   0  0  0  0  0  0  0  0  0  0  0  0
   24.3577    9.8035   56.7843 O   0  0  0  0  0  0  0  0  0  0  0  0
   24.0087    8.6537   54.7314 N   0  0  0  0  0  0  0  0  0  0  0  0
   24.1380   10.7828   56.6815 H   0  0  0  0  0  0  0  0  0  0  0  0
   20.3459    5.5801   53.3181 C   0  0  0  0  0  0  0  0  0  0  0  0
   19.4383    6.5221   52.9097 C   0  0  0  0  0  0  0  0  0  0  0  0
   19.8335    7.7558   52.4391 C   0  0  0  0  0  0  0  0  0  0  0  0
   21.1818    8.0710   52.3697 C   0  0  0  0  0  0  0  0  0  0  0  0
   22.1485    7.1491   52.7725 C   0  0  0  0  0  0  0  0  0  0  0  0
   21.7004    5.9268   53.2363 C   0  0  0  0  0  0  0  0  0  0  0  0
   18.6167    3.8963   53.7886 C   0  0  0  0  0  0  0  0  0  0  0  0
   19.9365    4.3381   53.7914 O   0  0  0  0  0  0  0  0  0  0  0  0
   21.6102    9.2992   51.9025 O   0  0  0  0  0  0  0  0  0  0  0  0
   21.5221   10.4388   52.7513 C   0  0  0  0  0  0  0  0  0  0  0  0
 21 22  1  0  0  0
 22 15  1  0  0  0
 15 16  2  0  0  0
 16 17  1  0  0  0
 17 18  2  0  0  0
 18 23  1  0  0  0
 23 24  1  0  0  0
 18 19  1  0  0  0
 19  1  1  0  0  0
  1  3  1  0  0  0
  3  4  2  0  0  0
  4  5  1  0  0  0
  5  6  2  0  0  0
  6  7  1  0  0  0
  7  8  2  0  0  0
  8  9  1  0  0  0
  9 10  2  0  0  0
 10 11  1  0  0  0
 11 12  1  0  0  0
 11 13  2  0  0  0
 19 20  2  0  0  0
 20 15  1  0  0  0
 13  3  1  0  0  0
 10  5  1  0  0  0
  1  2  1  0  0  0
 12 14  1  0  0  0
M  END
> <minimizedAffinity>
7.62109

> <CNNscore>
0.6310260296

> <CNNaffinity>
5.9797224998

> <CNN_VS>
3.7733604908

> <CNNaffinity_variance>
0.1810768247

$$$$
[H]Oc1nc(N([H])c2c([H])c(OC([H])([H])[H])c([H])c([H])c2OC([H])([H])[H])c([H])c2c([H])c([H])c([H])c([H])c12


 24 26  0  0  0  0  0  0  0  0999 V2000
   23.9641    7.9384   52.7516 N   0  0  0  0  0  0  0  0  0  0  0  0
   24.1223    8.1487   51.6959 H   0  0  0  0  0  0  0  0  0  0  0  0
   25.0874    8.1145   53.5548 C   0  0  0  0  0  0  0  0  0  0  0  0
   24.9736    8.8491   54.7349 C   0  0  0  0  0  0  0  0  0  0  0  0
   26.0614    9.0514   55.5658 C   0  0  0  0  0  0  0  0  0  0  0  0
   25.9585    9.7770   56.7358 C   0  0  0  0  0  0  0  0  0  0  0  0
   27.0695    9.9500   57.5280 C   0  0  0  0  0  0  0  0  0  0  0  0
   28.2697    9.4155   57.1747 C   0  0  0  0  0  0  0  0  0  0  0  0
   28.3767    8.6935   56.0126 C   0  0  0  0  0  0  0  0  0  0  0  0
   27.2760    8.5161   55.2178 C   0  0  0  0  0  0  0  0  0  0  0  0
   27.3724    7.7924   54.0481 C   0  0  0  0  0  0  0  0  0  0  0  0
   28.5952    7.2493   53.6905 O   0  0  0  0  0  0  0  0  0  0  0  0
   26.2822    7.6353   53.2915 N   0  0  0  0  0  0  0  0  0  0  0  0
   28.7535    6.2847   53.9404 H   0  0  0  0  0  0  0  0  0  0  0  0
   20.9435    5.8353   53.4703 C   0  0  0  0  0  0  0  0  0  0  0  0
   20.0401    6.8402   53.6986 C   0  0  0  0  0  0  0  0  0  0  0  0
   20.3970    8.1693   53.6225 C   0  0  0  0  0  0  0  0  0  0  0  0
   21.7010    8.5191   53.3078 C   0  0  0  0  0  0  0  0  0  0  0  0
   22.6614    7.5365   53.0657 C   0  0  0  0  0  0  0  0  0  0  0  0
   22.2528    6.2192   53.1544 C   0  0  0  0  0  0  0  0  0  0  0  0
   19.2550    4.0516   53.5871 C   0  0  0  0  0  0  0  0  0  0  0  0
   20.5730    4.4972   53.5495 O   0  0  0  0  0  0  0  0  0  0  0  0
   22.0903    9.8427   53.2237 O   0  0  0  0  0  0  0  0  0  0  0  0
   21.5867   10.7802   54.1693 C   0  0  0  0  0  0  0  0  0  0  0  0
 21 22  1  0  0  0
 22 15  1  0  0  0
 15 16  2  0  0  0
 16 17  1  0  0  0
 17 18  2  0  0  0
 18 23  1  0  0  0
 23 24  1  0  0  0
 18 19  1  0  0  0
 19  1  1  0  0  0
  1  3  1  0  0  0
  3  4  2  0  0  0
  4  5  1  0  0  0
  5  6  2  0  0  0
  6  7  1  0  0  0
  7  8  2  0  0  0
  8  9  1  0  0  0
  9 10  2  0  0  0
 10 11  1  0  0  0
 11 12  1  0  0  0
 11 13  2  0  0  0
 19 20  2  0  0  0
 20 15  1  0  0  0
 13  3  1  0  0  0
 10  5  1  0  0  0
  1  2  1  0  0  0
 12 14  1  0  0  0
M  END
> <minimizedAffinity>
9.08488

> <CNNscore>
0.6216641068

> <CNNaffinity>
5.6691679955

> <CNN_VS>
3.5243182182

> <CNNaffinity_variance>
0.0490922555

$$$$
[H]Oc1nc(N([H])c2c([H])c(OC([H])([H])[H])c([H])c([H])c2OC([H])([H])[H])c([H])c2c([H])c([H])c([H])c([H])c12


 24 26  0  0  0  0  0  0  0  0999 V2000
   24.0801    9.3109   55.6584 N   0  0  0  0  0  0  0  0  0  0  0  0
   23.6883    9.7157   56.5892 H   0  0  0  0  0  0  0  0  0  0  0  0
   23.1171    9.0435   54.6892 C   0  0  0  0  0  0  0  0  0  0  0  0
   22.4915    7.7971   54.6751 C   0  0  0  0  0  0  0  0  0  0  0  0
   21.5286    7.4845   53.7318 C   0  0  0  0  0  0  0  0  0  0  0  0
   20.9038    6.2536   53.7099 C   0  0  0  0  0  0  0  0  0  0  0  0
   19.9528    5.9912   52.7515 C   0  0  0  0  0  0  0  0  0  0  0  0
   19.6186    6.9286   51.8238 C   0  0  0  0  0  0  0  0  0  0  0  0
   20.2370    8.1535   51.8417 C   0  0  0  0  0  0  0  0  0  0  0  0
   21.1849    8.4235   52.7922 C   0  0  0  0  0  0  0  0  0  0  0  0
   21.8124    9.6510   52.8192 C   0  0  0  0  0  0  0  0  0  0  0  0
   21.4706   10.6036   51.8738 O   0  0  0  0  0  0  0  0  0  0  0  0
   22.7338    9.8873   53.7578 N   0  0  0  0  0  0  0  0  0  0  0  0
   20.7853   11.2908   52.1497 H   0  0  0  0  0  0  0  0  0  0  0  0
   27.7010    9.3894   56.6312 C   0  0  0  0  0  0  0  0  0  0  0  0
   28.2275    8.7811   55.5218 C   0  0  0  0  0  0  0  0  0  0  0  0
   27.4317    8.3540   54.4807 C   0  0  0  0  0  0  0  0  0  0  0  0
   26.0586    8.5359   54.5391 C   0  0  0  0  0  0  0  0  0  0  0  0
   25.4696    9.1494   55.6450 C   0  0  0  0  0  0  0  0  0  0  0  0
   26.3111    9.5594   56.6618 C   0  0  0  0  0  0  0  0  0  0  0  0
   28.5102    9.2539   58.9492 C   0  0  0  0  0  0  0  0  0  0  0  0
   28.5129    9.8166   57.6763 O   0  0  0  0  0  0  0  0  0  0  0  0
   25.2334    8.1189   53.5116 O   0  0  0  0  0  0  0  0  0  0  0  0
   24.8934    6.7406   53.4045 C   0  0  0  0  0  0  0  0  0  0  0  0
 21 22  1  0  0  0
 22 15  1  0  0  0
 15 16  2  0  0  0
 16 17  1  0  0  0
 17 18  2  0  0  0
 18 23  1  0  0  0
 23 24  1  0  0  0
 18 19  1  0  0  0
 19  1  1  0  0  0
  1  3  1  0  0  0
  3  4  2  0  0  0
  4  5  1  0  0  0
  5  6  2  0  0  0
  6  7  1  0  0  0
  7  8  2  0  0  0
  8  9  1  0  0  0
  9 10  2  0  0  0
 10 11  1  0  0  0
 11 12  1  0  0  0
 11 13  2  0  0  0
 19 20  2  0  0  0
 20 15  1  0  0  0
 13  3  1  0  0  0
 10  5  1  0  0  0
  1  2  1  0  0  0
 12 14  1  0  0  0
M  END
> <minimizedAffinity>
5.92537

> <CNNscore>
0.6166161299

> <CNNaffinity>
5.4016871452

> <CNN_VS>
3.3307673931

> <CNNaffinity_variance>
0.0751847252

$$$$
[H]Oc1nc(N([H])c2c([H])c(OC([H])([H])[H])c([H])c([H])c2OC([H])([H])[H])c([H])c2c([H])c([H])c([H])c([H])c12


 24 26  0  0  0  0  0  0  0  0999 V2000
   24.3768    8.9302   55.9800 N   0  0  0  0  0  0  0  0  0  0  0  0
   23.9210    9.2326   56.9205 H   0  0  0  0  0  0  0  0  0  0  0  0
   23.4785    8.4815   55.0157 C   0  0  0  0  0  0  0  0  0  0  0  0
   22.9365    9.3944   54.1113 C   0  0  0  0  0  0  0  0  0  0  0  0
   22.0400    8.9965   53.1353 C   0  0  0  0  0  0  0  0  0  0  0  0
   21.4982    9.8928   52.2357 C   0  0  0  0  0  0  0  0  0  0  0  0
   20.6109    9.4476   51.2839 C   0  0  0  0  0  0  0  0  0  0  0  0
   20.2591    8.1351   51.2160 C   0  0  0  0  0  0  0  0  0  0  0  0
   20.7950    7.2406   52.1081 C   0  0  0  0  0  0  0  0  0  0  0  0
   21.6792    7.6748   53.0591 C   0  0  0  0  0  0  0  0  0  0  0  0
   22.2236    6.7845   53.9603 C   0  0  0  0  0  0  0  0  0  0  0  0
   21.8640    5.4490   53.8894 O   0  0  0  0  0  0  0  0  0  0  0  0
   23.0839    7.2358   54.8780 N   0  0  0  0  0  0  0  0  0  0  0  0
   22.4845    4.8387   53.3789 H   0  0  0  0  0  0  0  0  0  0  0  0
   27.8961    9.9175   56.8186 C   0  0  0  0  0  0  0  0  0  0  0  0
   28.5437    9.2582   55.8067 C   0  0  0  0  0  0  0  0  0  0  0  0
   27.8601    8.5102   54.8725 C   0  0  0  0  0  0  0  0  0  0  0  0
   26.4791    8.4099   54.9418 C   0  0  0  0  0  0  0  0  0  0  0  0
   25.7694    9.0608   55.9513 C   0  0  0  0  0  0  0  0  0  0  0  0
   26.5014    9.7979   56.8629 C   0  0  0  0  0  0  0  0  0  0  0  0
   28.7846   10.2882   59.0812 C   0  0  0  0  0  0  0  0  0  0  0  0
   28.5955   10.6697   57.7562 O   0  0  0  0  0  0  0  0  0  0  0  0
   25.7647    7.6678   54.0203 O   0  0  0  0  0  0  0  0  0  0  0  0
   25.6137    8.1602   52.6931 C   0  0  0  0  0  0  0  0  0  0  0  0
 21 22  1  0  0  0
 22 15  1  0  0  0
 15 16  2  0  0  0
 16 17  1  0  0  0
 17 18  2  0  0  0
 18 23  1  0  0  0
 23 24  1  0  0  0
 18 19  1  0  0  0
 19  1  1  0  0  0
  1  3  1  0  0  0
  3  4  2  0  0  0
  4  5  1  0  0  0
  5  6  2  0  0  0
  6  7  1  0  0  0
  7  8  2  0  0  0
  8  9  1  0  0  0
  9 10  2  0  0  0
 10 11  1  0  0  0
 11 12  1  0  0  0
 11 13  2  0  0  0
 19 20  2  0  0  0
 20 15  1  0  0  0
 13  3  1  0  0  0
 10  5  1  0  0  0
  1  2  1  0  0  0
 12 14  1  0  0  0
M  END
> <minimizedAffinity>
4.51116

> <CNNscore>
0.6161007285

> <CNNaffinity>
5.7495260239

> <CNN_VS>
3.5422871113

> <CNNaffinity_variance>
0.0728213489

$$$$
[H]Oc1nc(N([H])c2c([H])c(OC([H])([H])[H])c([H])c([H])c2OC([H])([H])[H])c([H])c2c([H])c([H])c([H])c([H])c12


 24 26  0  0  0  0  0  0  0  0999 V2000
   26.1050    8.0110   52.5051 N   0  0  0  0  0  0  0  0  0  0  0  0
   26.3203    7.0857   51.9748 H   0  0  0  0  0  0  0  0  0  0  0  0
   24.8019    8.1180   52.9833 C   0  0  0  0  0  0  0  0  0  0  0  0
   24.3788    7.2691   54.0059 C   0  0  0  0  0  0  0  0  0  0  0  0
   23.0936    7.3374   54.5140 C   0  0  0  0  0  0  0  0  0  0  0  0
   22.6658    6.5015   55.5260 C   0  0  0  0  0  0  0  0  0  0  0  0
   21.3780    6.6087   55.9970 C   0  0  0  0  0  0  0  0  0  0  0  0
   20.5189    7.5280   55.4794 C   0  0  0  0  0  0  0  0  0  0  0  0
   20.9398    8.3609   54.4733 C   0  0  0  0  0  0  0  0  0  0  0  0
   22.2201    8.2614   53.9981 C   0  0  0  0  0  0  0  0  0  0  0  0
   22.6532    9.0934   52.9876 C   0  0  0  0  0  0  0  0  0  0  0  0
   21.7770   10.0283   52.4622 O   0  0  0  0  0  0  0  0  0  0  0  0
   23.9078    8.9742   52.5430 N   0  0  0  0  0  0  0  0  0  0  0  0
   21.8316   10.9629   52.8384 H   0  0  0  0  0  0  0  0  0  0  0  0
   28.8176   10.4411   51.6106 C   0  0  0  0  0  0  0  0  0  0  0  0
   29.3580   10.6176   52.8575 C   0  0  0  0  0  0  0  0  0  0  0  0
   28.8584    9.9665   53.9648 C   0  0  0  0  0  0  0  0  0  0  0  0
   27.7799    9.1054   53.8337 C   0  0  0  0  0  0  0  0  0  0  0  0
   27.1911    8.8889   52.5876 C   0  0  0  0  0  0  0  0  0  0  0  0
   27.7292    9.5654   51.5092 C   0  0  0  0  0  0  0  0  0  0  0  0
   28.6823   11.1825   49.2701 C   0  0  0  0  0  0  0  0  0  0  0  0
   29.3293   11.1029   50.4997 O   0  0  0  0  0  0  0  0  0  0  0  0
   27.2558    8.4377   54.9246 O   0  0  0  0  0  0  0  0  0  0  0  0
   27.3193    9.0439   56.2111 C   0  0  0  0  0  0  0  0  0  0  0  0
 21 22  1  0  0  0
 22 15  1  0  0  0
 15 16  2  0  0  0
 16 17  1  0  0  0
 17 18  2  0  0  0
 18 23  1  0  0  0
 23 24  1  0  0  0
 18 19  1  0  0  0
 19  1  1  0  0  0
  1  3  1  0  0  0
  3  4  2  0  0  0
  4  5  1  0  0  0
  5  6  2  0  0  0
  6  7  1  0  0  0
  7  8  2  0  0  0
  8  9  1  0  0  0
  9 10  2  0  0  0
 10 11  1  0  0  0
 11 12  1  0  0  0
 11 13  2  0  0  0
 19 20  2  0  0  0
 20 15  1  0  0  0
 13  3  1  0  0  0
 10  5  1  0  0  0
  1  2  1  0  0  0
 12 14  1  0  0  0
M  END
> <minimizedAffinity>
25.55169

> <CNNscore>
0.6115165949

> <CNNaffinity>
5.2034001350

> <CNN_VS>
3.1819655895

> <CNNaffinity_variance>
0.1320051104

$$$$
[H]Oc1nc(N([H])c2c([H])c(OC([H])([H])[H])c([H])c([H])c2OC([H])([H])[H])c([H])c2c([H])c([H])c([H])c([H])c12


 24 26  0  0  0  0  0  0  0  0999 V2000
   24.2505    7.1443   53.0352 N   0  0  0  0  0  0  0  0  0  0  0  0
   24.4300    6.2299   52.4737 H   0  0  0  0  0  0  0  0  0  0  0  0
   25.3451    7.6058   53.7612 C   0  0  0  0  0  0  0  0  0  0  0  0
   25.1348    8.4626   54.8415 C   0  0  0  0  0  0  0  0  0  0  0  0
   26.1906    8.9475   55.5930 C   0  0  0  0  0  0  0  0  0  0  0  0
   25.9923    9.7959   56.6640 C   0  0  0  0  0  0  0  0  0  0  0  0
   27.0750   10.2508   57.3799 C   0  0  0  0  0  0  0  0  0  0  0  0
   28.3399    9.8761   57.0475 C   0  0  0  0  0  0  0  0  0  0  0  0
   28.5418    9.0329   55.9838 C   0  0  0  0  0  0  0  0  0  0  0  0
   27.4699    8.5751   55.2653 C   0  0  0  0  0  0  0  0  0  0  0  0
   27.6615    7.7275   54.1947 C   0  0  0  0  0  0  0  0  0  0  0  0
   28.9500    7.3475   53.8582 O   0  0  0  0  0  0  0  0  0  0  0  0
   26.5973    7.2962   53.5111 N   0  0  0  0  0  0  0  0  0  0  0  0
   29.2719    6.4633   54.2224 H   0  0  0  0  0  0  0  0  0  0  0  0
   21.3399    9.3288   52.1297 C   0  0  0  0  0  0  0  0  0  0  0  0
   20.3367    8.5800   52.6871 C   0  0  0  0  0  0  0  0  0  0  0  0
   20.5927    7.3946   53.3419 C   0  0  0  0  0  0  0  0  0  0  0  0
   21.8946    6.9304   53.4499 C   0  0  0  0  0  0  0  0  0  0  0  0
   22.9543    7.6529   52.9007 C   0  0  0  0  0  0  0  0  0  0  0  0
   22.6445    8.8348   52.2547 C   0  0  0  0  0  0  0  0  0  0  0  0
   21.5999   11.7568   51.8404 C   0  0  0  0  0  0  0  0  0  0  0  0
   21.0707   10.5237   51.4710 O   0  0  0  0  0  0  0  0  0  0  0  0
   22.1842    5.7456   54.1002 O   0  0  0  0  0  0  0  0  0  0  0  0
   22.7483    5.7858   55.4066 C   0  0  0  0  0  0  0  0  0  0  0  0
 21 22  1  0  0  0
 22 15  1  0  0  0
 15 16  2  0  0  0
 16 17  1  0  0  0
 17 18  2  0  0  0
 18 23  1  0  0  0
 23 24  1  0  0  0
 18 19  1  0  0  0
 19  1  1  0  0  0
  1  3  1  0  0  0
  3  4  2  0  0  0
  4  5  1  0  0  0
  5  6  2  0  0  0
  6  7  1  0  0  0
  7  8  2  0  0  0
  8  9  1  0  0  0
  9 10  2  0  0  0
 10 11  1  0  0  0
 11 12  1  0  0  0
 11 13  2  0  0  0
 19 20  2  0  0  0
 20 15  1  0  0  0
 13  3  1  0  0  0
 10  5  1  0  0  0
  1  2  1  0  0  0
 12 14  1  0  0  0
M  END
> <minimizedAffinity>
7.40327

> <CNNscore>
0.6049337387

> <CNNaffinity>
5.4449605942

> <CNN_VS>
3.2938404083

> <CNNaffinity_variance>
0.0659629852

$$$$
[H]Oc1nc(N([H])c2c([H])c(OC([H])([H])[H])c([H])c([H])c2OC([H])([H])[H])c([H])c2c([H])c([H])c([H])c([H])c12


 24 26  0  0  0  0  0  0  0  0999 V2000
   23.2163    8.7437   53.7887 N   0  0  0  0  0  0  0  0  0  0  0  0
   22.8176    7.7996   53.4234 H   0  0  0  0  0  0  0  0  0  0  0  0
   24.5122    8.6723   54.2922 C   0  0  0  0  0  0  0  0  0  0  0  0
   25.5003    8.0326   53.5440 C   0  0  0  0  0  0  0  0  0  0  0  0
   26.8023    7.9361   54.0022 C   0  0  0  0  0  0  0  0  0  0  0  0
   27.7871    7.3049   53.2687 C   0  0  0  0  0  0  0  0  0  0  0  0
   29.0668    7.2352   53.7679 C   0  0  0  0  0  0  0  0  0  0  0  0
   29.3764    7.7802   54.9754 C   0  0  0  0  0  0  0  0  0  0  0  0
   28.4009    8.4085   55.7080 C   0  0  0  0  0  0  0  0  0  0  0  0
   27.1241    8.4827   55.2190 C   0  0  0  0  0  0  0  0  0  0  0  0
   26.1363    9.1117   55.9468 C   0  0  0  0  0  0  0  0  0  0  0  0
   26.4538    9.6656   57.1758 O   0  0  0  0  0  0  0  0  0  0  0  0
   24.8989    9.1692   55.4454 N   0  0  0  0  0  0  0  0  0  0  0  0
   26.6647   10.6522   57.1877 H   0  0  0  0  0  0  0  0  0  0  0  0
   21.4430   11.7930   52.5156 C   0  0  0  0  0  0  0  0  0  0  0  0
   20.5288   11.9388   53.5260 C   0  0  0  0  0  0  0  0  0  0  0  0
   20.4844   11.0718   54.5965 C   0  0  0  0  0  0  0  0  0  0  0  0
   21.3810   10.0171   54.6709 C   0  0  0  0  0  0  0  0  0  0  0  0
   22.3328    9.8219   53.6698 C   0  0  0  0  0  0  0  0  0  0  0  0
   22.3357   10.7187   52.6182 C   0  0  0  0  0  0  0  0  0  0  0  0
   20.9036   12.4164   50.1990 C   0  0  0  0  0  0  0  0  0  0  0  0
   21.4793   12.6735   51.4397 O   0  0  0  0  0  0  0  0  0  0  0  0
   21.3622    9.1306   55.7312 O   0  0  0  0  0  0  0  0  0  0  0  0
   20.5132    7.9894   55.6725 C   0  0  0  0  0  0  0  0  0  0  0  0
 21 22  1  0  0  0
 22 15  1  0  0  0
 15 16  2  0  0  0
 16 17  1  0  0  0
 17 18  2  0  0  0
 18 23  1  0  0  0
 23 24  1  0  0  0
 18 19  1  0  0  0
 19  1  1  0  0  0
  1  3  1  0  0  0
  3  4  2  0  0  0
  4  5  1  0  0  0
  5  6  2  0  0  0
  6  7  1  0  0  0
  7  8  2  0  0  0
  8  9  1  0  0  0
  9 10  2  0  0  0
 10 11  1  0  0  0
 11 12  1  0  0  0
 11 13  2  0  0  0
 19 20  2  0  0  0
 20 15  1  0  0  0
 13  3  1  0  0  0
 10  5  1  0  0  0
  1  2  1  0  0  0
 12 14  1  0  0  0
M  END
> <minimizedAffinity>
24.14460

> <CNNscore>
0.6036984921

> <CNNaffinity>
5.2600269318

> <CNN_VS>
3.1754703522

> <CNNaffinity_variance>
0.0930256024

$$$$
[H]Oc1c([H])c2c(c([H])c1O[H])[C@]1([H])c3c(sc(Cl)c3[H])C([H])([H])N([H])[C@@]1([H])C([H])([H])C2([H])[H]


 23 26  0  0  0  0  0  0  0  0999 V2000
   28.7272    9.1122   55.7613 O   0  0  0  0  0  0  0  0  0  0  0  0
   27.4571    8.8361   55.2910 C   0  0  0  0  0  0  0  0  0  0  0  0
   27.3437    8.0306   54.1703 C   0  0  0  0  0  0  0  0  0  0  0  0
   26.1024    7.7512   53.6967 C   0  0  0  0  0  0  0  0  0  0  0  0
   24.9612    8.2703   54.3318 C   0  0  0  0  0  0  0  0  0  0  0  0
   25.0867    9.0613   55.4355 C   0  0  0  0  0  0  0  0  0  0  0  0
   26.3616    9.3575   55.9349 C   0  0  0  0  0  0  0  0  0  0  0  0
   26.5491   10.1554   57.0510 O   0  0  0  0  0  0  0  0  0  0  0  0
   23.7104    7.8560   53.6654 C   0  0  0  0  0  0  0  0  0  0  0  0
   22.4657    8.4822   54.1672 C   0  0  0  0  0  0  0  0  0  0  0  0
   22.2725    9.8159   54.3974 C   0  0  0  0  0  0  0  0  0  0  0  0
   21.0509   10.1935   54.8542 C   0  0  0  0  0  0  0  0  0  0  0  0
   20.4974   11.8177   55.2428 Cl  0  0  0  0  0  0  0  0  0  0  0  0
   20.1945    8.7254   54.9588 S   0  0  0  0  0  0  0  0  0  0  0  0
   21.4040    7.6660   54.4207 C   0  0  0  0  0  0  0  0  0  0  0  0
   21.4140    6.1855   54.2057 C   0  0  0  0  0  0  0  0  0  0  0  0
   22.4200    5.8979   53.1886 N   0  0  0  0  0  0  0  0  0  0  0  0
   23.6823    6.3747   53.6998 C   0  0  0  0  0  0  0  0  0  0  0  0
   24.8526    5.8035   52.9198 C   0  0  0  0  0  0  0  0  0  0  0  0
   25.8551    6.8734   52.5136 C   0  0  0  0  0  0  0  0  0  0  0  0
   29.5542    8.7452   55.3122 H   0  0  0  0  0  0  0  0  0  0  0  0
   25.8106   10.5722   57.5752 H   0  0  0  0  0  0  0  0  0  0  0  0
   22.3971    4.8834   52.9966 H   0  0  0  0  0  0  0  0  0  0  0  0
  1  2  1  0  0  0
  2  3  2  0  0  0
  3  4  1  0  0  0
  4  5  2  0  0  0
  5  6  1  0  0  0
  6  7  2  0  0  0
  7  8  1  0  0  0
  5  9  1  0  0  0
  9 10  1  0  0  0
 10 11  1  0  0  0
 11 12  2  0  0  0
 12 13  1  0  0  0
 12 14  1  0  0  0
 14 15  1  0  0  0
 15 16  1  0  0  0
 16 17  1  0  0  0
 17 18  1  0  0  0
 18 19  1  0  0  0
 19 20  1  0  0  0
  7  2  1  0  0  0
 18  9  1  0  0  0
 20  4  1  0  0  0
 15 10  2  0  0  0
  1 21  1  0  0  0
  8 22  1  0  0  0
 17 23  1  0  0  0
M  END
> <minimizedAffinity>
15.87741

> <CNNscore>
0.5836014748

> <CNNaffinity>
5.5996065140

> <CNN_VS>
3.2679386139

> <CNNaffinity_variance>
0.5069459081

$$$$
[H]Oc1c([H])c2c(c([H])c1O[H])[C@]1([H])c3c(sc(Cl)c3[H])C([H])([H])N([H])[C@@]1([H])C([H])([H])C2([H])[H]


 23 26  0  0  0  0  0  0  0  0999 V2000
   20.4229   13.5070   52.1696 O   0  0  0  0  0  0  0  0  0  0  0  0
   20.9885   12.3799   52.7356 C   0  0  0  0  0  0  0  0  0  0  0  0
   20.5292   11.9815   53.9798 C   0  0  0  0  0  0  0  0  0  0  0  0
   21.0759   10.8764   54.5483 C   0  0  0  0  0  0  0  0  0  0  0  0
   22.0851   10.1567   53.8863 C   0  0  0  0  0  0  0  0  0  0  0  0
   22.5277   10.5590   52.6607 C   0  0  0  0  0  0  0  0  0  0  0  0
   21.9723   11.6975   52.0625 C   0  0  0  0  0  0  0  0  0  0  0  0
   22.3830   12.1525   50.8209 O   0  0  0  0  0  0  0  0  0  0  0  0
   22.5500    8.9933   54.6678 C   0  0  0  0  0  0  0  0  0  0  0  0
   23.7206    8.2676   54.1237 C   0  0  0  0  0  0  0  0  0  0  0  0
   24.8835    8.8340   53.6811 C   0  0  0  0  0  0  0  0  0  0  0  0
   25.8451    7.9925   53.2220 C   0  0  0  0  0  0  0  0  0  0  0  0
   27.4337    8.4089   52.5906 Cl  0  0  0  0  0  0  0  0  0  0  0  0
   25.1445    6.4513   53.4040 S   0  0  0  0  0  0  0  0  0  0  0  0
   23.6486    6.9082   54.0585 C   0  0  0  0  0  0  0  0  0  0  0  0
   22.4715    6.1075   54.5190 C   0  0  0  0  0  0  0  0  0  0  0  0
   21.7702    6.8992   55.5242 N   0  0  0  0  0  0  0  0  0  0  0  0
   21.3665    8.1280   54.8845 C   0  0  0  0  0  0  0  0  0  0  0  0
   20.3145    8.8614   55.6967 C   0  0  0  0  0  0  0  0  0  0  0  0
   20.6428   10.3365   55.8721 C   0  0  0  0  0  0  0  0  0  0  0  0
   19.6977   14.0324   52.6368 H   0  0  0  0  0  0  0  0  0  0  0  0
   23.0887   11.7173   50.2673 H   0  0  0  0  0  0  0  0  0  0  0  0
   20.9859    6.3324   55.8850 H   0  0  0  0  0  0  0  0  0  0  0  0
  1  2  1  0  0  0
  2  3  2  0  0  0
  3  4  1  0  0  0
  4  5  2  0  0  0
  5  6  1  0  0  0
  6  7  2  0  0  0
  7  8  1  0  0  0
  5  9  1  0  0  0
  9 10  1  0  0  0
 10 11  1  0  0  0
 11 12  2  0  0  0
 12 13  1  0  0  0
 12 14  1  0  0  0
 14 15  1  0  0  0
 15 16  1  0  0  0
 16 17  1  0  0  0
 17 18  1  0  0  0
 18 19  1  0  0  0
 19 20  1  0  0  0
  7  2  1  0  0  0
 18  9  1  0  0  0
 20  4  1  0  0  0
 15 10  2  0  0  0
  1 21  1  0  0  0
  8 22  1  0  0  0
 17 23  1  0  0  0
M  END
> <minimizedAffinity>
22.88138

> <CNNscore>
0.5731830001

> <CNNaffinity>
5.8743505478

> <CNN_VS>
3.3670778275

> <CNNaffinity_variance>
0.4598536491

$$$$
[H]Oc1c([H])c2c(c([H])c1O[H])[C@]1([H])c3c(sc(Cl)c3[H])C([H])([H])N([H])[C@@]1([H])C([H])([H])C2([H])[H]


 23 26  0  0  0  0  0  0  0  0999 V2000
   19.9382    9.2513   55.0963 O   0  0  0  0  0  0  0  0  0  0  0  0
   21.2804    8.9276   55.0293 C   0  0  0  0  0  0  0  0  0  0  0  0
   21.6185    7.6622   54.5798 C   0  0  0  0  0  0  0  0  0  0  0  0
   22.9330    7.3300   54.5090 C   0  0  0  0  0  0  0  0  0  0  0  0
   23.9247    8.2520   54.8853 C   0  0  0  0  0  0  0  0  0  0  0  0
   23.5783    9.4954   55.3252 C   0  0  0  0  0  0  0  0  0  0  0  0
   22.2256    9.8514   55.4030 C   0  0  0  0  0  0  0  0  0  0  0  0
   21.8158   11.0988   55.8428 O   0  0  0  0  0  0  0  0  0  0  0  0
   25.2871    7.7015   54.7402 C   0  0  0  0  0  0  0  0  0  0  0  0
   26.3891    8.5420   55.2620 C   0  0  0  0  0  0  0  0  0  0  0  0
   26.4253    9.1528   56.4845 C   0  0  0  0  0  0  0  0  0  0  0  0
   27.5336    9.8796   56.7796 C   0  0  0  0  0  0  0  0  0  0  0  0
   27.8769   10.7758   58.2542 Cl  0  0  0  0  0  0  0  0  0  0  0  0
   28.4999    9.7138   55.3874 S   0  0  0  0  0  0  0  0  0  0  0  0
   27.4776    8.7266   54.4627 C   0  0  0  0  0  0  0  0  0  0  0  0
   27.6336    8.1189   53.1045 C   0  0  0  0  0  0  0  0  0  0  0  0
   26.8056    6.9181   53.0648 N   0  0  0  0  0  0  0  0  0  0  0  0
   25.4471    7.3363   53.3129 C   0  0  0  0  0  0  0  0  0  0  0  0
   24.4510    6.2581   52.9262 C   0  0  0  0  0  0  0  0  0  0  0  0
   23.4182    6.0066   54.0146 C   0  0  0  0  0  0  0  0  0  0  0  0
   19.2171    8.5963   54.8294 H   0  0  0  0  0  0  0  0  0  0  0  0
   22.4348   11.8249   56.1318 H   0  0  0  0  0  0  0  0  0  0  0  0
   26.9479    6.4639   52.1483 H   0  0  0  0  0  0  0  0  0  0  0  0
  1  2  1  0  0  0
  2  3  2  0  0  0
  3  4  1  0  0  0
  4  5  2  0  0  0
  5  6  1  0  0  0
  6  7  2  0  0  0
  7  8  1  0  0  0
  5  9  1  0  0  0
  9 10  1  0  0  0
 10 11  1  0  0  0
 11 12  2  0  0  0
 12 13  1  0  0  0
 12 14  1  0  0  0
 14 15  1  0  0  0
 15 16  1  0  0  0
 16 17  1  0  0  0
 17 18  1  0  0  0
 18 19  1  0  0  0
 19 20  1  0  0  0
  7  2  1  0  0  0
 18  9  1  0  0  0
 20  4  1  0  0  0
 15 10  2  0  0  0
  1 21  1  0  0  0
  8 22  1  0  0  0
 17 23  1  0  0  0
M  END
> <minimizedAffinity>
14.73860

> <CNNscore>
0.5648251176

> <CNNaffinity>
5.7331495285

> <CNN_VS>
3.2382268906

> <CNNaffinity_variance>
0.2787992954

$$$$
[H]Oc1c([H])c2c(c([H])c1O[H])[C@]1([H])c3c(sc(Cl)c3[H])C([H])([H])N([H])[C@@]1([H])C([H])([H])C2([H])[H]


 23 26  0  0  0  0  0  0  0  0999 V2000
   19.9853   11.4151   55.4675 O   0  0  0  0  0  0  0  0  0  0  0  0
   20.9714   10.4667   55.2706 C   0  0  0  0  0  0  0  0  0  0  0  0
   20.5972    9.1334   55.2808 C   0  0  0  0  0  0  0  0  0  0  0  0
   21.5551    8.1907   55.0891 C   0  0  0  0  0  0  0  0  0  0  0  0
   22.8949    8.5635   54.8862 C   0  0  0  0  0  0  0  0  0  0  0  0
   23.2499    9.8802   54.8774 C   0  0  0  0  0  0  0  0  0  0  0  0
   22.2716   10.8634   55.0738 C   0  0  0  0  0  0  0  0  0  0  0  0
   22.5744   12.2146   55.0755 O   0  0  0  0  0  0  0  0  0  0  0  0
   23.7806    7.3966   54.7013 C   0  0  0  0  0  0  0  0  0  0  0  0
   25.2323    7.6830   54.6397 C   0  0  0  0  0  0  0  0  0  0  0  0
   25.9332    8.4757   55.5054 C   0  0  0  0  0  0  0  0  0  0  0  0
   27.2657    8.6082   55.2810 C   0  0  0  0  0  0  0  0  0  0  0  0
   28.4288    9.5496   56.2064 Cl  0  0  0  0  0  0  0  0  0  0  0  0
   27.5331    7.6508   53.8985 S   0  0  0  0  0  0  0  0  0  0  0  0
   25.9499    7.1036   53.6362 C   0  0  0  0  0  0  0  0  0  0  0  0
   25.3659    6.1854   52.6094 C   0  0  0  0  0  0  0  0  0  0  0  0
   24.1714    5.5819   53.1911 N   0  0  0  0  0  0  0  0  0  0  0  0
   23.2724    6.6618   53.5189 C   0  0  0  0  0  0  0  0  0  0  0  0
   21.8631    6.1582   53.7726 C   0  0  0  0  0  0  0  0  0  0  0  0
   21.2670    6.7254   55.0523 C   0  0  0  0  0  0  0  0  0  0  0  0
   19.0196   11.1584   55.6151 H   0  0  0  0  0  0  0  0  0  0  0  0
   23.4894   12.5864   54.9405 H   0  0  0  0  0  0  0  0  0  0  0  0
   23.7912    4.9072   52.5080 H   0  0  0  0  0  0  0  0  0  0  0  0
  1  2  1  0  0  0
  2  3  2  0  0  0
  3  4  1  0  0  0
  4  5  2  0  0  0
  5  6  1  0  0  0
  6  7  2  0  0  0
  7  8  1  0  0  0
  5  9  1  0  0  0
  9 10  1  0  0  0
 10 11  1  0  0  0
 11 12  2  0  0  0
 12 13  1  0  0  0
 12 14  1  0  0  0
 14 15  1  0  0  0
 15 16  1  0  0  0
 16 17  1  0  0  0
 17 18  1  0  0  0
 18 19  1  0  0  0
 19 20  1  0  0  0
  7  2  1  0  0  0
 18  9  1  0  0  0
 20  4  1  0  0  0
 15 10  2  0  0  0
  1 21  1  0  0  0
  8 22  1  0  0  0
 17 23  1  0  0  0
M  END
> <minimizedAffinity>
21.47834

> <CNNscore>
0.5116890669

> <CNNaffinity>
5.7753458023

> <CNN_VS>
2.9551813602

> <CNNaffinity_variance>
0.4298222959

$$$$
[H]Oc1c([H])c2c(c([H])c1O[H])[C@]1([H])c3c(sc(Cl)c3[H])C([H])([H])N([H])[C@@]1([H])C([H])([H])C2([H])[H]


 23 26  0  0  0  0  0  0  0  0999 V2000
   28.0585    6.9044   54.0354 O   0  0  0  0  0  0  0  0  0  0  0  0
   26.7220    7.2565   54.0147 C   0  0  0  0  0  0  0  0  0  0  0  0
   25.7861    6.2525   54.1982 C   0  0  0  0  0  0  0  0  0  0  0  0
   24.4695    6.5834   54.1799 C   0  0  0  0  0  0  0  0  0  0  0  0
   24.0699    7.9155   53.9782 C   0  0  0  0  0  0  0  0  0  0  0  0
   25.0018    8.8951   53.7999 C   0  0  0  0  0  0  0  0  0  0  0  0
   26.3637    8.5676   53.8166 C   0  0  0  0  0  0  0  0  0  0  0  0
   27.3531    9.5202   53.6403 O   0  0  0  0  0  0  0  0  0  0  0  0
   22.6013    8.0688   53.9885 C   0  0  0  0  0  0  0  0  0  0  0  0
   22.0827    9.4078   53.6262 C   0  0  0  0  0  0  0  0  0  0  0  0
   22.4693   10.1557   52.5491 C   0  0  0  0  0  0  0  0  0  0  0  0
   21.8674   11.3618   52.3862 C   0  0  0  0  0  0  0  0  0  0  0  0
   22.1450   12.5448   51.1138 Cl  0  0  0  0  0  0  0  0  0  0  0  0
   20.7898   11.4491   53.7016 S   0  0  0  0  0  0  0  0  0  0  0  0
   21.1259    9.9545   54.4283 C   0  0  0  0  0  0  0  0  0  0  0  0
   20.5572    9.2788   55.6359 C   0  0  0  0  0  0  0  0  0  0  0  0
   20.7199    7.8407   55.4497 N   0  0  0  0  0  0  0  0  0  0  0  0
   22.1346    7.5925   55.3120 C   0  0  0  0  0  0  0  0  0  0  0  0
   22.4641    6.1218   55.4930 C   0  0  0  0  0  0  0  0  0  0  0  0
   23.3725    5.5923   54.3934 C   0  0  0  0  0  0  0  0  0  0  0  0
   28.3570    5.9501   54.1787 H   0  0  0  0  0  0  0  0  0  0  0  0
   27.1798   10.4906   53.4913 H   0  0  0  0  0  0  0  0  0  0  0  0
   20.2830    7.3643   56.2552 H   0  0  0  0  0  0  0  0  0  0  0  0
  1  2  1  0  0  0
  2  3  2  0  0  0
  3  4  1  0  0  0
  4  5  2  0  0  0
  5  6  1  0  0  0
  6  7  2  0  0  0
  7  8  1  0  0  0
  5  9  1  0  0  0
  9 10  1  0  0  0
 10 11  1  0  0  0
 11 12  2  0  0  0
 12 13  1  0  0  0
 12 14  1  0  0  0
 14 15  1  0  0  0
 15 16  1  0  0  0
 16 17  1  0  0  0
 17 18  1  0  0  0
 18 19  1  0  0  0
 19 20  1  0  0  0
  7  2  1  0  0  0
 18  9  1  0  0  0
 20  4  1  0  0  0
 15 10  2  0  0  0
  1 21  1  0  0  0
  8 22  1  0  0  0
 17 23  1  0  0  0
M  END
> <minimizedAffinity>
16.13235

> <CNNscore>
0.5008209944

> <CNNaffinity>
5.5025520325

> <CNN_VS>
2.7557935715

> <CNNaffinity_variance>
0.3998845816

$$$$
[H]Oc1c([H])c2c(c([H])c1O[H])[C@]1([H])c3c(sc(Cl)c3[H])C([H])([H])N([H])[C@@]1([H])C([H])([H])C2([H])[H]


 23 26  0  0  0  0  0  0  0  0999 V2000
   19.9319    5.1815   52.8057 O   0  0  0  0  0  0  0  0  0  0  0  0
   20.8788    6.1149   53.1837 C   0  0  0  0  0  0  0  0  0  0  0  0
   20.5319    7.4535   53.1108 C   0  0  0  0  0  0  0  0  0  0  0  0
   21.4520    8.3817   53.4785 C   0  0  0  0  0  0  0  0  0  0  0  0
   22.7265    7.9886   53.9214 C   0  0  0  0  0  0  0  0  0  0  0  0
   23.0550    6.6668   53.9896 C   0  0  0  0  0  0  0  0  0  0  0  0
   22.1152    5.6986   53.6134 C   0  0  0  0  0  0  0  0  0  0  0  0
   22.3937    4.3430   53.6614 O   0  0  0  0  0  0  0  0  0  0  0  0
   23.5801    9.1420   54.2702 C   0  0  0  0  0  0  0  0  0  0  0  0
   24.9917    8.8340   54.5951 C   0  0  0  0  0  0  0  0  0  0  0  0
   25.8278    8.0322   53.8689 C   0  0  0  0  0  0  0  0  0  0  0  0
   27.0947    7.8796   54.3328 C   0  0  0  0  0  0  0  0  0  0  0  0
   28.3939    6.9224   53.6318 Cl  0  0  0  0  0  0  0  0  0  0  0  0
   27.1183    8.8308   55.7449 S   0  0  0  0  0  0  0  0  0  0  0  0
   25.5218    9.4011   55.7154 C   0  0  0  0  0  0  0  0  0  0  0  0
   24.7730   10.3264   56.6218 C   0  0  0  0  0  0  0  0  0  0  0  0
   23.7140   10.9484   55.8339 N   0  0  0  0  0  0  0  0  0  0  0  0
   22.8747    9.8824   55.3427 C   0  0  0  0  0  0  0  0  0  0  0  0
   21.5430   10.4074   54.8376 C   0  0  0  0  0  0  0  0  0  0  0  0
   21.1831    9.8510   53.4681 C   0  0  0  0  0  0  0  0  0  0  0  0
   19.0133    5.4527   52.4850 H   0  0  0  0  0  0  0  0  0  0  0  0
   23.2632    3.9575   53.9600 H   0  0  0  0  0  0  0  0  0  0  0  0
   23.2249   11.6277   56.4388 H   0  0  0  0  0  0  0  0  0  0  0  0
  1  2  1  0  0  0
  2  3  2  0  0  0
  3  4  1  0  0  0
  4  5  2  0  0  0
  5  6  1  0  0  0
  6  7  2  0  0  0
  7  8  1  0  0  0
  5  9  1  0  0  0
  9 10  1  0  0  0
 10 11  1  0  0  0
 11 12  2  0  0  0
 12 13  1  0  0  0
 12 14  1  0  0  0
 14 15  1  0  0  0
 15 16  1  0  0  0
 16 17  1  0  0  0
 17 18  1  0  0  0
 18 19  1  0  0  0
 19 20  1  0  0  0
  7  2  1  0  0  0
 18  9  1  0  0  0
 20  4  1  0  0  0
 15 10  2  0  0  0
  1 21  1  0  0  0
  8 22  1  0  0  0
 17 23  1  0  0  0
M  END
> <minimizedAffinity>
13.23567

> <CNNscore>
0.4490451813

> <CNNaffinity>
5.8331480026

> <CNN_VS>
2.6193470955

> <CNNaffinity_variance>
0.1714927852

$$$$
[H]Oc1c([H])c2c(c([H])c1O[H])[C@]1([H])c3c(sc(Cl)c3[H])C([H])([H])N([H])[C@@]1([H])C([H])([H])C2([H])[H]


 23 26  0  0  0  0  0  0  0  0999 V2000
   20.2968   12.1537   50.4106 O   0  0  0  0  0  0  0  0  0  0  0  0
   20.8966   11.1747   51.1804 C   0  0  0  0  0  0  0  0  0  0  0  0
   20.1871   10.0079   51.4101 C   0  0  0  0  0  0  0  0  0  0  0  0
   20.7635    9.0376   52.1648 C   0  0  0  0  0  0  0  0  0  0  0  0
   22.0506    9.2177   52.6996 C   0  0  0  0  0  0  0  0  0  0  0  0
   22.7391   10.3712   52.4649 C   0  0  0  0  0  0  0  0  0  0  0  0
   22.1563   11.3806   51.6878 C   0  0  0  0  0  0  0  0  0  0  0  0
   22.8081   12.5720   51.4177 O   0  0  0  0  0  0  0  0  0  0  0  0
   22.4977    8.0540   53.4910 C   0  0  0  0  0  0  0  0  0  0  0  0
   23.7739    8.2156   54.2246 C   0  0  0  0  0  0  0  0  0  0  0  0
   24.1223    9.2809   55.0075 C   0  0  0  0  0  0  0  0  0  0  0  0
   25.3417    9.2373   55.6031 C   0  0  0  0  0  0  0  0  0  0  0  0
   26.0726   10.4411   56.6578 Cl  0  0  0  0  0  0  0  0  0  0  0  0
   25.9845    7.7483   55.0844 S   0  0  0  0  0  0  0  0  0  0  0  0
   24.6929    7.2141   54.1246 C   0  0  0  0  0  0  0  0  0  0  0  0
   24.4834    5.9590   53.3377 C   0  0  0  0  0  0  0  0  0  0  0  0
   23.0443    5.7376   53.2421 N   0  0  0  0  0  0  0  0  0  0  0  0
   22.4857    6.8888   52.5754 C   0  0  0  0  0  0  0  0  0  0  0  0
   21.0768    6.6182   52.0794 C   0  0  0  0  0  0  0  0  0  0  0  0
   20.1069    7.7280   52.4567 C   0  0  0  0  0  0  0  0  0  0  0  0
   19.3720   12.0352   50.0220 H   0  0  0  0  0  0  0  0  0  0  0  0
   23.7211   12.8010   51.7462 H   0  0  0  0  0  0  0  0  0  0  0  0
   22.8922    4.8453   52.7449 H   0  0  0  0  0  0  0  0  0  0  0  0
  1  2  1  0  0  0
  2  3  2  0  0  0
  3  4  1  0  0  0
  4  5  2  0  0  0
  5  6  1  0  0  0
  6  7  2  0  0  0
  7  8  1  0  0  0
  5  9  1  0  0  0
  9 10  1  0  0  0
 10 11  1  0  0  0
 11 12  2  0  0  0
 12 13  1  0  0  0
 12 14  1  0  0  0
 14 15  1  0  0  0
 15 16  1  0  0  0
 16 17  1  0  0  0
 17 18  1  0  0  0
 18 19  1  0  0  0
 19 20  1  0  0  0
  7  2  1  0  0  0
 18  9  1  0  0  0
 20  4  1  0  0  0
 15 10  2  0  0  0
  1 21  1  0  0  0
  8 22  1  0  0  0
 17 23  1  0  0  0
M  END
> <minimizedAffinity>
25.05797

> <CNNscore>
0.4453098774

> <CNNaffinity>
5.4602842331

> <CNN_VS>
2.4315185547

> <CNNaffinity_variance>
0.4867064357

$$$$
[H]Oc1c([H])c2c(c([H])c1O[H])[C@]1([H])c3c(sc(Cl)c3[H])C([H])([H])N([H])[C@@]1([H])C([H])([H])C2([H])[H]


 23 26  0  0  0  0  0  0  0  0999 V2000
   19.3899    9.4862   50.5811 O   0  0  0  0  0  0  0  0  0  0  0  0
   20.3338    9.0825   51.5068 C   0  0  0  0  0  0  0  0  0  0  0  0
   20.1774    7.8351   52.0875 C   0  0  0  0  0  0  0  0  0  0  0  0
   21.0966    7.4254   52.9988 C   0  0  0  0  0  0  0  0  0  0  0  0
   22.1800    8.2518   53.3428 C   0  0  0  0  0  0  0  0  0  0  0  0
   22.3230    9.4777   52.7626 C   0  0  0  0  0  0  0  0  0  0  0  0
   21.3819    9.9129   51.8206 C   0  0  0  0  0  0  0  0  0  0  0  0
   21.4762   11.1474   51.2006 O   0  0  0  0  0  0  0  0  0  0  0  0
   23.0627    7.6302   54.3501 C   0  0  0  0  0  0  0  0  0  0  0  0
   24.1409    8.4890   54.8914 C   0  0  0  0  0  0  0  0  0  0  0  0
   23.9966    9.7698   55.3473 C   0  0  0  0  0  0  0  0  0  0  0  0
   25.1118   10.3895   55.8120 C   0  0  0  0  0  0  0  0  0  0  0  0
   25.2520   12.0201   56.4577 Cl  0  0  0  0  0  0  0  0  0  0  0  0
   26.3292    9.2150   55.6182 S   0  0  0  0  0  0  0  0  0  0  0  0
   25.3973    7.9644   54.9530 C   0  0  0  0  0  0  0  0  0  0  0  0
   25.7476    6.5737   54.5266 C   0  0  0  0  0  0  0  0  0  0  0  0
   24.5368    5.7661   54.6311 N   0  0  0  0  0  0  0  0  0  0  0  0
   23.5562    6.3645   53.7580 C   0  0  0  0  0  0  0  0  0  0  0  0
   22.3997    5.4196   53.4859 C   0  0  0  0  0  0  0  0  0  0  0  0
   21.0473    6.0916   53.6696 C   0  0  0  0  0  0  0  0  0  0  0  0
   18.6069    8.9008   50.3270 H   0  0  0  0  0  0  0  0  0  0  0  0
   22.2029   11.8084   51.3704 H   0  0  0  0  0  0  0  0  0  0  0  0
   24.7819    4.7928   54.3883 H   0  0  0  0  0  0  0  0  0  0  0  0
  1  2  1  0  0  0
  2  3  2  0  0  0
  3  4  1  0  0  0
  4  5  2  0  0  0
  5  6  1  0  0  0
  6  7  2  0  0  0
  7  8  1  0  0  0
  5  9  1  0  0  0
  9 10  1  0  0  0
 10 11  1  0  0  0
 11 12  2  0  0  0
 12 13  1  0  0  0
 12 14  1  0  0  0
 14 15  1  0  0  0
 15 16  1  0  0  0
 16 17  1  0  0  0
 17 18  1  0  0  0
 18 19  1  0  0  0
 19 20  1  0  0  0
  7  2  1  0  0  0
 18  9  1  0  0  0
 20  4  1  0  0  0
 15 10  2  0  0  0
  1 21  1  0  0  0
  8 22  1  0  0  0
 17 23  1  0  0  0
M  END
> <minimizedAffinity>
22.48255

> <CNNscore>
0.4356217682

> <CNNaffinity>
5.5635042191

> <CNN_VS>
2.4235835075

> <CNNaffinity_variance>
0.6325915456

$$$$
[H]Oc1c([H])c2c(c([H])c1O[H])[C@]1([H])c3c(sc(Cl)c3[H])C([H])([H])N([H])[C@@]1([H])C([H])([H])C2([H])[H]


 23 26  0  0  0  0  0  0  0  0999 V2000
   28.5715    8.5178   55.2302 O   0  0  0  0  0  0  0  0  0  0  0  0
   27.1957    8.5334   55.0969 C   0  0  0  0  0  0  0  0  0  0  0  0
   26.4811    9.4296   55.8740 C   0  0  0  0  0  0  0  0  0  0  0  0
   25.1291    9.4560   55.7539 C   0  0  0  0  0  0  0  0  0  0  0  0
   24.4735    8.5912   54.8610 C   0  0  0  0  0  0  0  0  0  0  0  0
   25.1892    7.7140   54.1006 C   0  0  0  0  0  0  0  0  0  0  0  0
   26.5849    7.6764   54.2143 C   0  0  0  0  0  0  0  0  0  0  0  0
   27.3620    6.8063   53.4684 O   0  0  0  0  0  0  0  0  0  0  0  0
   23.0080    8.7706   54.8795 C   0  0  0  0  0  0  0  0  0  0  0  0
   22.2215    7.7955   54.0897 C   0  0  0  0  0  0  0  0  0  0  0  0
   22.3722    6.4368   54.1090 C   0  0  0  0  0  0  0  0  0  0  0  0
   21.5452    5.7120   53.3125 C   0  0  0  0  0  0  0  0  0  0  0  0
   21.4922    3.9644   53.1160 Cl  0  0  0  0  0  0  0  0  0  0  0  0
   20.5824    6.8960   52.5573 S   0  0  0  0  0  0  0  0  0  0  0  0
   21.2493    8.2832   53.2685 C   0  0  0  0  0  0  0  0  0  0  0  0
   20.9176    9.7357   53.1316 C   0  0  0  0  0  0  0  0  0  0  0  0
   21.3289   10.3965   54.3659 N   0  0  0  0  0  0  0  0  0  0  0  0
   22.7488   10.1808   54.5047 C   0  0  0  0  0  0  0  0  0  0  0  0
   23.3597   11.1223   55.5268 C   0  0  0  0  0  0  0  0  0  0  0  0
   24.2568   10.3971   56.5187 C   0  0  0  0  0  0  0  0  0  0  0  0
   29.0529    9.1341   55.8694 H   0  0  0  0  0  0  0  0  0  0  0  0
   26.9997    6.1538   52.8074 H   0  0  0  0  0  0  0  0  0  0  0  0
   21.0561   11.3904   54.3005 H   0  0  0  0  0  0  0  0  0  0  0  0
  1  2  1  0  0  0
  2  3  2  0  0  0
  3  4  1  0  0  0
  4  5  2  0  0  0
  5  6  1  0  0  0
  6  7  2  0  0  0
  7  8  1  0  0  0
  5  9  1  0  0  0
  9 10  1  0  0  0
 10 11  1  0  0  0
 11 12  2  0  0  0
 12 13  1  0  0  0
 12 14  1  0  0  0
 14 15  1  0  0  0
 15 16  1  0  0  0
 16 17  1  0  0  0
 17 18  1  0  0  0
 18 19  1  0  0  0
 19 20  1  0  0  0
  7  2  1  0  0  0
 18  9  1  0  0  0
 20  4  1  0  0  0
 15 10  2  0  0  0
  1 21  1  0  0  0
  8 22  1  0  0  0
 17 23  1  0  0  0
M  END
> <minimizedAffinity>
18.96637

> <CNNscore>
0.3976531029

> <CNNaffinity>
5.7586307526

> <CNN_VS>
2.2899374962

> <CNNaffinity_variance>
0.2480747402

$$$$
[H]c1c(-c2c([H])c([H])c([H])c(C([H])([H])n3nc(-c4c([H])c(F)c([H])c(F)c4[H])c([H])c([H])c3=O)c2[H])nnc(C([H])([H])[H])c1[H]


 29 32  0  0  0  0  0  0  0  0999 V2000
   22.5498    9.1368   54.0302 N   0  0  0  0  0  0  0  0  0  0  0  0
   23.8319    8.9164   54.3068 N   0  0  0  0  0  0  0  0  0  0  0  0
   24.5234    9.5605   55.2673 C   0  0  0  0  0  0  0  0  0  0  0  0
   23.8631   10.5132   56.0169 C   0  0  0  0  0  0  0  0  0  0  0  0
   22.5290   10.7717   55.7600 C   0  0  0  0  0  0  0  0  0  0  0  0
   21.8903   10.0593   54.7478 C   0  0  0  0  0  0  0  0  0  0  0  0
   20.6934   10.2455   54.4676 O   0  0  0  0  0  0  0  0  0  0  0  0
   25.9393    9.2372   55.4880 C   0  0  0  0  0  0  0  0  0  0  0  0
   26.6456    9.5765   56.6071 C   0  0  0  0  0  0  0  0  0  0  0  0
   27.9903    9.2388   56.7547 C   0  0  0  0  0  0  0  0  0  0  0  0
   28.6659    9.5836   57.8663 F   0  0  0  0  0  0  0  0  0  0  0  0
   28.6579    8.5472   55.7715 C   0  0  0  0  0  0  0  0  0  0  0  0
   27.9541    8.2007   54.6392 C   0  0  0  0  0  0  0  0  0  0  0  0
   28.6077    7.5202   53.6698 F   0  0  0  0  0  0  0  0  0  0  0  0
   26.6245    8.5414   54.5070 C   0  0  0  0  0  0  0  0  0  0  0  0
   21.9615    8.3625   52.9823 C   0  0  0  0  0  0  0  0  0  0  0  0
   20.5851    4.8876   53.3049 C   0  0  0  0  0  0  0  0  0  0  0  0
   21.7810    4.2154   53.4965 C   0  0  0  0  0  0  0  0  0  0  0  0
   22.9982    4.8441   53.5255 C   0  0  0  0  0  0  0  0  0  0  0  0
   23.0580    6.2045   53.3587 C   0  0  0  0  0  0  0  0  0  0  0  0
   21.9095    6.9196   53.1657 C   0  0  0  0  0  0  0  0  0  0  0  0
   20.7073    6.2537   53.1429 C   0  0  0  0  0  0  0  0  0  0  0  0
   15.5045    2.3109   53.4793 C   0  0  0  0  0  0  0  0  0  0  0  0
   16.8658    2.9507   53.3968 C   0  0  0  0  0  0  0  0  0  0  0  0
   17.8618    2.4051   52.6184 C   0  0  0  0  0  0  0  0  0  0  0  0
   19.1173    3.0156   52.5568 C   0  0  0  0  0  0  0  0  0  0  0  0
   19.3285    4.1610   53.2848 C   0  0  0  0  0  0  0  0  0  0  0  0
   18.3137    4.6333   54.0187 N   0  0  0  0  0  0  0  0  0  0  0  0
   17.1282    4.0619   54.0805 N   0  0  0  0  0  0  0  0  0  0  0  0
 23 24  1  0  0  0
 24 25  2  0  0  0
 25 26  1  0  0  0
 26 27  2  0  0  0
 27 17  1  0  0  0
 17 18  2  0  0  0
 18 19  1  0  0  0
 19 20  2  0  0  0
 20 21  1  0  0  0
 21 16  1  0  0  0
 16  1  1  0  0  0
  1  2  1  0  0  0
  2  3  2  0  0  0
  3  8  1  0  0  0
  8  9  2  0  0  0
  9 10  1  0  0  0
 10 11  1  0  0  0
 10 12  2  0  0  0
 12 13  1  0  0  0
 13 14  1  0  0  0
 13 15  2  0  0  0
  3  4  1  0  0  0
  4  5  2  0  0  0
  5  6  1  0  0  0
  6  7  2  0  0  0
 21 22  2  0  0  0
 27 28  1  0  0  0
 28 29  2  0  0  0
 29 24  1  0  0  0
 22 17  1  0  0  0
  6  1  1  0  0  0
 15  8  1  0  0  0
M  END
> <minimizedAffinity>
29.48072

> <CNNscore>
0.5711601377

> <CNNaffinity>
6.2332968712

> <CNN_VS>
3.5602107048

> <CNNaffinity_variance>
0.3034041226

$$$$
[H]c1c(-c2c([H])c([H])c([H])c(C([H])([H])n3nc(-c4c([H])c(F)c([H])c(F)c4[H])c([H])c([H])c3=O)c2[H])nnc(C([H])([H])[H])c1[H]


 29 32  0  0  0  0  0  0  0  0999 V2000
   26.4656    7.7968   53.6552 N   0  0  0  0  0  0  0  0  0  0  0  0
   26.8254    8.1756   52.4321 N   0  0  0  0  0  0  0  0  0  0  0  0
   27.7365    9.1334   52.1707 C   0  0  0  0  0  0  0  0  0  0  0  0
   28.3395    9.7669   53.2387 C   0  0  0  0  0  0  0  0  0  0  0  0
   27.9924    9.4016   54.5265 C   0  0  0  0  0  0  0  0  0  0  0  0
   27.0404    8.4010   54.7068 C   0  0  0  0  0  0  0  0  0  0  0  0
   26.6850    8.0280   55.8382 O   0  0  0  0  0  0  0  0  0  0  0  0
   28.0589    9.4728   50.7783 C   0  0  0  0  0  0  0  0  0  0  0  0
   28.0330   10.7381   50.2640 C   0  0  0  0  0  0  0  0  0  0  0  0
   28.3506   10.9933   48.9306 C   0  0  0  0  0  0  0  0  0  0  0  0
   28.3183   12.2483   48.4460 F   0  0  0  0  0  0  0  0  0  0  0  0
   28.7037    9.9723   48.0798 C   0  0  0  0  0  0  0  0  0  0  0  0
   28.7326    8.6929   48.5893 C   0  0  0  0  0  0  0  0  0  0  0  0
   29.0795    7.6859   47.7552 F   0  0  0  0  0  0  0  0  0  0  0  0
   28.4160    8.4556   49.9102 C   0  0  0  0  0  0  0  0  0  0  0  0
   25.4877    6.7594   53.7605 C   0  0  0  0  0  0  0  0  0  0  0  0
   22.3847    8.8239   53.3328 C   0  0  0  0  0  0  0  0  0  0  0  0
   21.4765    7.9382   53.8889 C   0  0  0  0  0  0  0  0  0  0  0  0
   21.8340    6.7143   54.3910 C   0  0  0  0  0  0  0  0  0  0  0  0
   23.1496    6.3278   54.3508 C   0  0  0  0  0  0  0  0  0  0  0  0
   24.0898    7.1613   53.8131 C   0  0  0  0  0  0  0  0  0  0  0  0
   23.6928    8.3811   53.3196 C   0  0  0  0  0  0  0  0  0  0  0  0
   20.6003   13.6850   50.9520 C   0  0  0  0  0  0  0  0  0  0  0  0
   21.0765   12.4279   51.6320 C   0  0  0  0  0  0  0  0  0  0  0  0
   21.3846   12.4185   52.9739 C   0  0  0  0  0  0  0  0  0  0  0  0
   21.8245   11.2409   53.5840 C   0  0  0  0  0  0  0  0  0  0  0  0
   21.9399   10.1064   52.8183 C   0  0  0  0  0  0  0  0  0  0  0  0
   21.6226   10.1910   51.5207 N   0  0  0  0  0  0  0  0  0  0  0  0
   21.2074   11.2986   50.9403 N   0  0  0  0  0  0  0  0  0  0  0  0
 23 24  1  0  0  0
 24 25  2  0  0  0
 25 26  1  0  0  0
 26 27  2  0  0  0
 27 17  1  0  0  0
 17 18  2  0  0  0
 18 19  1  0  0  0
 19 20  2  0  0  0
 20 21  1  0  0  0
 21 16  1  0  0  0
 16  1  1  0  0  0
  1  2  1  0  0  0
  2  3  2  0  0  0
  3  8  1  0  0  0
  8  9  2  0  0  0
  9 10  1  0  0  0
 10 11  1  0  0  0
 10 12  2  0  0  0
 12 13  1  0  0  0
 13 14  1  0  0  0
 13 15  2  0  0  0
  3  4  1  0  0  0
  4  5  2  0  0  0
  5  6  1  0  0  0
  6  7  2  0  0  0
 21 22  2  0  0  0
 27 28  1  0  0  0
 28 29  2  0  0  0
 29 24  1  0  0  0
 22 17  1  0  0  0
  6  1  1  0  0  0
 15  8  1  0  0  0
M  END
> <minimizedAffinity>
26.26909

> <CNNscore>
0.5495752096

> <CNNaffinity>
6.0676126480

> <CNN_VS>
3.3346095085

> <CNNaffinity_variance>
0.1988370717

$$$$
[H]c1c(-c2c([H])c([H])c([H])c(C([H])([H])n3nc(-c4c([H])c(F)c([H])c(F)c4[H])c([H])c([H])c3=O)c2[H])nnc(C([H])([H])[H])c1[H]


 29 32  0  0  0  0  0  0  0  0999 V2000
   26.4252    7.7684   53.8511 N   0  0  0  0  0  0  0  0  0  0  0  0
   26.7936    8.0824   52.6124 N   0  0  0  0  0  0  0  0  0  0  0  0
   27.6823    9.0479   52.3059 C   0  0  0  0  0  0  0  0  0  0  0  0
   28.2511    9.7615   53.3415 C   0  0  0  0  0  0  0  0  0  0  0  0
   27.8940    9.4652   54.6443 C   0  0  0  0  0  0  0  0  0  0  0  0
   26.9669    8.4510   54.8718 C   0  0  0  0  0  0  0  0  0  0  0  0
   26.6041    8.1373   56.0188 O   0  0  0  0  0  0  0  0  0  0  0  0
   28.0170    9.3114   50.9000 C   0  0  0  0  0  0  0  0  0  0  0  0
   28.3880    8.3531   49.9998 C   0  0  0  0  0  0  0  0  0  0  0  0
   28.6934    8.6701   48.6768 C   0  0  0  0  0  0  0  0  0  0  0  0
   29.0564    7.7091   47.8075 F   0  0  0  0  0  0  0  0  0  0  0  0
   28.6315    9.9686   48.2283 C   0  0  0  0  0  0  0  0  0  0  0  0
   28.2585   10.9419   49.1288 C   0  0  0  0  0  0  0  0  0  0  0  0
   28.1966   12.2204   48.6911 F   0  0  0  0  0  0  0  0  0  0  0  0
   27.9593   10.6135   50.4342 C   0  0  0  0  0  0  0  0  0  0  0  0
   25.4744    6.7122   54.0057 C   0  0  0  0  0  0  0  0  0  0  0  0
   22.3804    8.6849   53.2254 C   0  0  0  0  0  0  0  0  0  0  0  0
   21.4420    7.7065   53.5092 C   0  0  0  0  0  0  0  0  0  0  0  0
   21.7763    6.4494   53.9401 C   0  0  0  0  0  0  0  0  0  0  0  0
   23.0985    6.1232   54.1048 C   0  0  0  0  0  0  0  0  0  0  0  0
   24.0682    7.0490   53.8395 C   0  0  0  0  0  0  0  0  0  0  0  0
   23.6938    8.2995   53.4093 C   0  0  0  0  0  0  0  0  0  0  0  0
   20.6986   13.6880   51.0751 C   0  0  0  0  0  0  0  0  0  0  0  0
   21.1461   12.3904   51.6958 C   0  0  0  0  0  0  0  0  0  0  0  0
   21.4115   12.3014   53.0439 C   0  0  0  0  0  0  0  0  0  0  0  0
   21.8255   11.0874   53.5983 C   0  0  0  0  0  0  0  0  0  0  0  0
   21.9590    9.9982   52.7723 C   0  0  0  0  0  0  0  0  0  0  0  0
   21.6835   10.1598   51.4725 N   0  0  0  0  0  0  0  0  0  0  0  0
   21.2929   11.3019   50.9444 N   0  0  0  0  0  0  0  0  0  0  0  0
 23 24  1  0  0  0
 24 25  2  0  0  0
 25 26  1  0  0  0
 26 27  2  0  0  0
 27 17  1  0  0  0
 17 18  2  0  0  0
 18 19  1  0  0  0
 19 20  2  0  0  0
 20 21  1  0  0  0
 21 16  1  0  0  0
 16  1  1  0  0  0
  1  2  1  0  0  0
  2  3  2  0  0  0
  3  8  1  0  0  0
  8  9  2  0  0  0
  9 10  1  0  0  0
 10 11  1  0  0  0
 10 12  2  0  0  0
 12 13  1  0  0  0
 13 14  1  0  0  0
 13 15  2  0  0  0
  3  4  1  0  0  0
  4  5  2  0  0  0
  5  6  1  0  0  0
  6  7  2  0  0  0
 21 22  2  0  0  0
 27 28  1  0  0  0
 28 29  2  0  0  0
 29 24  1  0  0  0
 22 17  1  0  0  0
  6  1  1  0  0  0
 15  8  1  0  0  0
M  END
> <minimizedAffinity>
26.00496

> <CNNscore>
0.5374916792

> <CNNaffinity>
6.0916924477

> <CNN_VS>
3.2742340565

> <CNNaffinity_variance>
0.1963578910

$$$$
[H]c1c(-c2c([H])c([H])c([H])c(C([H])([H])n3nc(-c4c([H])c(F)c([H])c(F)c4[H])c([H])c([H])c3=O)c2[H])nnc(C([H])([H])[H])c1[H]


 29 32  0  0  0  0  0  0  0  0999 V2000
   27.4535    8.6861   53.8700 N   0  0  0  0  0  0  0  0  0  0  0  0
   27.5427    8.9058   52.5614 N   0  0  0  0  0  0  0  0  0  0  0  0
   28.4452    9.7262   51.9886 C   0  0  0  0  0  0  0  0  0  0  0  0
   29.3387   10.3850   52.8090 C   0  0  0  0  0  0  0  0  0  0  0  0
   29.2784   10.1833   54.1758 C   0  0  0  0  0  0  0  0  0  0  0  0
   28.3133    9.3175   54.6845 C   0  0  0  0  0  0  0  0  0  0  0  0
   28.2069    9.0944   55.9029 O   0  0  0  0  0  0  0  0  0  0  0  0
   28.4543    9.8954   50.5294 C   0  0  0  0  0  0  0  0  0  0  0  0
   28.5352    8.8689   49.6316 C   0  0  0  0  0  0  0  0  0  0  0  0
   28.5392    9.0976   48.2561 C   0  0  0  0  0  0  0  0  0  0  0  0
   28.6195    8.0705   47.3904 F   0  0  0  0  0  0  0  0  0  0  0  0
   28.4614   10.3744   47.7513 C   0  0  0  0  0  0  0  0  0  0  0  0
   28.3797   11.4160   48.6489 C   0  0  0  0  0  0  0  0  0  0  0  0
   28.3030   12.6734   48.1558 F   0  0  0  0  0  0  0  0  0  0  0  0
   28.3767   11.1746   50.0065 C   0  0  0  0  0  0  0  0  0  0  0  0
   26.4421    7.7798   54.3165 C   0  0  0  0  0  0  0  0  0  0  0  0
   22.8143    8.6510   53.9244 C   0  0  0  0  0  0  0  0  0  0  0  0
   22.6472    9.3506   55.1082 C   0  0  0  0  0  0  0  0  0  0  0  0
   23.6579    9.5462   56.0126 C   0  0  0  0  0  0  0  0  0  0  0  0
   24.9032    9.0329   55.7527 C   0  0  0  0  0  0  0  0  0  0  0  0
   25.1263    8.3334   54.6000 C   0  0  0  0  0  0  0  0  0  0  0  0
   24.0877    8.1581   53.7170 C   0  0  0  0  0  0  0  0  0  0  0  0
   18.5590    8.3188   50.1476 C   0  0  0  0  0  0  0  0  0  0  0  0
   19.6648    8.3573   51.1699 C   0  0  0  0  0  0  0  0  0  0  0  0
   19.7854    7.3723   52.1243 C   0  0  0  0  0  0  0  0  0  0  0  0
   20.8191    7.4282   53.0629 C   0  0  0  0  0  0  0  0  0  0  0  0
   21.7012    8.4796   53.0085 C   0  0  0  0  0  0  0  0  0  0  0  0
   21.5216    9.3997   52.0531 N   0  0  0  0  0  0  0  0  0  0  0  0
   20.5489    9.3520   51.1657 N   0  0  0  0  0  0  0  0  0  0  0  0
 23 24  1  0  0  0
 24 25  2  0  0  0
 25 26  1  0  0  0
 26 27  2  0  0  0
 27 17  1  0  0  0
 17 18  2  0  0  0
 18 19  1  0  0  0
 19 20  2  0  0  0
 20 21  1  0  0  0
 21 16  1  0  0  0
 16  1  1  0  0  0
  1  2  1  0  0  0
  2  3  2  0  0  0
  3  8  1  0  0  0
  8  9  2  0  0  0
  9 10  1  0  0  0
 10 11  1  0  0  0
 10 12  2  0  0  0
 12 13  1  0  0  0
 13 14  1  0  0  0
 13 15  2  0  0  0
  3  4  1  0  0  0
  4  5  2  0  0  0
  5  6  1  0  0  0
  6  7  2  0  0  0
 21 22  2  0  0  0
 27 28  1  0  0  0
 28 29  2  0  0  0
 29 24  1  0  0  0
 22 17  1  0  0  0
  6  1  1  0  0  0
 15  8  1  0  0  0
M  END
> <minimizedAffinity>
30.33586

> <CNNscore>
0.5206600428

> <CNNaffinity>
6.0748591423

> <CNN_VS>
3.1629364491

> <CNNaffinity_variance>
0.3733333051

$$$$
[H]c1c(-c2c([H])c([H])c([H])c(C([H])([H])n3nc(-c4c([H])c(F)c([H])c(F)c4[H])c([H])c([H])c3=O)c2[H])nnc(C([H])([H])[H])c1[H]


 29 32  0  0  0  0  0  0  0  0999 V2000
   26.1853    7.8715   53.5080 N   0  0  0  0  0  0  0  0  0  0  0  0
   26.6016    8.2581   52.3056 N   0  0  0  0  0  0  0  0  0  0  0  0
   27.5907    9.1485   52.0941 C   0  0  0  0  0  0  0  0  0  0  0  0
   28.2167    9.6993   53.1942 C   0  0  0  0  0  0  0  0  0  0  0  0
   27.8124    9.3231   54.4622 C   0  0  0  0  0  0  0  0  0  0  0  0
   26.7812    8.3958   54.5902 C   0  0  0  0  0  0  0  0  0  0  0  0
   26.3717    8.0174   55.7014 O   0  0  0  0  0  0  0  0  0  0  0  0
   27.9706    9.5041   50.7204 C   0  0  0  0  0  0  0  0  0  0  0  0
   27.9950   10.7786   50.2292 C   0  0  0  0  0  0  0  0  0  0  0  0
   28.3659   11.0490   48.9126 C   0  0  0  0  0  0  0  0  0  0  0  0
   28.3826   12.3129   48.4506 F   0  0  0  0  0  0  0  0  0  0  0  0
   28.7229   10.0344   48.0558 C   0  0  0  0  0  0  0  0  0  0  0  0
   28.7012    8.7459   48.5421 C   0  0  0  0  0  0  0  0  0  0  0  0
   29.0518    7.7452   47.7019 F   0  0  0  0  0  0  0  0  0  0  0  0
   28.3323    8.4935   49.8464 C   0  0  0  0  0  0  0  0  0  0  0  0
   25.1270    6.9118   53.5595 C   0  0  0  0  0  0  0  0  0  0  0  0
   21.3818    6.9584   53.3479 C   0  0  0  0  0  0  0  0  0  0  0  0
   21.2167    8.2919   53.0117 C   0  0  0  0  0  0  0  0  0  0  0  0
   22.2646    9.1604   52.8528 C   0  0  0  0  0  0  0  0  0  0  0  0
   23.5474    8.7080   53.0305 C   0  0  0  0  0  0  0  0  0  0  0  0
   23.7705    7.4013   53.3632 C   0  0  0  0  0  0  0  0  0  0  0  0
   22.6938    6.5604   53.5138 C   0  0  0  0  0  0  0  0  0  0  0  0
   16.6249    3.8828   53.9772 C   0  0  0  0  0  0  0  0  0  0  0  0
   17.9124    4.6463   53.8072 C   0  0  0  0  0  0  0  0  0  0  0  0
   19.1132    3.9902   53.6547 C   0  0  0  0  0  0  0  0  0  0  0  0
   20.2953    4.7188   53.4985 C   0  0  0  0  0  0  0  0  0  0  0  0
   20.2280    6.0907   53.5011 C   0  0  0  0  0  0  0  0  0  0  0  0
   19.0259    6.6590   53.6541 N   0  0  0  0  0  0  0  0  0  0  0  0
   17.9083    5.9771   53.8018 N   0  0  0  0  0  0  0  0  0  0  0  0
 23 24  1  0  0  0
 24 25  2  0  0  0
 25 26  1  0  0  0
 26 27  2  0  0  0
 27 17  1  0  0  0
 17 18  2  0  0  0
 18 19  1  0  0  0
 19 20  2  0  0  0
 20 21  1  0  0  0
 21 16  1  0  0  0
 16  1  1  0  0  0
  1  2  1  0  0  0
  2  3  2  0  0  0
  3  8  1  0  0  0
  8  9  2  0  0  0
  9 10  1  0  0  0
 10 11  1  0  0  0
 10 12  2  0  0  0
 12 13  1  0  0  0
 13 14  1  0  0  0
 13 15  2  0  0  0
  3  4  1  0  0  0
  4  5  2  0  0  0
  5  6  1  0  0  0
  6  7  2  0  0  0
 21 22  2  0  0  0
 27 28  1  0  0  0
 28 29  2  0  0  0
 29 24  1  0  0  0
 22 17  1  0  0  0
  6  1  1  0  0  0
 15  8  1  0  0  0
M  END
> <minimizedAffinity>
28.93656

> <CNNscore>
0.5165738463

> <CNNaffinity>
6.2151384354

> <CNN_VS>
3.2105779648

> <CNNaffinity_variance>
0.3525660634

$$$$
[H]c1c(-c2c([H])c([H])c([H])c(C([H])([H])n3nc(-c4c([H])c(F)c([H])c(F)c4[H])c([H])c([H])c3=O)c2[H])nnc(C([H])([H])[H])c1[H]


 29 32  0  0  0  0  0  0  0  0999 V2000
   22.9873    6.8280   54.2767 N   0  0  0  0  0  0  0  0  0  0  0  0
   24.0691    7.5320   54.5975 N   0  0  0  0  0  0  0  0  0  0  0  0
   25.3124    7.2579   54.1559 C   0  0  0  0  0  0  0  0  0  0  0  0
   25.4807    6.1761   53.3151 C   0  0  0  0  0  0  0  0  0  0  0  0
   24.3801    5.4185   52.9581 C   0  0  0  0  0  0  0  0  0  0  0  0
   23.1302    5.7723   53.4604 C   0  0  0  0  0  0  0  0  0  0  0  0
   22.1029    5.1317   53.1778 O   0  0  0  0  0  0  0  0  0  0  0  0
   26.4380    8.1038   54.5744 C   0  0  0  0  0  0  0  0  0  0  0  0
   27.3988    8.5866   53.7317 C   0  0  0  0  0  0  0  0  0  0  0  0
   28.4434    9.3863   54.1935 C   0  0  0  0  0  0  0  0  0  0  0  0
   29.3786    9.8507   53.3446 F   0  0  0  0  0  0  0  0  0  0  0  0
   28.5440    9.7196   55.5239 C   0  0  0  0  0  0  0  0  0  0  0  0
   27.5799    9.2373   56.3814 C   0  0  0  0  0  0  0  0  0  0  0  0
   27.6758    9.5632   57.6908 F   0  0  0  0  0  0  0  0  0  0  0  0
   26.5525    8.4475   55.9103 C   0  0  0  0  0  0  0  0  0  0  0  0
   21.7387    7.2557   54.8258 C   0  0  0  0  0  0  0  0  0  0  0  0
   21.1884   10.8041   53.7398 C   0  0  0  0  0  0  0  0  0  0  0  0
   21.0290   11.3745   54.9919 C   0  0  0  0  0  0  0  0  0  0  0  0
   21.0951   10.6561   56.1570 C   0  0  0  0  0  0  0  0  0  0  0  0
   21.3296    9.3056   56.1034 C   0  0  0  0  0  0  0  0  0  0  0  0
   21.4947    8.6889   54.8949 C   0  0  0  0  0  0  0  0  0  0  0  0
   21.4216    9.4429   53.7481 C   0  0  0  0  0  0  0  0  0  0  0  0
   20.8260   13.6775   48.8311 C   0  0  0  0  0  0  0  0  0  0  0  0
   20.9276   12.9686   50.1565 C   0  0  0  0  0  0  0  0  0  0  0  0
   21.0914   13.6723   51.3285 C   0  0  0  0  0  0  0  0  0  0  0  0
   21.1833   12.9939   52.5466 C   0  0  0  0  0  0  0  0  0  0  0  0
   21.1067   11.6225   52.5435 C   0  0  0  0  0  0  0  0  0  0  0  0
   20.9472   11.0063   51.3661 N   0  0  0  0  0  0  0  0  0  0  0  0
   20.8600   11.6408   50.2147 N   0  0  0  0  0  0  0  0  0  0  0  0
 23 24  1  0  0  0
 24 25  2  0  0  0
 25 26  1  0  0  0
 26 27  2  0  0  0
 27 17  1  0  0  0
 17 18  2  0  0  0
 18 19  1  0  0  0
 19 20  2  0  0  0
 20 21  1  0  0  0
 21 16  1  0  0  0
 16  1  1  0  0  0
  1  2  1  0  0  0
  2  3  2  0  0  0
  3  8  1  0  0  0
  8  9  2  0  0  0
  9 10  1  0  0  0
 10 11  1  0  0  0
 10 12  2  0  0  0
 12 13  1  0  0  0
 13 14  1  0  0  0
 13 15  2  0  0  0
  3  4  1  0  0  0
  4  5  2  0  0  0
  5  6  1  0  0  0
  6  7  2  0  0  0
 21 22  2  0  0  0
 27 28  1  0  0  0
 28 29  2  0  0  0
 29 24  1  0  0  0
 22 17  1  0  0  0
  6  1  1  0  0  0
 15  8  1  0  0  0
M  END
> <minimizedAffinity>
33.00045

> <CNNscore>
0.4909114242

> <CNNaffinity>
6.0283803940

> <CNN_VS>
2.9594008923

> <CNNaffinity_variance>
0.3398137987

$$$$
[H]c1c(-c2c([H])c([H])c([H])c(C([H])([H])n3nc(-c4c([H])c(F)c([H])c(F)c4[H])c([H])c([H])c3=O)c2[H])nnc(C([H])([H])[H])c1[H]


 29 32  0  0  0  0  0  0  0  0999 V2000
   27.4464    8.6100   53.8068 N   0  0  0  0  0  0  0  0  0  0  0  0
   27.5524    8.8926   52.5116 N   0  0  0  0  0  0  0  0  0  0  0  0
   28.4038    9.8033   52.0000 C   0  0  0  0  0  0  0  0  0  0  0  0
   29.2222   10.4916   52.8729 C   0  0  0  0  0  0  0  0  0  0  0  0
   29.1420   10.2264   54.2278 C   0  0  0  0  0  0  0  0  0  0  0  0
   28.2334    9.2686   54.6716 C   0  0  0  0  0  0  0  0  0  0  0  0
   28.1129    8.9853   55.8761 O   0  0  0  0  0  0  0  0  0  0  0  0
   28.4379   10.0361   50.5500 C   0  0  0  0  0  0  0  0  0  0  0  0
   28.4029   11.2691   49.9628 C   0  0  0  0  0  0  0  0  0  0  0  0
   28.4385   11.4217   48.5774 C   0  0  0  0  0  0  0  0  0  0  0  0
   28.4031   12.6466   48.0212 F   0  0  0  0  0  0  0  0  0  0  0  0
   28.5105   10.3280   47.7470 C   0  0  0  0  0  0  0  0  0  0  0  0
   28.5461    9.0804   48.3299 C   0  0  0  0  0  0  0  0  0  0  0  0
   28.6169    8.0021   47.5160 F   0  0  0  0  0  0  0  0  0  0  0  0
   28.5102    8.9448   49.7016 C   0  0  0  0  0  0  0  0  0  0  0  0
   26.4964    7.6110   54.1855 C   0  0  0  0  0  0  0  0  0  0  0  0
   22.7459    7.5477   54.2399 C   0  0  0  0  0  0  0  0  0  0  0  0
   22.5318    8.8112   54.7655 C   0  0  0  0  0  0  0  0  0  0  0  0
   23.5488    9.6684   55.0953 C   0  0  0  0  0  0  0  0  0  0  0  0
   24.8492    9.2761   54.9036 C   0  0  0  0  0  0  0  0  0  0  0  0
   25.1204    8.0397   54.3881 C   0  0  0  0  0  0  0  0  0  0  0  0
   24.0736    7.2080   54.0694 C   0  0  0  0  0  0  0  0  0  0  0  0
   18.5726    3.8578   53.0353 C   0  0  0  0  0  0  0  0  0  0  0  0
   19.6394    4.8765   53.3409 C   0  0  0  0  0  0  0  0  0  0  0  0
   19.3901    6.2252   53.2201 C   0  0  0  0  0  0  0  0  0  0  0  0
   20.3947    7.1526   53.5088 C   0  0  0  0  0  0  0  0  0  0  0  0
   21.6230    6.6882   53.9116 C   0  0  0  0  0  0  0  0  0  0  0  0
   21.7921    5.3638   54.0063 N   0  0  0  0  0  0  0  0  0  0  0  0
   20.8487    4.4850   53.7353 N   0  0  0  0  0  0  0  0  0  0  0  0
 23 24  1  0  0  0
 24 25  2  0  0  0
 25 26  1  0  0  0
 26 27  2  0  0  0
 27 17  1  0  0  0
 17 18  2  0  0  0
 18 19  1  0  0  0
 19 20  2  0  0  0
 20 21  1  0  0  0
 21 16  1  0  0  0
 16  1  1  0  0  0
  1  2  1  0  0  0
  2  3  2  0  0  0
  3  8  1  0  0  0
  8  9  2  0  0  0
  9 10  1  0  0  0
 10 11  1  0  0  0
 10 12  2  0  0  0
 12 13  1  0  0  0
 13 14  1  0  0  0
 13 15  2  0  0  0
  3  4  1  0  0  0
  4  5  2  0  0  0
  5  6  1  0  0  0
  6  7  2  0  0  0
 21 22  2  0  0  0
 27 28  1  0  0  0
 28 29  2  0  0  0
 29 24  1  0  0  0
 22 17  1  0  0  0
  6  1  1  0  0  0
 15  8  1  0  0  0
M  END
> <minimizedAffinity>
29.44501

> <CNNscore>
0.4781294167

> <CNNaffinity>
5.8716354370

> <CNN_VS>
2.8074016571

> <CNNaffinity_variance>
0.2569132447

$$$$
[H]c1c(-c2c([H])c([H])c([H])c(C([H])([H])n3nc(-c4c([H])c(F)c([H])c(F)c4[H])c([H])c([H])c3=O)c2[H])nnc(C([H])([H])[H])c1[H]


 29 32  0  0  0  0  0  0  0  0999 V2000
   20.5788    6.6773   53.2798 N   0  0  0  0  0  0  0  0  0  0  0  0
   19.4557    6.0032   53.5098 N   0  0  0  0  0  0  0  0  0  0  0  0
   19.3752    4.6595   53.5706 C   0  0  0  0  0  0  0  0  0  0  0  0
   20.5312    3.9290   53.3824 C   0  0  0  0  0  0  0  0  0  0  0  0
   21.7199    4.5932   53.1406 C   0  0  0  0  0  0  0  0  0  0  0  0
   21.7135    5.9852   53.0941 C   0  0  0  0  0  0  0  0  0  0  0  0
   22.7481    6.6405   52.8803 O   0  0  0  0  0  0  0  0  0  0  0  0
   18.0799    4.0174   53.8313 C   0  0  0  0  0  0  0  0  0  0  0  0
   17.3947    3.2600   52.9240 C   0  0  0  0  0  0  0  0  0  0  0  0
   16.1669    2.6771   53.2351 C   0  0  0  0  0  0  0  0  0  0  0  0
   15.5100    1.9346   52.3251 F   0  0  0  0  0  0  0  0  0  0  0  0
   15.5982    2.8456   54.4758 C   0  0  0  0  0  0  0  0  0  0  0  0
   16.2816    3.6078   55.3973 C   0  0  0  0  0  0  0  0  0  0  0  0
   15.7251    3.7757   56.6188 F   0  0  0  0  0  0  0  0  0  0  0  0
   17.4951    4.1782   55.0755 C   0  0  0  0  0  0  0  0  0  0  0  0
   20.4946    8.1042   53.2532 C   0  0  0  0  0  0  0  0  0  0  0  0
   23.6966    9.2383   54.8452 C   0  0  0  0  0  0  0  0  0  0  0  0
   23.1734   10.2206   55.6698 C   0  0  0  0  0  0  0  0  0  0  0  0
   21.8372   10.5197   55.7254 C   0  0  0  0  0  0  0  0  0  0  0  0
   20.9579    9.8247   54.9344 C   0  0  0  0  0  0  0  0  0  0  0  0
   21.4178    8.8442   54.1007 C   0  0  0  0  0  0  0  0  0  0  0  0
   22.7649    8.5729   54.0728 C   0  0  0  0  0  0  0  0  0  0  0  0
   29.3236    8.3869   55.1517 C   0  0  0  0  0  0  0  0  0  0  0  0
   27.8358    8.5829   55.0205 C   0  0  0  0  0  0  0  0  0  0  0  0
   27.1453    8.0822   53.9396 C   0  0  0  0  0  0  0  0  0  0  0  0
   25.7651    8.2760   53.8384 C   0  0  0  0  0  0  0  0  0  0  0  0
   25.1234    8.9711   54.8343 C   0  0  0  0  0  0  0  0  0  0  0  0
   25.8597    9.4281   55.8543 N   0  0  0  0  0  0  0  0  0  0  0  0
   27.1610    9.2484   55.9548 N   0  0  0  0  0  0  0  0  0  0  0  0
 23 24  1  0  0  0
 24 25  2  0  0  0
 25 26  1  0  0  0
 26 27  2  0  0  0
 27 17  1  0  0  0
 17 18  2  0  0  0
 18 19  1  0  0  0
 19 20  2  0  0  0
 20 21  1  0  0  0
 21 16  1  0  0  0
 16  1  1  0  0  0
  1  2  1  0  0  0
  2  3  2  0  0  0
  3  8  1  0  0  0
  8  9  2  0  0  0
  9 10  1  0  0  0
 10 11  1  0  0  0
 10 12  2  0  0  0
 12 13  1  0  0  0
 13 14  1  0  0  0
 13 15  2  0  0  0
  3  4  1  0  0  0
  4  5  2  0  0  0
  5  6  1  0  0  0
  6  7  2  0  0  0
 21 22  2  0  0  0
 27 28  1  0  0  0
 28 29  2  0  0  0
 29 24  1  0  0  0
 22 17  1  0  0  0
  6  1  1  0  0  0
 15  8  1  0  0  0
M  END
> <minimizedAffinity>
25.67525

> <CNNscore>
0.4769928157

> <CNNaffinity>
6.4521017075

> <CNN_VS>
3.0776062012

> <CNNaffinity_variance>
0.2545995712

$$$$
[H]c1c(-c2c([H])c([H])c([H])c(C([H])([H])n3nc(-c4c([H])c(F)c([H])c(F)c4[H])c([H])c([H])c3=O)c2[H])nnc(C([H])([H])[H])c1[H]


 29 32  0  0  0  0  0  0  0  0999 V2000
   24.2331    7.0381   54.0981 N   0  0  0  0  0  0  0  0  0  0  0  0
   23.6871    8.2268   53.8582 N   0  0  0  0  0  0  0  0  0  0  0  0
   22.5148    8.4093   53.2193 C   0  0  0  0  0  0  0  0  0  0  0  0
   21.8309    7.2926   52.7825 C   0  0  0  0  0  0  0  0  0  0  0  0
   22.3657    6.0381   53.0127 C   0  0  0  0  0  0  0  0  0  0  0  0
   23.5836    5.9402   53.6811 C   0  0  0  0  0  0  0  0  0  0  0  0
   24.1171    4.8424   53.9179 O   0  0  0  0  0  0  0  0  0  0  0  0
   22.0035    9.7701   53.0077 C   0  0  0  0  0  0  0  0  0  0  0  0
   22.0122   10.4224   51.8073 C   0  0  0  0  0  0  0  0  0  0  0  0
   21.5105   11.7164   51.6735 C   0  0  0  0  0  0  0  0  0  0  0  0
   21.5294   12.3393   50.4807 F   0  0  0  0  0  0  0  0  0  0  0  0
   20.9854   12.3866   52.7533 C   0  0  0  0  0  0  0  0  0  0  0  0
   20.9724   11.7370   53.9679 C   0  0  0  0  0  0  0  0  0  0  0  0
   20.4566   12.3932   55.0325 F   0  0  0  0  0  0  0  0  0  0  0  0
   21.4720   10.4572   54.0853 C   0  0  0  0  0  0  0  0  0  0  0  0
   25.4813    7.0172   54.7948 C   0  0  0  0  0  0  0  0  0  0  0  0
   27.6934    8.9953   52.4998 C   0  0  0  0  0  0  0  0  0  0  0  0
   28.4389    9.6572   53.4614 C   0  0  0  0  0  0  0  0  0  0  0  0
   28.2504    9.4831   54.8075 C   0  0  0  0  0  0  0  0  0  0  0  0
   27.2818    8.6161   55.2455 C   0  0  0  0  0  0  0  0  0  0  0  0
   26.5154    7.9356   54.3414 C   0  0  0  0  0  0  0  0  0  0  0  0
   26.7342    8.1365   52.9995 C   0  0  0  0  0  0  0  0  0  0  0  0
   28.7098    9.4987   46.9144 C   0  0  0  0  0  0  0  0  0  0  0  0
   28.4371    9.4234   48.3941 C   0  0  0  0  0  0  0  0  0  0  0  0
   28.2291   10.5634   49.1376 C   0  0  0  0  0  0  0  0  0  0  0  0
   27.9777   10.4699   50.5089 C   0  0  0  0  0  0  0  0  0  0  0  0
   27.9441    9.2251   51.0885 C   0  0  0  0  0  0  0  0  0  0  0  0
   28.1553    8.1621   50.3030 N   0  0  0  0  0  0  0  0  0  0  0  0
   28.3927    8.2444   49.0097 N   0  0  0  0  0  0  0  0  0  0  0  0
 23 24  1  0  0  0
 24 25  2  0  0  0
 25 26  1  0  0  0
 26 27  2  0  0  0
 27 17  1  0  0  0
 17 18  2  0  0  0
 18 19  1  0  0  0
 19 20  2  0  0  0
 20 21  1  0  0  0
 21 16  1  0  0  0
 16  1  1  0  0  0
  1  2  1  0  0  0
  2  3  2  0  0  0
  3  8  1  0  0  0
  8  9  2  0  0  0
  9 10  1  0  0  0
 10 11  1  0  0  0
 10 12  2  0  0  0
 12 13  1  0  0  0
 13 14  1  0  0  0
 13 15  2  0  0  0
  3  4  1  0  0  0
  4  5  2  0  0  0
  5  6  1  0  0  0
  6  7  2  0  0  0
 21 22  2  0  0  0
 27 28  1  0  0  0
 28 29  2  0  0  0
 29 24  1  0  0  0
 22 17  1  0  0  0
  6  1  1  0  0  0
 15  8  1  0  0  0
M  END
> <minimizedAffinity>
28.08598

> <CNNscore>
0.4706555605

> <CNNaffinity>
6.0064086914

> <CNN_VS>
2.8269495964

> <CNNaffinity_variance>
0.1469685286

$$$$
[H]c1c([H])c([H])c(-c2c([H])c([H])c(C([H])([H])Sc3nnc(-c4c([H])c([H])c5c(c4[H])O[C@@]([H])(C([H])([H])OC([H])([H])[H])C([H])([H])O5)o3)c([H])c2[H])c(C#N)c1[H]


 34 38  0  0  0  0  0  0  0  0999 V2000
   21.3156   11.4690   52.1587 C   0  0  0  0  0  0  0  0  0  0  0  0
   21.5692   11.0971   53.4126 N   0  0  0  0  0  0  0  0  0  0  0  0
   21.3489    9.8041   53.5102 N   0  0  0  0  0  0  0  0  0  0  0  0
   20.9546    9.3518   52.3171 C   0  0  0  0  0  0  0  0  0  0  0  0
   20.9497   10.4192   51.5142 O   0  0  0  0  0  0  0  0  0  0  0  0
   24.0669   16.3157   49.6303 C   0  0  0  0  0  0  0  0  0  0  0  0
   22.7519   16.8749   49.1071 C   0  0  0  0  0  0  0  0  0  0  0  0
   21.7932   16.7098   50.1700 O   0  0  0  0  0  0  0  0  0  0  0  0
   21.6518   15.4279   50.6709 C   0  0  0  0  0  0  0  0  0  0  0  0
   20.5231   15.0633   51.4114 C   0  0  0  0  0  0  0  0  0  0  0  0
   20.4518   13.7670   51.8782 C   0  0  0  0  0  0  0  0  0  0  0  0
   21.4417   12.8422   51.6395 C   0  0  0  0  0  0  0  0  0  0  0  0
   22.5293   13.2201   50.9175 C   0  0  0  0  0  0  0  0  0  0  0  0
   22.6544   14.5152   50.4212 C   0  0  0  0  0  0  0  0  0  0  0  0
   23.7744   14.8759   49.6868 O   0  0  0  0  0  0  0  0  0  0  0  0
   25.2145   16.5108   48.7018 C   0  0  0  0  0  0  0  0  0  0  0  0
   25.9405   14.3176   48.1790 C   0  0  0  0  0  0  0  0  0  0  0  0
   25.5850   15.5649   47.8483 O   0  0  0  0  0  0  0  0  0  0  0  0
   20.5227    7.6928   51.8671 S   0  0  0  0  0  0  0  0  0  0  0  0
   21.3228    6.4299   52.8621 C   0  0  0  0  0  0  0  0  0  0  0  0
   22.6623    6.8310   53.3368 C   0  0  0  0  0  0  0  0  0  0  0  0
   23.3286    7.8427   52.6455 C   0  0  0  0  0  0  0  0  0  0  0  0
   24.5887    8.2407   53.0321 C   0  0  0  0  0  0  0  0  0  0  0  0
   25.2459    7.6774   54.0960 C   0  0  0  0  0  0  0  0  0  0  0  0
   24.5814    6.6761   54.7762 C   0  0  0  0  0  0  0  0  0  0  0  0
   23.3145    6.2719   54.3912 C   0  0  0  0  0  0  0  0  0  0  0  0
   26.5710    8.0685   54.5509 C   0  0  0  0  0  0  0  0  0  0  0  0
   27.7150    7.5307   53.9464 C   0  0  0  0  0  0  0  0  0  0  0  0
   28.9741    7.8990   54.3541 C   0  0  0  0  0  0  0  0  0  0  0  0
   29.1751    8.8080   55.3695 C   0  0  0  0  0  0  0  0  0  0  0  0
   28.0617    9.3446   55.9731 C   0  0  0  0  0  0  0  0  0  0  0  0
   26.7778    8.9723   55.5611 C   0  0  0  0  0  0  0  0  0  0  0  0
   25.6442    9.5500   56.2330 C   0  0  0  0  0  0  0  0  0  0  0  0
   24.7190   10.0268   56.7550 N   0  0  0  0  0  0  0  0  0  0  0  0
 17 18  1  0  0  0
 18 16  1  0  0  0
 16  6  1  0  0  0
  6  7  1  0  0  0
  7  8  1  0  0  0
  8  9  1  0  0  0
  9 10  2  0  0  0
 10 11  1  0  0  0
 11 12  2  0  0  0
 12  1  1  0  0  0
  1  2  2  0  0  0
  2  3  1  0  0  0
  3  4  2  0  0  0
  4 19  1  0  0  0
 19 20  1  0  0  0
 20 21  1  0  0  0
 21 22  2  0  0  0
 22 23  1  0  0  0
 23 24  2  0  0  0
 24 27  1  0  0  0
 27 28  2  0  0  0
 28 29  1  0  0  0
 29 30  2  0  0  0
 30 31  1  0  0  0
 31 32  2  0  0  0
 32 33  1  0  0  0
 33 34  3  0  0  0
 24 25  1  0  0  0
 25 26  2  0  0  0
  4  5  1  0  0  0
 12 13  1  0  0  0
 13 14  2  0  0  0
 14 15  1  0  0  0
 15  6  1  0  0  0
 14  9  1  0  0  0
  5  1  1  0  0  0
 26 21  1  0  0  0
 32 27  1  0  0  0
M  END
> <minimizedAffinity>
21.14660

> <CNNscore>
0.6468229890

> <CNNaffinity>
6.0917992592

> <CNN_VS>
3.9403157234

> <CNNaffinity_variance>
0.1111581177

$$$$
[H]c1c([H])c([H])c(-c2c([H])c([H])c(C([H])([H])Sc3nnc(-c4c([H])c([H])c5c(c4[H])O[C@@]([H])(C([H])([H])OC([H])([H])[H])C([H])([H])O5)o3)c([H])c2[H])c(C#N)c1[H]


 34 38  0  0  0  0  0  0  0  0999 V2000
   21.9576    9.7867   53.0499 C   0  0  0  0  0  0  0  0  0  0  0  0
   21.2372    8.6765   52.8975 N   0  0  0  0  0  0  0  0  0  0  0  0
   22.0487    7.6450   52.9842 N   0  0  0  0  0  0  0  0  0  0  0  0
   23.2874    8.0987   53.1922 C   0  0  0  0  0  0  0  0  0  0  0  0
   23.1795    9.4297   53.2252 O   0  0  0  0  0  0  0  0  0  0  0  0
   21.1583   15.4875   50.9728 C   0  0  0  0  0  0  0  0  0  0  0  0
   19.7802   15.5989   51.6087 C   0  0  0  0  0  0  0  0  0  0  0  0
   19.8957   15.0194   52.9229 O   0  0  0  0  0  0  0  0  0  0  0  0
   20.3932   13.7297   52.9799 C   0  0  0  0  0  0  0  0  0  0  0  0
   20.2039   12.9331   54.1133 C   0  0  0  0  0  0  0  0  0  0  0  0
   20.7286   11.6572   54.0972 C   0  0  0  0  0  0  0  0  0  0  0  0
   21.4193   11.1580   53.0175 C   0  0  0  0  0  0  0  0  0  0  0  0
   21.5906   11.9511   51.9273 C   0  0  0  0  0  0  0  0  0  0  0  0
   21.0826   13.2472   51.8879 C   0  0  0  0  0  0  0  0  0  0  0  0
   21.2709   14.0366   50.7631 O   0  0  0  0  0  0  0  0  0  0  0  0
   21.2612   16.1489   49.6427 C   0  0  0  0  0  0  0  0  0  0  0  0
   23.4934   16.8738   49.9636 C   0  0  0  0  0  0  0  0  0  0  0  0
   22.3314   16.8544   49.2996 O   0  0  0  0  0  0  0  0  0  0  0  0
   24.7764    7.1571   53.3863 S   0  0  0  0  0  0  0  0  0  0  0  0
   26.2810    8.1316   53.2802 C   0  0  0  0  0  0  0  0  0  0  0  0
   26.8089    8.5251   54.6020 C   0  0  0  0  0  0  0  0  0  0  0  0
   28.1918    8.6230   54.7545 C   0  0  0  0  0  0  0  0  0  0  0  0
   28.7385    8.9649   55.9711 C   0  0  0  0  0  0  0  0  0  0  0  0
   27.9708    9.2233   57.0778 C   0  0  0  0  0  0  0  0  0  0  0  0
   26.6025    9.1244   56.9208 C   0  0  0  0  0  0  0  0  0  0  0  0
   26.0479    8.7804   55.6998 C   0  0  0  0  0  0  0  0  0  0  0  0
   28.4977    9.5981   58.3808 C   0  0  0  0  0  0  0  0  0  0  0  0
   29.0011    8.6207   59.2495 C   0  0  0  0  0  0  0  0  0  0  0  0
   29.5149    8.9582   60.4780 C   0  0  0  0  0  0  0  0  0  0  0  0
   29.5612   10.2638   60.9154 C   0  0  0  0  0  0  0  0  0  0  0  0
   29.0704   11.2348   60.0739 C   0  0  0  0  0  0  0  0  0  0  0  0
   28.5462   10.8955   58.8222 C   0  0  0  0  0  0  0  0  0  0  0  0
   28.0312   11.9451   57.9836 C   0  0  0  0  0  0  0  0  0  0  0  0
   27.6085   12.7774   57.2877 N   0  0  0  0  0  0  0  0  0  0  0  0
 17 18  1  0  0  0
 18 16  1  0  0  0
 16  6  1  0  0  0
  6  7  1  0  0  0
  7  8  1  0  0  0
  8  9  1  0  0  0
  9 10  2  0  0  0
 10 11  1  0  0  0
 11 12  2  0  0  0
 12  1  1  0  0  0
  1  2  2  0  0  0
  2  3  1  0  0  0
  3  4  2  0  0  0
  4 19  1  0  0  0
 19 20  1  0  0  0
 20 21  1  0  0  0
 21 22  2  0  0  0
 22 23  1  0  0  0
 23 24  2  0  0  0
 24 27  1  0  0  0
 27 28  2  0  0  0
 28 29  1  0  0  0
 29 30  2  0  0  0
 30 31  1  0  0  0
 31 32  2  0  0  0
 32 33  1  0  0  0
 33 34  3  0  0  0
 24 25  1  0  0  0
 25 26  2  0  0  0
  4  5  1  0  0  0
 12 13  1  0  0  0
 13 14  2  0  0  0
 14 15  1  0  0  0
 15  6  1  0  0  0
 14  9  1  0  0  0
  5  1  1  0  0  0
 26 21  1  0  0  0
 32 27  1  0  0  0
M  END
> <minimizedAffinity>
21.53709

> <CNNscore>
0.5962569118

> <CNNaffinity>
5.9519300461

> <CNN_VS>
3.5488793850

> <CNNaffinity_variance>
0.1052041426

$$$$
[H]c1c([H])c([H])c(-c2c([H])c([H])c(C([H])([H])Sc3nnc(-c4c([H])c([H])c5c(c4[H])O[C@@]([H])(C([H])([H])OC([H])([H])[H])C([H])([H])O5)o3)c([H])c2[H])c(C#N)c1[H]


 34 38  0  0  0  0  0  0  0  0999 V2000
   26.4611    8.0711   54.6907 C   0  0  0  0  0  0  0  0  0  0  0  0
   27.5261    8.1869   53.8988 N   0  0  0  0  0  0  0  0  0  0  0  0
   28.5779    8.4132   54.6554 N   0  0  0  0  0  0  0  0  0  0  0  0
   28.1824    8.4415   55.9307 C   0  0  0  0  0  0  0  0  0  0  0  0
   26.8647    8.2248   55.9009 O   0  0  0  0  0  0  0  0  0  0  0  0
   21.0118    9.3378   52.2099 C   0  0  0  0  0  0  0  0  0  0  0  0
   20.7829    7.8887   51.8055 C   0  0  0  0  0  0  0  0  0  0  0  0
   21.2117    7.0866   52.9230 O   0  0  0  0  0  0  0  0  0  0  0  0
   22.5022    7.3048   53.3715 C   0  0  0  0  0  0  0  0  0  0  0  0
   23.1573    6.3622   54.1699 C   0  0  0  0  0  0  0  0  0  0  0  0
   24.4434    6.6490   54.5790 C   0  0  0  0  0  0  0  0  0  0  0  0
   25.0854    7.8141   54.2293 C   0  0  0  0  0  0  0  0  0  0  0  0
   24.4282    8.7152   53.4527 C   0  0  0  0  0  0  0  0  0  0  0  0
   23.1290    8.4784   53.0106 C   0  0  0  0  0  0  0  0  0  0  0  0
   22.4801    9.4140   52.2185 O   0  0  0  0  0  0  0  0  0  0  0  0
   20.5107   10.3255   51.2147 C   0  0  0  0  0  0  0  0  0  0  0  0
   21.3896   12.5170   51.4036 C   0  0  0  0  0  0  0  0  0  0  0  0
   21.2668   11.3316   50.7944 O   0  0  0  0  0  0  0  0  0  0  0  0
   29.1740    8.7085   57.3753 S   0  0  0  0  0  0  0  0  0  0  0  0
   28.2397    9.2059   58.8260 C   0  0  0  0  0  0  0  0  0  0  0  0
   28.6667   10.5113   59.3685 C   0  0  0  0  0  0  0  0  0  0  0  0
   28.2881   11.6642   58.6807 C   0  0  0  0  0  0  0  0  0  0  0  0
   28.6773   12.9060   59.1305 C   0  0  0  0  0  0  0  0  0  0  0  0
   29.4424   13.0761   60.2560 C   0  0  0  0  0  0  0  0  0  0  0  0
   29.8144   11.9311   60.9323 C   0  0  0  0  0  0  0  0  0  0  0  0
   29.4262   10.6802   60.4840 C   0  0  0  0  0  0  0  0  0  0  0  0
   29.8705   14.3645   60.7782 C   0  0  0  0  0  0  0  0  0  0  0  0
   31.2036   14.7752   60.6460 C   0  0  0  0  0  0  0  0  0  0  0  0
   31.6223   15.9942   61.1211 C   0  0  0  0  0  0  0  0  0  0  0  0
   30.7604   16.8682   61.7467 C   0  0  0  0  0  0  0  0  0  0  0  0
   29.4484   16.4791   61.8843 C   0  0  0  0  0  0  0  0  0  0  0  0
   29.0179   15.2386   61.4021 C   0  0  0  0  0  0  0  0  0  0  0  0
   27.6388   14.8702   61.5828 C   0  0  0  0  0  0  0  0  0  0  0  0
   26.5191   14.5933   61.7418 N   0  0  0  0  0  0  0  0  0  0  0  0
 17 18  1  0  0  0
 18 16  1  0  0  0
 16  6  1  0  0  0
  6  7  1  0  0  0
  7  8  1  0  0  0
  8  9  1  0  0  0
  9 10  2  0  0  0
 10 11  1  0  0  0
 11 12  2  0  0  0
 12  1  1  0  0  0
  1  2  2  0  0  0
  2  3  1  0  0  0
  3  4  2  0  0  0
  4 19  1  0  0  0
 19 20  1  0  0  0
 20 21  1  0  0  0
 21 22  2  0  0  0
 22 23  1  0  0  0
 23 24  2  0  0  0
 24 27  1  0  0  0
 27 28  2  0  0  0
 28 29  1  0  0  0
 29 30  2  0  0  0
 30 31  1  0  0  0
 31 32  2  0  0  0
 32 33  1  0  0  0
 33 34  3  0  0  0
 24 25  1  0  0  0
 25 26  2  0  0  0
  4  5  1  0  0  0
 12 13  1  0  0  0
 13 14  2  0  0  0
 14 15  1  0  0  0
 15  6  1  0  0  0
 14  9  1  0  0  0
  5  1  1  0  0  0
 26 21  1  0  0  0
 32 27  1  0  0  0
M  END
> <minimizedAffinity>
9.64970

> <CNNscore>
0.5260920525

> <CNNaffinity>
5.8965849876

> <CNN_VS>
3.1021463871

> <CNNaffinity_variance>
0.2556288540

$$$$
[H]c1c([H])c([H])c(-c2c([H])c([H])c(C([H])([H])Sc3nnc(-c4c([H])c([H])c5c(c4[H])O[C@@]([H])(C([H])([H])OC([H])([H])[H])C([H])([H])O5)o3)c([H])c2[H])c(C#N)c1[H]


 34 38  0  0  0  0  0  0  0  0999 V2000
   28.1991    9.7765   57.4246 C   0  0  0  0  0  0  0  0  0  0  0  0
   26.9508    9.6339   56.9818 N   0  0  0  0  0  0  0  0  0  0  0  0
   26.9847    8.9123   55.8827 N   0  0  0  0  0  0  0  0  0  0  0  0
   28.2561    8.5948   55.6251 C   0  0  0  0  0  0  0  0  0  0  0  0
   28.9695    9.1523   56.6072 O   0  0  0  0  0  0  0  0  0  0  0  0
   29.7908   14.6302   60.7954 C   0  0  0  0  0  0  0  0  0  0  0  0
   29.2647   13.9988   62.0761 C   0  0  0  0  0  0  0  0  0  0  0  0
   29.6830   12.6203   62.0464 O   0  0  0  0  0  0  0  0  0  0  0  0
   29.3232   11.8973   60.9230 C   0  0  0  0  0  0  0  0  0  0  0  0
   29.3283   10.4990   60.9331 C   0  0  0  0  0  0  0  0  0  0  0  0
   28.9571    9.8466   59.7755 C   0  0  0  0  0  0  0  0  0  0  0  0
   28.5897   10.5214   58.6346 C   0  0  0  0  0  0  0  0  0  0  0  0
   28.5927   11.8803   58.6490 C   0  0  0  0  0  0  0  0  0  0  0  0
   28.9581   12.5914   59.7893 C   0  0  0  0  0  0  0  0  0  0  0  0
   28.9526   13.9784   59.7784 O   0  0  0  0  0  0  0  0  0  0  0  0
   29.5542   16.0976   60.7079 C   0  0  0  0  0  0  0  0  0  0  0  0
   31.5966   16.7669   59.7122 C   0  0  0  0  0  0  0  0  0  0  0  0
   30.2764   16.8703   59.9066 O   0  0  0  0  0  0  0  0  0  0  0  0
   28.8901    7.6388   54.2741 S   0  0  0  0  0  0  0  0  0  0  0  0
   27.6302    6.7736   53.3314 C   0  0  0  0  0  0  0  0  0  0  0  0
   26.2603    7.2271   53.6455 C   0  0  0  0  0  0  0  0  0  0  0  0
   25.7831    8.3695   53.0034 C   0  0  0  0  0  0  0  0  0  0  0  0
   24.5211    8.8485   53.2754 C   0  0  0  0  0  0  0  0  0  0  0  0
   23.6801    8.2424   54.1734 C   0  0  0  0  0  0  0  0  0  0  0  0
   24.1584    7.1121   54.8062 C   0  0  0  0  0  0  0  0  0  0  0  0
   25.4266    6.6267   54.5367 C   0  0  0  0  0  0  0  0  0  0  0  0
   22.3362    8.7016   54.4879 C   0  0  0  0  0  0  0  0  0  0  0  0
   22.1320    9.9773   55.0303 C   0  0  0  0  0  0  0  0  0  0  0  0
   20.8688   10.4324   55.3207 C   0  0  0  0  0  0  0  0  0  0  0  0
   19.7474    9.6645   55.0957 C   0  0  0  0  0  0  0  0  0  0  0  0
   19.9316    8.4095   54.5638 C   0  0  0  0  0  0  0  0  0  0  0  0
   21.2161    7.9421   54.2667 C   0  0  0  0  0  0  0  0  0  0  0  0
   21.3588    6.6167   53.7254 C   0  0  0  0  0  0  0  0  0  0  0  0
   21.4546    5.5367   53.3009 N   0  0  0  0  0  0  0  0  0  0  0  0
 17 18  1  0  0  0
 18 16  1  0  0  0
 16  6  1  0  0  0
  6  7  1  0  0  0
  7  8  1  0  0  0
  8  9  1  0  0  0
  9 10  2  0  0  0
 10 11  1  0  0  0
 11 12  2  0  0  0
 12  1  1  0  0  0
  1  2  2  0  0  0
  2  3  1  0  0  0
  3  4  2  0  0  0
  4 19  1  0  0  0
 19 20  1  0  0  0
 20 21  1  0  0  0
 21 22  2  0  0  0
 22 23  1  0  0  0
 23 24  2  0  0  0
 24 27  1  0  0  0
 27 28  2  0  0  0
 28 29  1  0  0  0
 29 30  2  0  0  0
 30 31  1  0  0  0
 31 32  2  0  0  0
 32 33  1  0  0  0
 33 34  3  0  0  0
 24 25  1  0  0  0
 25 26  2  0  0  0
  4  5  1  0  0  0
 12 13  1  0  0  0
 13 14  2  0  0  0
 14 15  1  0  0  0
 15  6  1  0  0  0
 14  9  1  0  0  0
  5  1  1  0  0  0
 26 21  1  0  0  0
 32 27  1  0  0  0
M  END
> <minimizedAffinity>
14.59836

> <CNNscore>
0.5022148490

> <CNNaffinity>
6.2619123459

> <CNN_VS>
3.1448254585

> <CNNaffinity_variance>
0.2267384529

$$$$
[H]c1c([H])c([H])c(-c2c([H])c([H])c(C([H])([H])Sc3nnc(-c4c([H])c([H])c5c(c4[H])O[C@@]([H])(C([H])([H])OC([H])([H])[H])C([H])([H])O5)o3)c([H])c2[H])c(C#N)c1[H]


 34 38  0  0  0  0  0  0  0  0999 V2000
   26.3441    8.9220   55.6174 C   0  0  0  0  0  0  0  0  0  0  0  0
   27.3337    9.1170   54.7471 N   0  0  0  0  0  0  0  0  0  0  0  0
   28.4745    8.9203   55.3713 N   0  0  0  0  0  0  0  0  0  0  0  0
   28.2113    8.5996   56.6408 C   0  0  0  0  0  0  0  0  0  0  0  0
   26.8796    8.6137   56.7440 O   0  0  0  0  0  0  0  0  0  0  0  0
   21.0341    7.6520   52.8526 C   0  0  0  0  0  0  0  0  0  0  0  0
   20.2194    8.1733   54.0274 C   0  0  0  0  0  0  0  0  0  0  0  0
   20.8604    9.3919   54.4521 O   0  0  0  0  0  0  0  0  0  0  0  0
   22.2079    9.3005   54.7521 C   0  0  0  0  0  0  0  0  0  0  0  0
   22.8445   10.2819   55.5180 C   0  0  0  0  0  0  0  0  0  0  0  0
   24.1903   10.1228   55.7767 C   0  0  0  0  0  0  0  0  0  0  0  0
   24.9082    9.0462   55.3105 C   0  0  0  0  0  0  0  0  0  0  0  0
   24.2677    8.1052   54.5680 C   0  0  0  0  0  0  0  0  0  0  0  0
   22.9104    8.2141   54.2759 C   0  0  0  0  0  0  0  0  0  0  0  0
   22.2798    7.2399   53.5161 O   0  0  0  0  0  0  0  0  0  0  0  0
   20.4463    6.4491   52.2007 C   0  0  0  0  0  0  0  0  0  0  0  0
   20.0023    4.5166   53.4965 C   0  0  0  0  0  0  0  0  0  0  0  0
   19.6320    5.6326   52.8570 O   0  0  0  0  0  0  0  0  0  0  0  0
   29.3647    8.2295   57.9346 S   0  0  0  0  0  0  0  0  0  0  0  0
   28.8164    8.7249   59.5714 C   0  0  0  0  0  0  0  0  0  0  0  0
   29.1185   10.1373   59.8789 C   0  0  0  0  0  0  0  0  0  0  0  0
   29.9034   10.4125   60.9985 C   0  0  0  0  0  0  0  0  0  0  0  0
   30.1974   11.7126   61.3436 C   0  0  0  0  0  0  0  0  0  0  0  0
   29.7453   12.7874   60.6214 C   0  0  0  0  0  0  0  0  0  0  0  0
   28.9685   12.5086   59.5144 C   0  0  0  0  0  0  0  0  0  0  0  0
   28.6695   11.2032   59.1635 C   0  0  0  0  0  0  0  0  0  0  0  0
   30.0360   14.1772   60.9371 C   0  0  0  0  0  0  0  0  0  0  0  0
   31.3391   14.6757   60.8079 C   0  0  0  0  0  0  0  0  0  0  0  0
   31.6289   15.9888   61.0887 C   0  0  0  0  0  0  0  0  0  0  0  0
   30.6617   16.8755   61.5082 C   0  0  0  0  0  0  0  0  0  0  0  0
   29.3774   16.4010   61.6401 C   0  0  0  0  0  0  0  0  0  0  0  0
   29.0780   15.0646   61.3554 C   0  0  0  0  0  0  0  0  0  0  0  0
   27.7226   14.6117   61.5227 C   0  0  0  0  0  0  0  0  0  0  0  0
   26.6302   14.2417   61.6825 N   0  0  0  0  0  0  0  0  0  0  0  0
 17 18  1  0  0  0
 18 16  1  0  0  0
 16  6  1  0  0  0
  6  7  1  0  0  0
  7  8  1  0  0  0
  8  9  1  0  0  0
  9 10  2  0  0  0
 10 11  1  0  0  0
 11 12  2  0  0  0
 12  1  1  0  0  0
  1  2  2  0  0  0
  2  3  1  0  0  0
  3  4  2  0  0  0
  4 19  1  0  0  0
 19 20  1  0  0  0
 20 21  1  0  0  0
 21 22  2  0  0  0
 22 23  1  0  0  0
 23 24  2  0  0  0
 24 27  1  0  0  0
 27 28  2  0  0  0
 28 29  1  0  0  0
 29 30  2  0  0  0
 30 31  1  0  0  0
 31 32  2  0  0  0
 32 33  1  0  0  0
 33 34  3  0  0  0
 24 25  1  0  0  0
 25 26  2  0  0  0
  4  5  1  0  0  0
 12 13  1  0  0  0
 13 14  2  0  0  0
 14 15  1  0  0  0
 15  6  1  0  0  0
 14  9  1  0  0  0
  5  1  1  0  0  0
 26 21  1  0  0  0
 32 27  1  0  0  0
M  END
> <minimizedAffinity>
10.97197

> <CNNscore>
0.5019845963

> <CNNaffinity>
6.0025825500

> <CNN_VS>
3.0132038593

> <CNNaffinity_variance>
0.3172325492

$$$$
[H]c1c([H])c([H])c(-c2c([H])c([H])c(C([H])([H])Sc3nnc(-c4c([H])c([H])c5c(c4[H])O[C@@]([H])(C([H])([H])OC([H])([H])[H])C([H])([H])O5)o3)c([H])c2[H])c(C#N)c1[H]


 34 38  0  0  0  0  0  0  0  0999 V2000
   26.7378    8.8670   55.9457 C   0  0  0  0  0  0  0  0  0  0  0  0
   27.1349    8.7194   54.6826 N   0  0  0  0  0  0  0  0  0  0  0  0
   26.2083    8.0455   54.0368 N   0  0  0  0  0  0  0  0  0  0  0  0
   25.2198    7.7634   54.8894 C   0  0  0  0  0  0  0  0  0  0  0  0
   25.5937    8.2927   56.0574 O   0  0  0  0  0  0  0  0  0  0  0  0
   29.8717    9.5118   61.1626 C   0  0  0  0  0  0  0  0  0  0  0  0
   30.6190   10.7312   60.6426 C   0  0  0  0  0  0  0  0  0  0  0  0
   29.6431   11.5380   59.9550 O   0  0  0  0  0  0  0  0  0  0  0  0
   28.9207   10.9056   58.9588 C   0  0  0  0  0  0  0  0  0  0  0  0
   28.2379   11.6412   57.9853 C   0  0  0  0  0  0  0  0  0  0  0  0
   27.5391   10.9413   57.0233 C   0  0  0  0  0  0  0  0  0  0  0  0
   27.4971    9.5667   56.9970 C   0  0  0  0  0  0  0  0  0  0  0  0
   28.1685    8.8735   57.9538 C   0  0  0  0  0  0  0  0  0  0  0  0
   28.8905    9.5274   58.9492 C   0  0  0  0  0  0  0  0  0  0  0  0
   29.5676    8.7968   59.9143 O   0  0  0  0  0  0  0  0  0  0  0  0
   30.7037    8.6138   62.0103 C   0  0  0  0  0  0  0  0  0  0  0  0
   29.2844    6.7187   62.0814 C   0  0  0  0  0  0  0  0  0  0  0  0
   30.4871    7.3055   62.0557 O   0  0  0  0  0  0  0  0  0  0  0  0
   23.7196    6.8766   54.5664 S   0  0  0  0  0  0  0  0  0  0  0  0
   22.9792    7.2418   52.9717 C   0  0  0  0  0  0  0  0  0  0  0  0
   22.4208    8.6066   52.8930 C   0  0  0  0  0  0  0  0  0  0  0  0
   22.6007    9.4541   53.9860 C   0  0  0  0  0  0  0  0  0  0  0  0
   22.0820   10.7295   53.9745 C   0  0  0  0  0  0  0  0  0  0  0  0
   21.3747   11.2282   52.9105 C   0  0  0  0  0  0  0  0  0  0  0  0
   21.1996   10.3844   51.8316 C   0  0  0  0  0  0  0  0  0  0  0  0
   21.7186    9.1010   51.8384 C   0  0  0  0  0  0  0  0  0  0  0  0
   20.8161   12.5697   52.8444 C   0  0  0  0  0  0  0  0  0  0  0  0
   19.9362   13.0206   53.8372 C   0  0  0  0  0  0  0  0  0  0  0  0
   19.4099   14.2889   53.7978 C   0  0  0  0  0  0  0  0  0  0  0  0
   19.7174   15.1751   52.7889 C   0  0  0  0  0  0  0  0  0  0  0  0
   20.5798   14.7469   51.8066 C   0  0  0  0  0  0  0  0  0  0  0  0
   21.1179   13.4563   51.8427 C   0  0  0  0  0  0  0  0  0  0  0  0
   22.0039   13.0495   50.7846 C   0  0  0  0  0  0  0  0  0  0  0  0
   22.7142   12.6965   49.9321 N   0  0  0  0  0  0  0  0  0  0  0  0
 17 18  1  0  0  0
 18 16  1  0  0  0
 16  6  1  0  0  0
  6  7  1  0  0  0
  7  8  1  0  0  0
  8  9  1  0  0  0
  9 10  2  0  0  0
 10 11  1  0  0  0
 11 12  2  0  0  0
 12  1  1  0  0  0
  1  2  2  0  0  0
  2  3  1  0  0  0
  3  4  2  0  0  0
  4 19  1  0  0  0
 19 20  1  0  0  0
 20 21  1  0  0  0
 21 22  2  0  0  0
 22 23  1  0  0  0
 23 24  2  0  0  0
 24 27  1  0  0  0
 27 28  2  0  0  0
 28 29  1  0  0  0
 29 30  2  0  0  0
 30 31  1  0  0  0
 31 32  2  0  0  0
 32 33  1  0  0  0
 33 34  3  0  0  0
 24 25  1  0  0  0
 25 26  2  0  0  0
  4  5  1  0  0  0
 12 13  1  0  0  0
 13 14  2  0  0  0
 14 15  1  0  0  0
 15  6  1  0  0  0
 14  9  1  0  0  0
  5  1  1  0  0  0
 26 21  1  0  0  0
 32 27  1  0  0  0
M  END
> <minimizedAffinity>
20.98339

> <CNNscore>
0.4931170642

> <CNNaffinity>
6.1335921288

> <CNN_VS>
3.0245790482

> <CNNaffinity_variance>
0.0366622806

$$$$
[H]c1c([H])c([H])c(-c2c([H])c([H])c(C([H])([H])Sc3nnc(-c4c([H])c([H])c5c(c4[H])O[C@@]([H])(C([H])([H])OC([H])([H])[H])C([H])([H])O5)o3)c([H])c2[H])c(C#N)c1[H]


 34 38  0  0  0  0  0  0  0  0999 V2000
   24.8755    8.1258   53.5634 C   0  0  0  0  0  0  0  0  0  0  0  0
   25.7857    8.0060   52.5980 N   0  0  0  0  0  0  0  0  0  0  0  0
   26.9690    8.2535   53.1160 N   0  0  0  0  0  0  0  0  0  0  0  0
   26.8125    8.5312   54.4130 C   0  0  0  0  0  0  0  0  0  0  0  0
   25.4998    8.4394   54.6420 O   0  0  0  0  0  0  0  0  0  0  0  0
   19.6408    5.0224   52.9156 C   0  0  0  0  0  0  0  0  0  0  0  0
   18.8142    6.1625   53.4925 C   0  0  0  0  0  0  0  0  0  0  0  0
   19.3384    7.3729   52.9128 O   0  0  0  0  0  0  0  0  0  0  0  0
   20.6970    7.5847   53.0663 C   0  0  0  0  0  0  0  0  0  0  0  0
   21.2524    8.8567   52.8964 C   0  0  0  0  0  0  0  0  0  0  0  0
   22.6150    8.9910   53.0659 C   0  0  0  0  0  0  0  0  0  0  0  0
   23.4255    7.9283   53.3910 C   0  0  0  0  0  0  0  0  0  0  0  0
   22.8628    6.7016   53.5508 C   0  0  0  0  0  0  0  0  0  0  0  0
   21.4929    6.5073   53.3922 C   0  0  0  0  0  0  0  0  0  0  0  0
   20.9429    5.2452   53.5610 O   0  0  0  0  0  0  0  0  0  0  0  0
   19.1605    3.6706   53.3144 C   0  0  0  0  0  0  0  0  0  0  0  0
   16.9263    3.3404   54.0287 C   0  0  0  0  0  0  0  0  0  0  0  0
   18.2349    3.5118   54.2518 O   0  0  0  0  0  0  0  0  0  0  0  0
   28.0634    8.9388   55.6006 S   0  0  0  0  0  0  0  0  0  0  0  0
   27.5068    8.8706   57.3066 C   0  0  0  0  0  0  0  0  0  0  0  0
   28.0263    9.9819   58.1286 C   0  0  0  0  0  0  0  0  0  0  0  0
   27.6926   11.2846   57.7585 C   0  0  0  0  0  0  0  0  0  0  0  0
   28.1677   12.3588   58.4770 C   0  0  0  0  0  0  0  0  0  0  0  0
   28.9781   12.2120   59.5737 C   0  0  0  0  0  0  0  0  0  0  0  0
   29.3054   10.9200   59.9349 C   0  0  0  0  0  0  0  0  0  0  0  0
   28.8308    9.8366   59.2155 C   0  0  0  0  0  0  0  0  0  0  0  0
   29.4971   13.3117   60.3719 C   0  0  0  0  0  0  0  0  0  0  0  0
   28.9563   14.5979   60.2428 C   0  0  0  0  0  0  0  0  0  0  0  0
   29.4250   15.6452   60.9982 C   0  0  0  0  0  0  0  0  0  0  0  0
   30.4421   15.4862   61.9137 C   0  0  0  0  0  0  0  0  0  0  0  0
   30.9835   14.2293   62.0517 C   0  0  0  0  0  0  0  0  0  0  0  0
   30.5093   13.1602   61.2844 C   0  0  0  0  0  0  0  0  0  0  0  0
   31.1177   11.8674   61.4540 C   0  0  0  0  0  0  0  0  0  0  0  0
   31.6285   10.8319   61.6043 N   0  0  0  0  0  0  0  0  0  0  0  0
 17 18  1  0  0  0
 18 16  1  0  0  0
 16  6  1  0  0  0
  6  7  1  0  0  0
  7  8  1  0  0  0
  8  9  1  0  0  0
  9 10  2  0  0  0
 10 11  1  0  0  0
 11 12  2  0  0  0
 12  1  1  0  0  0
  1  2  2  0  0  0
  2  3  1  0  0  0
  3  4  2  0  0  0
  4 19  1  0  0  0
 19 20  1  0  0  0
 20 21  1  0  0  0
 21 22  2  0  0  0
 22 23  1  0  0  0
 23 24  2  0  0  0
 24 27  1  0  0  0
 27 28  2  0  0  0
 28 29  1  0  0  0
 29 30  2  0  0  0
 30 31  1  0  0  0
 31 32  2  0  0  0
 32 33  1  0  0  0
 33 34  3  0  0  0
 24 25  1  0  0  0
 25 26  2  0  0  0
  4  5  1  0  0  0
 12 13  1  0  0  0
 13 14  2  0  0  0
 14 15  1  0  0  0
 15  6  1  0  0  0
 14  9  1  0  0  0
  5  1  1  0  0  0
 26 21  1  0  0  0
 32 27  1  0  0  0
M  END
> <minimizedAffinity>
9.76930

> <CNNscore>
0.4882547557

> <CNNaffinity>
5.9715032578

> <CNN_VS>
2.9156148434

> <CNNaffinity_variance>
0.0535802655

$$$$
[H]c1c([H])c([H])c(-c2c([H])c([H])c(C([H])([H])Sc3nnc(-c4c([H])c([H])c5c(c4[H])O[C@@]([H])(C([H])([H])OC([H])([H])[H])C([H])([H])O5)o3)c([H])c2[H])c(C#N)c1[H]


 34 38  0  0  0  0  0  0  0  0999 V2000
   28.0150    9.4474   57.1032 C   0  0  0  0  0  0  0  0  0  0  0  0
   28.3732    9.8288   55.8781 N   0  0  0  0  0  0  0  0  0  0  0  0
   27.8362    8.9944   55.0147 N   0  0  0  0  0  0  0  0  0  0  0  0
   27.1351    8.0805   55.6906 C   0  0  0  0  0  0  0  0  0  0  0  0
   27.2764    8.4032   56.9791 O   0  0  0  0  0  0  0  0  0  0  0  0
   29.3859   14.1313   60.7958 C   0  0  0  0  0  0  0  0  0  0  0  0
   28.9919   13.3525   62.0424 C   0  0  0  0  0  0  0  0  0  0  0  0
   29.5231   12.0241   61.8714 O   0  0  0  0  0  0  0  0  0  0  0  0
   29.1601   11.3663   60.7097 C   0  0  0  0  0  0  0  0  0  0  0  0
   29.2844    9.9780   60.5980 C   0  0  0  0  0  0  0  0  0  0  0  0
   28.9021    9.3921   59.4088 C   0  0  0  0  0  0  0  0  0  0  0  0
   28.4119   10.1225   58.3514 C   0  0  0  0  0  0  0  0  0  0  0  0
   28.3005   11.4705   58.4836 C   0  0  0  0  0  0  0  0  0  0  0  0
   28.6710   12.1155   59.6609 C   0  0  0  0  0  0  0  0  0  0  0  0
   28.5473   13.4926   59.7707 O   0  0  0  0  0  0  0  0  0  0  0  0
   29.0209   15.5739   60.8484 C   0  0  0  0  0  0  0  0  0  0  0  0
   30.9078   16.8683   61.4607 C   0  0  0  0  0  0  0  0  0  0  0  0
   29.6591   16.4225   61.6441 O   0  0  0  0  0  0  0  0  0  0  0  0
   26.2059    6.7181   55.0413 S   0  0  0  0  0  0  0  0  0  0  0  0
   24.4373    6.8304   55.3315 C   0  0  0  0  0  0  0  0  0  0  0  0
   23.7784    7.8535   54.4949 C   0  0  0  0  0  0  0  0  0  0  0  0
   22.9942    8.8162   55.1302 C   0  0  0  0  0  0  0  0  0  0  0  0
   22.3399    9.7802   54.3964 C   0  0  0  0  0  0  0  0  0  0  0  0
   22.4207    9.8472   53.0289 C   0  0  0  0  0  0  0  0  0  0  0  0
   23.1981    8.8913   52.4057 C   0  0  0  0  0  0  0  0  0  0  0  0
   23.8576    7.9196   53.1388 C   0  0  0  0  0  0  0  0  0  0  0  0
   21.7587   10.8502   52.2094 C   0  0  0  0  0  0  0  0  0  0  0  0
   22.0305   12.2118   52.3985 C   0  0  0  0  0  0  0  0  0  0  0  0
   21.4247   13.1716   51.6246 C   0  0  0  0  0  0  0  0  0  0  0  0
   20.5265   12.8478   50.6315 C   0  0  0  0  0  0  0  0  0  0  0  0
   20.2491   11.5152   50.4339 C   0  0  0  0  0  0  0  0  0  0  0  0
   20.8636   10.5345   51.2198 C   0  0  0  0  0  0  0  0  0  0  0  0
   20.5299    9.1548   50.9850 C   0  0  0  0  0  0  0  0  0  0  0  0
   20.2495    8.0447   50.7732 N   0  0  0  0  0  0  0  0  0  0  0  0
 17 18  1  0  0  0
 18 16  1  0  0  0
 16  6  1  0  0  0
  6  7  1  0  0  0
  7  8  1  0  0  0
  8  9  1  0  0  0
  9 10  2  0  0  0
 10 11  1  0  0  0
 11 12  2  0  0  0
 12  1  1  0  0  0
  1  2  2  0  0  0
  2  3  1  0  0  0
  3  4  2  0  0  0
  4 19  1  0  0  0
 19 20  1  0  0  0
 20 21  1  0  0  0
 21 22  2  0  0  0
 22 23  1  0  0  0
 23 24  2  0  0  0
 24 27  1  0  0  0
 27 28  2  0  0  0
 28 29  1  0  0  0
 29 30  2  0  0  0
 30 31  1  0  0  0
 31 32  2  0  0  0
 32 33  1  0  0  0
 33 34  3  0  0  0
 24 25  1  0  0  0
 25 26  2  0  0  0
  4  5  1  0  0  0
 12 13  1  0  0  0
 13 14  2  0  0  0
 14 15  1  0  0  0
 15  6  1  0  0  0
 14  9  1  0  0  0
  5  1  1  0  0  0
 26 21  1  0  0  0
 32 27  1  0  0  0
M  END
> <minimizedAffinity>
18.74849

> <CNNscore>
0.4804171622

> <CNNaffinity>
5.9012670517

> <CNN_VS>
2.8350698948

> <CNNaffinity_variance>
0.2569577694

$$$$
[H]c1c([H])c([H])c(-c2c([H])c([H])c(C([H])([H])Sc3nnc(-c4c([H])c([H])c5c(c4[H])O[C@@]([H])(C([H])([H])OC([H])([H])[H])C([H])([H])O5)o3)c([H])c2[H])c(C#N)c1[H]


 34 38  0  0  0  0  0  0  0  0999 V2000
   26.4388    8.2754   55.2397 C   0  0  0  0  0  0  0  0  0  0  0  0
   26.3374    8.5777   53.9462 N   0  0  0  0  0  0  0  0  0  0  0  0
   25.6293    7.6377   53.3589 N   0  0  0  0  0  0  0  0  0  0  0  0
   25.2792    6.7356   54.2794 C   0  0  0  0  0  0  0  0  0  0  0  0
   25.8034    7.1742   55.4269 O   0  0  0  0  0  0  0  0  0  0  0  0
   28.8810    9.6318   60.6847 C   0  0  0  0  0  0  0  0  0  0  0  0
   29.8979   10.5815   60.0683 C   0  0  0  0  0  0  0  0  0  0  0  0
   29.1861   11.3424   59.0731 O   0  0  0  0  0  0  0  0  0  0  0  0
   28.5085   10.6105   58.1143 C   0  0  0  0  0  0  0  0  0  0  0  0
   28.1093   11.1959   56.9089 C   0  0  0  0  0  0  0  0  0  0  0  0
   27.4380   10.4034   56.0007 C   0  0  0  0  0  0  0  0  0  0  0  0
   27.1566    9.0793   56.2445 C   0  0  0  0  0  0  0  0  0  0  0  0
   27.5546    8.5325   57.4234 C   0  0  0  0  0  0  0  0  0  0  0  0
   28.2357    9.2849   58.3770 C   0  0  0  0  0  0  0  0  0  0  0  0
   28.6314    8.7033   59.5724 O   0  0  0  0  0  0  0  0  0  0  0  0
   29.4142    8.8401   61.8275 C   0  0  0  0  0  0  0  0  0  0  0  0
   31.6283    8.7684   60.9887 C   0  0  0  0  0  0  0  0  0  0  0  0
   30.6656    8.3990   61.8421 O   0  0  0  0  0  0  0  0  0  0  0  0
   24.3229    5.2605   54.0535 S   0  0  0  0  0  0  0  0  0  0  0  0
   22.6082    5.5573   53.6101 C   0  0  0  0  0  0  0  0  0  0  0  0
   22.3247    6.9766   53.3169 C   0  0  0  0  0  0  0  0  0  0  0  0
   21.7631    7.2924   52.0799 C   0  0  0  0  0  0  0  0  0  0  0  0
   21.4985    8.6017   51.7461 C   0  0  0  0  0  0  0  0  0  0  0  0
   21.7659    9.6470   52.5928 C   0  0  0  0  0  0  0  0  0  0  0  0
   22.3223    9.3281   53.8158 C   0  0  0  0  0  0  0  0  0  0  0  0
   22.5908    8.0133   54.1560 C   0  0  0  0  0  0  0  0  0  0  0  0
   21.4960   11.0445   52.2928 C   0  0  0  0  0  0  0  0  0  0  0  0
   21.5644   11.5121   50.9737 C   0  0  0  0  0  0  0  0  0  0  0  0
   21.2994   12.8255   50.6705 C   0  0  0  0  0  0  0  0  0  0  0  0
   20.9556   13.7425   51.6394 C   0  0  0  0  0  0  0  0  0  0  0  0
   20.8845   13.2987   52.9393 C   0  0  0  0  0  0  0  0  0  0  0  0
   21.1538   11.9622   53.2524 C   0  0  0  0  0  0  0  0  0  0  0  0
   21.0807   11.5491   54.6287 C   0  0  0  0  0  0  0  0  0  0  0  0
   21.0153   11.2380   55.7489 N   0  0  0  0  0  0  0  0  0  0  0  0
 17 18  1  0  0  0
 18 16  1  0  0  0
 16  6  1  0  0  0
  6  7  1  0  0  0
  7  8  1  0  0  0
  8  9  1  0  0  0
  9 10  2  0  0  0
 10 11  1  0  0  0
 11 12  2  0  0  0
 12  1  1  0  0  0
  1  2  2  0  0  0
  2  3  1  0  0  0
  3  4  2  0  0  0
  4 19  1  0  0  0
 19 20  1  0  0  0
 20 21  1  0  0  0
 21 22  2  0  0  0
 22 23  1  0  0  0
 23 24  2  0  0  0
 24 27  1  0  0  0
 27 28  2  0  0  0
 28 29  1  0  0  0
 29 30  2  0  0  0
 30 31  1  0  0  0
 31 32  2  0  0  0
 32 33  1  0  0  0
 33 34  3  0  0  0
 24 25  1  0  0  0
 25 26  2  0  0  0
  4  5  1  0  0  0
 12 13  1  0  0  0
 13 14  2  0  0  0
 14 15  1  0  0  0
 15  6  1  0  0  0
 14  9  1  0  0  0
  5  1  1  0  0  0
 26 21  1  0  0  0
 32 27  1  0  0  0
M  END
> <minimizedAffinity>
19.66194

> <CNNscore>
0.4753137529

> <CNNaffinity>
6.1758770943

> <CNN_VS>
2.9354794025

> <CNNaffinity_variance>
0.1666287184

$$$$
[H]c1c([H])c([H])c(C2([H])C([H])([H])[C@]2([H])N([H])C([H])([H])c2c([H])c([H])c(OC([H])([H])[H])c3c([H])c([H])c([H])c([H])c23)c([H])c1[H]


 24 27  0  0  0  0  0  0  0  0999 V2000
   25.0902    8.0153   54.4157 C   0  0  0  0  0  0  0  0  0  0  0  0
   25.1179    6.8192   53.7430 C   0  0  0  0  0  0  0  0  0  0  0  0
   23.9716    6.0678   53.5249 C   0  0  0  0  0  0  0  0  0  0  0  0
   22.7490    6.5040   53.9839 C   0  0  0  0  0  0  0  0  0  0  0  0
   22.7120    7.7198   54.6694 C   0  0  0  0  0  0  0  0  0  0  0  0
   21.4822    8.1483   55.1251 C   0  0  0  0  0  0  0  0  0  0  0  0
   21.4624    9.3565   55.8031 C   0  0  0  0  0  0  0  0  0  0  0  0
   22.5948   10.1011   56.0196 C   0  0  0  0  0  0  0  0  0  0  0  0
   23.8163    9.6606   55.5587 C   0  0  0  0  0  0  0  0  0  0  0  0
   23.8599    8.4445   54.8720 C   0  0  0  0  0  0  0  0  0  0  0  0
   27.4979    8.3031   54.1447 C   0  0  0  0  0  0  0  0  0  0  0  0
   26.2502    8.7672   54.6316 O   0  0  0  0  0  0  0  0  0  0  0  0
   21.4986    5.7297   53.7613 C   0  0  0  0  0  0  0  0  0  0  0  0
   20.6599    6.4475   52.8527 N   0  0  0  0  0  0  0  0  0  0  0  0
   19.6876    6.5982   53.2204 H   0  0  0  0  0  0  0  0  0  0  0  0
   21.2393    7.6659   52.3567 C   0  0  0  0  0  0  0  0  0  0  0  0
   21.1998    7.7687   50.8275 C   0  0  0  0  0  0  0  0  0  0  0  0
   20.4634    8.7242   51.6898 C   0  0  0  0  0  0  0  0  0  0  0  0
   20.9658   10.1120   51.8222 C   0  0  0  0  0  0  0  0  0  0  0  0
   21.0614   10.9952   50.7718 C   0  0  0  0  0  0  0  0  0  0  0  0
   21.5287   12.2717   50.9197 C   0  0  0  0  0  0  0  0  0  0  0  0
   21.9249   12.7194   52.1484 C   0  0  0  0  0  0  0  0  0  0  0  0
   21.8413   11.8583   53.2213 C   0  0  0  0  0  0  0  0  0  0  0  0
   21.3662   10.5698   53.0550 C   0  0  0  0  0  0  0  0  0  0  0  0
 11 12  1  0  0  0
 12  1  1  0  0  0
  1  2  2  0  0  0
  2  3  1  0  0  0
  3  4  2  0  0  0
  4 13  1  0  0  0
 13 14  1  0  0  0
 14 16  1  0  0  0
 16 17  1  0  0  0
 17 18  1  0  0  0
 18 19  1  0  0  0
 19 20  2  0  0  0
 20 21  1  0  0  0
 21 22  2  0  0  0
 22 23  1  0  0  0
 23 24  2  0  0  0
  4  5  1  0  0  0
  5  6  2  0  0  0
  6  7  1  0  0  0
  7  8  2  0  0  0
  8  9  1  0  0  0
  9 10  2  0  0  0
 10  1  1  0  0  0
 18 16  1  0  0  0
 24 19  1  0  0  0
 10  5  1  0  0  0
 14 15  1  0  0  0
M  END
> <minimizedAffinity>
5.70489

> <CNNscore>
0.6453191638

> <CNNaffinity>
6.0953569412

> <CNN_VS>
3.9334506989

> <CNNaffinity_variance>
0.2346703559

$$$$
[H]c1c([H])c([H])c(C2([H])C([H])([H])[C@]2([H])N([H])C([H])([H])c2c([H])c([H])c(OC([H])([H])[H])c3c([H])c([H])c([H])c([H])c23)c([H])c1[H]


 24 27  0  0  0  0  0  0  0  0999 V2000
   23.6731    9.2404   55.5964 C   0  0  0  0  0  0  0  0  0  0  0  0
   22.3545    9.2212   55.9770 C   0  0  0  0  0  0  0  0  0  0  0  0
   21.4718    8.2464   55.5331 C   0  0  0  0  0  0  0  0  0  0  0  0
   21.8964    7.2506   54.6824 C   0  0  0  0  0  0  0  0  0  0  0  0
   23.2364    7.2628   54.2904 C   0  0  0  0  0  0  0  0  0  0  0  0
   23.6521    6.2607   53.4380 C   0  0  0  0  0  0  0  0  0  0  0  0
   24.9844    6.2869   53.0585 C   0  0  0  0  0  0  0  0  0  0  0  0
   25.8588    7.2498   53.4965 C   0  0  0  0  0  0  0  0  0  0  0  0
   25.4295    8.2447   54.3476 C   0  0  0  0  0  0  0  0  0  0  0  0
   24.0896    8.2379   54.7434 C   0  0  0  0  0  0  0  0  0  0  0  0
   25.8571    9.8685   56.4847 C   0  0  0  0  0  0  0  0  0  0  0  0
   24.5569   10.2265   56.0482 O   0  0  0  0  0  0  0  0  0  0  0  0
   20.9812    6.1848   54.1934 C   0  0  0  0  0  0  0  0  0  0  0  0
   20.6305    6.4572   52.8343 N   0  0  0  0  0  0  0  0  0  0  0  0
   19.5971    6.3987   52.6555 H   0  0  0  0  0  0  0  0  0  0  0  0
   21.1955    7.6725   52.3145 C   0  0  0  0  0  0  0  0  0  0  0  0
   20.9844    7.8331   50.8045 C   0  0  0  0  0  0  0  0  0  0  0  0
   20.3894    8.7808   51.7774 C   0  0  0  0  0  0  0  0  0  0  0  0
   20.9569   10.1447   51.8958 C   0  0  0  0  0  0  0  0  0  0  0  0
   21.0561   11.0266   50.8448 C   0  0  0  0  0  0  0  0  0  0  0  0
   21.5840   12.2807   50.9797 C   0  0  0  0  0  0  0  0  0  0  0  0
   22.0407   12.7059   52.1953 C   0  0  0  0  0  0  0  0  0  0  0  0
   21.9552   11.8454   53.2685 C   0  0  0  0  0  0  0  0  0  0  0  0
   21.4184   10.5797   53.1154 C   0  0  0  0  0  0  0  0  0  0  0  0
 11 12  1  0  0  0
 12  1  1  0  0  0
  1  2  2  0  0  0
  2  3  1  0  0  0
  3  4  2  0  0  0
  4 13  1  0  0  0
 13 14  1  0  0  0
 14 16  1  0  0  0
 16 17  1  0  0  0
 17 18  1  0  0  0
 18 19  1  0  0  0
 19 20  2  0  0  0
 20 21  1  0  0  0
 21 22  2  0  0  0
 22 23  1  0  0  0
 23 24  2  0  0  0
  4  5  1  0  0  0
  5  6  2  0  0  0
  6  7  1  0  0  0
  7  8  2  0  0  0
  8  9  1  0  0  0
  9 10  2  0  0  0
 10  1  1  0  0  0
 18 16  1  0  0  0
 24 19  1  0  0  0
 10  5  1  0  0  0
 14 15  1  0  0  0
M  END
> <minimizedAffinity>
11.55133

> <CNNscore>
0.6120311022

> <CNNaffinity>
5.9756526947

> <CNN_VS>
3.6572852135

> <CNNaffinity_variance>
0.3069802821

$$$$
[H]c1c([H])c([H])c(C2([H])C([H])([H])[C@]2([H])N([H])C([H])([H])c2c([H])c([H])c(OC([H])([H])[H])c3c([H])c([H])c([H])c([H])c23)c([H])c1[H]


 24 27  0  0  0  0  0  0  0  0999 V2000
   25.2395    9.0022   55.2239 C   0  0  0  0  0  0  0  0  0  0  0  0
   25.9337    8.2255   54.3302 C   0  0  0  0  0  0  0  0  0  0  0  0
   25.3099    7.2655   53.5457 C   0  0  0  0  0  0  0  0  0  0  0  0
   23.9523    7.0568   53.6397 C   0  0  0  0  0  0  0  0  0  0  0  0
   23.2385    7.8427   54.5464 C   0  0  0  0  0  0  0  0  0  0  0  0
   21.8786    7.6261   54.6330 C   0  0  0  0  0  0  0  0  0  0  0  0
   21.1849    8.4141   55.5372 C   0  0  0  0  0  0  0  0  0  0  0  0
   21.7999    9.3640   56.3138 C   0  0  0  0  0  0  0  0  0  0  0  0
   23.1589    9.5693   56.2166 C   0  0  0  0  0  0  0  0  0  0  0  0
   23.8788    8.7858   55.3110 C   0  0  0  0  0  0  0  0  0  0  0  0
   27.0341    9.6282   56.7539 C   0  0  0  0  0  0  0  0  0  0  0  0
   25.8755    9.9681   56.0114 O   0  0  0  0  0  0  0  0  0  0  0  0
   23.2486    6.0433   52.8089 C   0  0  0  0  0  0  0  0  0  0  0  0
   21.9188    6.4971   52.5447 N   0  0  0  0  0  0  0  0  0  0  0  0
   21.2796    6.4054   53.3731 H   0  0  0  0  0  0  0  0  0  0  0  0
   21.8514    7.8082   51.9593 C   0  0  0  0  0  0  0  0  0  0  0  0
   20.6385    7.9919   51.0398 C   0  0  0  0  0  0  0  0  0  0  0  0
   20.8021    8.7898   52.2788 C   0  0  0  0  0  0  0  0  0  0  0  0
   21.1657   10.2225   52.1720 C   0  0  0  0  0  0  0  0  0  0  0  0
   21.5234   11.0038   53.2462 C   0  0  0  0  0  0  0  0  0  0  0  0
   21.8549   12.3244   53.1216 C   0  0  0  0  0  0  0  0  0  0  0  0
   21.8403   12.9228   51.8932 C   0  0  0  0  0  0  0  0  0  0  0  0
   21.4862   12.1665   50.7967 C   0  0  0  0  0  0  0  0  0  0  0  0
   21.1534   10.8315   50.9396 C   0  0  0  0  0  0  0  0  0  0  0  0
 11 12  1  0  0  0
 12  1  1  0  0  0
  1  2  2  0  0  0
  2  3  1  0  0  0
  3  4  2  0  0  0
  4 13  1  0  0  0
 13 14  1  0  0  0
 14 16  1  0  0  0
 16 17  1  0  0  0
 17 18  1  0  0  0
 18 19  1  0  0  0
 19 20  2  0  0  0
 20 21  1  0  0  0
 21 22  2  0  0  0
 22 23  1  0  0  0
 23 24  2  0  0  0
  4  5  1  0  0  0
  5  6  2  0  0  0
  6  7  1  0  0  0
  7  8  2  0  0  0
  8  9  1  0  0  0
  9 10  2  0  0  0
 10  1  1  0  0  0
 18 16  1  0  0  0
 24 19  1  0  0  0
 10  5  1  0  0  0
 14 15  1  0  0  0
M  END
> <minimizedAffinity>
9.48219

> <CNNscore>
0.5943078399

> <CNNaffinity>
5.8617949486

> <CNN_VS>
3.4837107658

> <CNNaffinity_variance>
0.2969078124

$$$$
[H]c1c([H])c([H])c(C2([H])C([H])([H])[C@]2([H])N([H])C([H])([H])c2c([H])c([H])c(OC([H])([H])[H])c3c([H])c([H])c([H])c([H])c23)c([H])c1[H]


 24 27  0  0  0  0  0  0  0  0999 V2000
   25.2552    9.4072   55.8417 C   0  0  0  0  0  0  0  0  0  0  0  0
   23.9347    9.0479   55.7365 C   0  0  0  0  0  0  0  0  0  0  0  0
   23.5172    7.9959   54.9332 C   0  0  0  0  0  0  0  0  0  0  0  0
   24.4285    7.2664   54.2032 C   0  0  0  0  0  0  0  0  0  0  0  0
   25.7740    7.6253   54.3045 C   0  0  0  0  0  0  0  0  0  0  0  0
   26.6792    6.8879   53.5693 C   0  0  0  0  0  0  0  0  0  0  0  0
   28.0102    7.2566   53.6809 C   0  0  0  0  0  0  0  0  0  0  0  0
   28.4250    8.2964   54.4748 C   0  0  0  0  0  0  0  0  0  0  0  0
   27.5095    9.0241   55.2035 C   0  0  0  0  0  0  0  0  0  0  0  0
   26.1615    8.6698   55.1062 C   0  0  0  0  0  0  0  0  0  0  0  0
   26.9449   10.4372   57.2690 C   0  0  0  0  0  0  0  0  0  0  0  0
   25.6683   10.4690   56.6539 O   0  0  0  0  0  0  0  0  0  0  0  0
   24.0188    6.1273   53.3387 C   0  0  0  0  0  0  0  0  0  0  0  0
   22.6036    6.1759   53.1410 N   0  0  0  0  0  0  0  0  0  0  0  0
   22.0579    5.9451   54.0084 H   0  0  0  0  0  0  0  0  0  0  0  0
   22.1385    7.3874   52.5227 C   0  0  0  0  0  0  0  0  0  0  0  0
   20.6401    7.3578   52.1996 C   0  0  0  0  0  0  0  0  0  0  0  0
   21.2069    8.3259   53.1692 C   0  0  0  0  0  0  0  0  0  0  0  0
   21.3148    9.7531   52.7849 C   0  0  0  0  0  0  0  0  0  0  0  0
   21.4973   10.7769   53.6854 C   0  0  0  0  0  0  0  0  0  0  0  0
   21.5939   12.0868   53.3056 C   0  0  0  0  0  0  0  0  0  0  0  0
   21.5097   12.4264   51.9847 C   0  0  0  0  0  0  0  0  0  0  0  0
   21.3269   11.4232   51.0574 C   0  0  0  0  0  0  0  0  0  0  0  0
   21.2311   10.1026   51.4580 C   0  0  0  0  0  0  0  0  0  0  0  0
 11 12  1  0  0  0
 12  1  1  0  0  0
  1  2  2  0  0  0
  2  3  1  0  0  0
  3  4  2  0  0  0
  4 13  1  0  0  0
 13 14  1  0  0  0
 14 16  1  0  0  0
 16 17  1  0  0  0
 17 18  1  0  0  0
 18 19  1  0  0  0
 19 20  2  0  0  0
 20 21  1  0  0  0
 21 22  2  0  0  0
 22 23  1  0  0  0
 23 24  2  0  0  0
  4  5  1  0  0  0
  5  6  2  0  0  0
  6  7  1  0  0  0
  7  8  2  0  0  0
  8  9  1  0  0  0
  9 10  2  0  0  0
 10  1  1  0  0  0
 18 16  1  0  0  0
 24 19  1  0  0  0
 10  5  1  0  0  0
 14 15  1  0  0  0
M  END
> <minimizedAffinity>
11.86918

> <CNNscore>
0.5623105168

> <CNNaffinity>
5.5102906227

> <CNN_VS>
3.0984942913

> <CNNaffinity_variance>
0.1814072579

$$$$
[H]c1c([H])c([H])c(C2([H])C([H])([H])[C@]2([H])N([H])C([H])([H])c2c([H])c([H])c(OC([H])([H])[H])c3c([H])c([H])c([H])c([H])c23)c([H])c1[H]


 24 27  0  0  0  0  0  0  0  0999 V2000
   21.9790    9.9221   54.7980 C   0  0  0  0  0  0  0  0  0  0  0  0
   23.0854   10.0204   55.6044 C   0  0  0  0  0  0  0  0  0  0  0  0
   24.1628    9.1531   55.4890 C   0  0  0  0  0  0  0  0  0  0  0  0
   24.1571    8.1490   54.5470 C   0  0  0  0  0  0  0  0  0  0  0  0
   23.0354    8.0420   53.7226 C   0  0  0  0  0  0  0  0  0  0  0  0
   23.0396    7.0328   52.7818 C   0  0  0  0  0  0  0  0  0  0  0  0
   21.9193    6.9402   51.9716 C   0  0  0  0  0  0  0  0  0  0  0  0
   20.8531    7.7970   52.0840 C   0  0  0  0  0  0  0  0  0  0  0  0
   20.8628    8.8003   53.0284 C   0  0  0  0  0  0  0  0  0  0  0  0
   21.9826    8.9124   53.8565 C   0  0  0  0  0  0  0  0  0  0  0  0
   20.1940   10.8945   56.1478 C   0  0  0  0  0  0  0  0  0  0  0  0
   20.8967   10.8004   54.9203 O   0  0  0  0  0  0  0  0  0  0  0  0
   25.2972    7.2067   54.3888 C   0  0  0  0  0  0  0  0  0  0  0  0
   26.4541    7.9380   53.9751 N   0  0  0  0  0  0  0  0  0  0  0  0
   26.2211    8.7984   53.4194 H   0  0  0  0  0  0  0  0  0  0  0  0
   27.3802    8.2215   55.0373 C   0  0  0  0  0  0  0  0  0  0  0  0
   28.6033    9.0183   54.5686 C   0  0  0  0  0  0  0  0  0  0  0  0
   27.6418    9.5764   55.5497 C   0  0  0  0  0  0  0  0  0  0  0  0
   28.0459    9.6920   56.9708 C   0  0  0  0  0  0  0  0  0  0  0  0
   28.1123    8.6255   57.8371 C   0  0  0  0  0  0  0  0  0  0  0  0
   28.4884    8.7581   59.1450 C   0  0  0  0  0  0  0  0  0  0  0  0
   28.8182    9.9871   59.6431 C   0  0  0  0  0  0  0  0  0  0  0  0
   28.7616   11.0760   58.8000 C   0  0  0  0  0  0  0  0  0  0  0  0
   28.3791   10.9250   57.4792 C   0  0  0  0  0  0  0  0  0  0  0  0
 11 12  1  0  0  0
 12  1  1  0  0  0
  1  2  2  0  0  0
  2  3  1  0  0  0
  3  4  2  0  0  0
  4 13  1  0  0  0
 13 14  1  0  0  0
 14 16  1  0  0  0
 16 17  1  0  0  0
 17 18  1  0  0  0
 18 19  1  0  0  0
 19 20  2  0  0  0
 20 21  1  0  0  0
 21 22  2  0  0  0
 22 23  1  0  0  0
 23 24  2  0  0  0
  4  5  1  0  0  0
  5  6  2  0  0  0
  6  7  1  0  0  0
  7  8  2  0  0  0
  8  9  1  0  0  0
  9 10  2  0  0  0
 10  1  1  0  0  0
 18 16  1  0  0  0
 24 19  1  0  0  0
 10  5  1  0  0  0
 14 15  1  0  0  0
M  END
> <minimizedAffinity>
5.82442

> <CNNscore>
0.5549523234

> <CNNaffinity>
5.1616621017

> <CNN_VS>
2.8644764423

> <CNNaffinity_variance>
0.2620084286

$$$$
[H]c1c([H])c([H])c(C2([H])C([H])([H])[C@]2([H])N([H])C([H])([H])c2c([H])c([H])c(OC([H])([H])[H])c3c([H])c([H])c([H])c([H])c23)c([H])c1[H]


 24 27  0  0  0  0  0  0  0  0999 V2000
   25.4960    8.1492   54.6825 C   0  0  0  0  0  0  0  0  0  0  0  0
   25.4873    7.0323   53.8847 C   0  0  0  0  0  0  0  0  0  0  0  0
   24.3216    6.5426   53.3123 C   0  0  0  0  0  0  0  0  0  0  0  0
   23.1159    7.1707   53.5296 C   0  0  0  0  0  0  0  0  0  0  0  0
   23.1158    8.3077   54.3400 C   0  0  0  0  0  0  0  0  0  0  0  0
   21.9027    8.9300   54.5514 C   0  0  0  0  0  0  0  0  0  0  0  0
   21.9197   10.0568   55.3577 C   0  0  0  0  0  0  0  0  0  0  0  0
   23.0713   10.5427   55.9244 C   0  0  0  0  0  0  0  0  0  0  0  0
   24.2758    9.9107   55.7045 C   0  0  0  0  0  0  0  0  0  0  0  0
   24.2823    8.7723   54.8944 C   0  0  0  0  0  0  0  0  0  0  0  0
   27.8124    8.8778   54.4446 C   0  0  0  0  0  0  0  0  0  0  0  0
   26.6753    8.6369   55.2560 O   0  0  0  0  0  0  0  0  0  0  0  0
   21.8483    6.6796   52.9258 C   0  0  0  0  0  0  0  0  0  0  0  0
   21.6076    5.3414   53.3679 N   0  0  0  0  0  0  0  0  0  0  0  0
   21.8136    5.2010   54.3882 H   0  0  0  0  0  0  0  0  0  0  0  0
   20.3144    4.8277   53.0074 C   0  0  0  0  0  0  0  0  0  0  0  0
   20.3910    3.5322   52.1910 C   0  0  0  0  0  0  0  0  0  0  0  0
   19.7627    3.5686   53.5336 C   0  0  0  0  0  0  0  0  0  0  0  0
   18.2879    3.4739   53.6431 C   0  0  0  0  0  0  0  0  0  0  0  0
   17.5408    2.4687   53.0740 C   0  0  0  0  0  0  0  0  0  0  0  0
   16.1799    2.4033   53.1894 C   0  0  0  0  0  0  0  0  0  0  0  0
   15.5041    3.3604   53.8924 C   0  0  0  0  0  0  0  0  0  0  0  0
   16.2242    4.3811   54.4748 C   0  0  0  0  0  0  0  0  0  0  0  0
   17.6008    4.4329   54.3488 C   0  0  0  0  0  0  0  0  0  0  0  0
 11 12  1  0  0  0
 12  1  1  0  0  0
  1  2  2  0  0  0
  2  3  1  0  0  0
  3  4  2  0  0  0
  4 13  1  0  0  0
 13 14  1  0  0  0
 14 16  1  0  0  0
 16 17  1  0  0  0
 17 18  1  0  0  0
 18 19  1  0  0  0
 19 20  2  0  0  0
 20 21  1  0  0  0
 21 22  2  0  0  0
 22 23  1  0  0  0
 23 24  2  0  0  0
  4  5  1  0  0  0
  5  6  2  0  0  0
  6  7  1  0  0  0
  7  8  2  0  0  0
  8  9  1  0  0  0
  9 10  2  0  0  0
 10  1  1  0  0  0
 18 16  1  0  0  0
 24 19  1  0  0  0
 10  5  1  0  0  0
 14 15  1  0  0  0
M  END
> <minimizedAffinity>
18.15356

> <CNNscore>
0.5460570455

> <CNNaffinity>
5.6233634949

> <CNN_VS>
3.0706772804

> <CNNaffinity_variance>
0.0863243788

$$$$
[H]c1c([H])c([H])c(C2([H])C([H])([H])[C@]2([H])N([H])C([H])([H])c2c([H])c([H])c(OC([H])([H])[H])c3c([H])c([H])c([H])c([H])c23)c([H])c1[H]


 24 27  0  0  0  0  0  0  0  0999 V2000
   20.6360    6.3145   53.6058 C   0  0  0  0  0  0  0  0  0  0  0  0
   20.8694    6.1949   54.9531 C   0  0  0  0  0  0  0  0  0  0  0  0
   21.2761    7.2703   55.7305 C   0  0  0  0  0  0  0  0  0  0  0  0
   21.4625    8.5125   55.1669 C   0  0  0  0  0  0  0  0  0  0  0  0
   21.2272    8.6429   53.7968 C   0  0  0  0  0  0  0  0  0  0  0  0
   21.4164    9.8917   53.2416 C   0  0  0  0  0  0  0  0  0  0  0  0
   21.1788   10.0044   51.8812 C   0  0  0  0  0  0  0  0  0  0  0  0
   20.7763    8.9423   51.1108 C   0  0  0  0  0  0  0  0  0  0  0  0
   20.5913    7.7007   51.6790 C   0  0  0  0  0  0  0  0  0  0  0  0
   20.8253    7.5639   53.0497 C   0  0  0  0  0  0  0  0  0  0  0  0
   19.5494    4.1367   53.4334 C   0  0  0  0  0  0  0  0  0  0  0  0
   20.2260    5.2256   52.8287 O   0  0  0  0  0  0  0  0  0  0  0  0
   21.8893    9.6894   55.9702 C   0  0  0  0  0  0  0  0  0  0  0  0
   23.0751   10.2431   55.3946 N   0  0  0  0  0  0  0  0  0  0  0  0
   23.2540   11.2343   55.6925 H   0  0  0  0  0  0  0  0  0  0  0  0
   24.2426    9.4189   55.5489 C   0  0  0  0  0  0  0  0  0  0  0  0
   24.1183    8.0655   54.8392 C   0  0  0  0  0  0  0  0  0  0  0  0
   25.1403    9.0622   54.4382 C   0  0  0  0  0  0  0  0  0  0  0  0
   26.5619    8.8139   54.7751 C   0  0  0  0  0  0  0  0  0  0  0  0
   27.1450    9.1927   55.9621 C   0  0  0  0  0  0  0  0  0  0  0  0
   28.4599    8.9519   56.2496 C   0  0  0  0  0  0  0  0  0  0  0  0
   29.2545    8.3105   55.3417 C   0  0  0  0  0  0  0  0  0  0  0  0
   28.6998    7.9179   54.1426 C   0  0  0  0  0  0  0  0  0  0  0  0
   27.3677    8.1691   53.8671 C   0  0  0  0  0  0  0  0  0  0  0  0
 11 12  1  0  0  0
 12  1  1  0  0  0
  1  2  2  0  0  0
  2  3  1  0  0  0
  3  4  2  0  0  0
  4 13  1  0  0  0
 13 14  1  0  0  0
 14 16  1  0  0  0
 16 17  1  0  0  0
 17 18  1  0  0  0
 18 19  1  0  0  0
 19 20  2  0  0  0
 20 21  1  0  0  0
 21 22  2  0  0  0
 22 23  1  0  0  0
 23 24  2  0  0  0
  4  5  1  0  0  0
  5  6  2  0  0  0
  6  7  1  0  0  0
  7  8  2  0  0  0
  8  9  1  0  0  0
  9 10  2  0  0  0
 10  1  1  0  0  0
 18 16  1  0  0  0
 24 19  1  0  0  0
 10  5  1  0  0  0
 14 15  1  0  0  0
M  END
> <minimizedAffinity>
10.03456

> <CNNscore>
0.5244880319

> <CNNaffinity>
5.5844469070

> <CNN_VS>
2.9289755821

> <CNNaffinity_variance>
0.0506730266

$$$$
[H]c1c([H])c([H])c(C2([H])C([H])([H])[C@]2([H])N([H])C([H])([H])c2c([H])c([H])c(OC([H])([H])[H])c3c([H])c([H])c([H])c([H])c23)c([H])c1[H]


 24 27  0  0  0  0  0  0  0  0999 V2000
   20.3265    7.3391   53.7058 C   0  0  0  0  0  0  0  0  0  0  0  0
   19.8587    8.4860   54.2971 C   0  0  0  0  0  0  0  0  0  0  0  0
   20.6853    9.5676   54.5675 C   0  0  0  0  0  0  0  0  0  0  0  0
   22.0235    9.5251   54.2469 C   0  0  0  0  0  0  0  0  0  0  0  0
   22.5076    8.3620   53.6450 C   0  0  0  0  0  0  0  0  0  0  0  0
   23.8498    8.3293   53.3273 C   0  0  0  0  0  0  0  0  0  0  0  0
   24.3144    7.1683   52.7306 C   0  0  0  0  0  0  0  0  0  0  0  0
   23.4986    6.0978   52.4622 C   0  0  0  0  0  0  0  0  0  0  0  0
   22.1599    6.1446   52.7851 C   0  0  0  0  0  0  0  0  0  0  0  0
   21.6695    7.3058   53.3877 C   0  0  0  0  0  0  0  0  0  0  0  0
   20.0296    4.9491   53.3141 C   0  0  0  0  0  0  0  0  0  0  0  0
   19.4868    6.2529   53.4362 O   0  0  0  0  0  0  0  0  0  0  0  0
   22.9374   10.6680   54.5138 C   0  0  0  0  0  0  0  0  0  0  0  0
   23.3498   10.6270   55.8821 N   0  0  0  0  0  0  0  0  0  0  0  0
   22.6482   10.1621   56.5105 H   0  0  0  0  0  0  0  0  0  0  0  0
   24.6744   10.1054   56.0806 C   0  0  0  0  0  0  0  0  0  0  0  0
   24.6949    8.8320   56.9343 C   0  0  0  0  0  0  0  0  0  0  0  0
   25.1384    8.8261   55.5194 C   0  0  0  0  0  0  0  0  0  0  0  0
   26.5844    8.7090   55.2167 C   0  0  0  0  0  0  0  0  0  0  0  0
   27.1130    7.7777   54.3533 C   0  0  0  0  0  0  0  0  0  0  0  0
   28.4519    7.6897   54.0903 C   0  0  0  0  0  0  0  0  0  0  0  0
   29.3276    8.5476   54.6939 C   0  0  0  0  0  0  0  0  0  0  0  0
   28.8291    9.4926   55.5646 C   0  0  0  0  0  0  0  0  0  0  0  0
   27.4716    9.5685   55.8199 C   0  0  0  0  0  0  0  0  0  0  0  0
 11 12  1  0  0  0
 12  1  1  0  0  0
  1  2  2  0  0  0
  2  3  1  0  0  0
  3  4  2  0  0  0
  4 13  1  0  0  0
 13 14  1  0  0  0
 14 16  1  0  0  0
 16 17  1  0  0  0
 17 18  1  0  0  0
 18 19  1  0  0  0
 19 20  2  0  0  0
 20 21  1  0  0  0
 21 22  2  0  0  0
 22 23  1  0  0  0
 23 24  2  0  0  0
  4  5  1  0  0  0
  5  6  2  0  0  0
  6  7  1  0  0  0
  7  8  2  0  0  0
  8  9  1  0  0  0
  9 10  2  0  0  0
 10  1  1  0  0  0
 18 16  1  0  0  0
 24 19  1  0  0  0
 10  5  1  0  0  0
 14 15  1  0  0  0
M  END
> <minimizedAffinity>
19.40955

> <CNNscore>
0.5191469193

> <CNNaffinity>
5.6885271072

> <CNN_VS>
2.9531812668

> <CNNaffinity_variance>
0.3015731573

$$$$
[H]c1c([H])c([H])c(C2([H])C([H])([H])[C@]2([H])N([H])C([H])([H])c2c([H])c([H])c(OC([H])([H])[H])c3c([H])c([H])c([H])c([H])c23)c([H])c1[H]


 24 27  0  0  0  0  0  0  0  0999 V2000
   27.8959    9.4536   56.7047 C   0  0  0  0  0  0  0  0  0  0  0  0
   28.8622    8.6634   56.1338 C   0  0  0  0  0  0  0  0  0  0  0  0
   28.6163    7.8965   55.0034 C   0  0  0  0  0  0  0  0  0  0  0  0
   27.3749    7.9027   54.4080 C   0  0  0  0  0  0  0  0  0  0  0  0
   26.3862    8.7039   54.9824 C   0  0  0  0  0  0  0  0  0  0  0  0
   25.1458    8.7034   54.3782 C   0  0  0  0  0  0  0  0  0  0  0  0
   24.1759    9.5035   54.9603 C   0  0  0  0  0  0  0  0  0  0  0  0
   24.4171   10.2627   56.0779 C   0  0  0  0  0  0  0  0  0  0  0  0
   25.6609   10.2533   56.6707 C   0  0  0  0  0  0  0  0  0  0  0  0
   26.6545    9.4534   56.1006 C   0  0  0  0  0  0  0  0  0  0  0  0
   28.7200    9.6225   58.9950 C   0  0  0  0  0  0  0  0  0  0  0  0
   28.1515   10.2240   57.8443 O   0  0  0  0  0  0  0  0  0  0  0  0
   27.0776    7.1006   53.1911 C   0  0  0  0  0  0  0  0  0  0  0  0
   26.0419    6.1619   53.4915 N   0  0  0  0  0  0  0  0  0  0  0  0
   26.1614    5.7018   54.4282 H   0  0  0  0  0  0  0  0  0  0  0  0
   24.7121    6.6783   53.3147 C   0  0  0  0  0  0  0  0  0  0  0  0
   23.8292    5.7744   52.4465 C   0  0  0  0  0  0  0  0  0  0  0  0
   23.5091    6.0374   53.8702 C   0  0  0  0  0  0  0  0  0  0  0  0
   22.3674    6.9222   54.2018 C   0  0  0  0  0  0  0  0  0  0  0  0
   21.4025    7.2988   53.2965 C   0  0  0  0  0  0  0  0  0  0  0  0
   20.3580    8.1169   53.6271 C   0  0  0  0  0  0  0  0  0  0  0  0
   20.2389    8.5971   54.9008 C   0  0  0  0  0  0  0  0  0  0  0  0
   21.1900    8.2379   55.8315 C   0  0  0  0  0  0  0  0  0  0  0  0
   22.2407    7.4093   55.4810 C   0  0  0  0  0  0  0  0  0  0  0  0
 11 12  1  0  0  0
 12  1  1  0  0  0
  1  2  2  0  0  0
  2  3  1  0  0  0
  3  4  2  0  0  0
  4 13  1  0  0  0
 13 14  1  0  0  0
 14 16  1  0  0  0
 16 17  1  0  0  0
 17 18  1  0  0  0
 18 19  1  0  0  0
 19 20  2  0  0  0
 20 21  1  0  0  0
 21 22  2  0  0  0
 22 23  1  0  0  0
 23 24  2  0  0  0
  4  5  1  0  0  0
  5  6  2  0  0  0
  6  7  1  0  0  0
  7  8  2  0  0  0
  8  9  1  0  0  0
  9 10  2  0  0  0
 10  1  1  0  0  0
 18 16  1  0  0  0
 24 19  1  0  0  0
 10  5  1  0  0  0
 14 15  1  0  0  0
M  END
> <minimizedAffinity>
19.09320

> <CNNscore>
0.5085186362

> <CNNaffinity>
5.3531355858

> <CNN_VS>
2.7221691608

> <CNNaffinity_variance>
0.4974192679

$$$$
[H]c1nc([H])c([C@@]2([H])N(C([H])([H])[H])C([H])([H])C([H])([H])C2([H])[H])c([H])c1[H]


 12 13  0  0  0  0  0  0  0  0999 V2000
   22.7407    6.5203   55.1426 C   0  0  0  0  0  0  0  0  0  0  0  0
   22.4812    7.1858   53.9426 N   0  0  0  0  0  0  0  0  0  0  0  0
   21.1487    7.3521   53.5207 C   0  0  0  0  0  0  0  0  0  0  0  0
   21.0030    8.8553   53.3984 C   0  0  0  0  0  0  0  0  0  0  0  0
   22.3297    9.4522   53.8830 C   0  0  0  0  0  0  0  0  0  0  0  0
   23.2724    8.2873   53.5724 C   0  0  0  0  0  0  0  0  0  0  0  0
   24.5717    8.4410   54.2003 C   0  0  0  0  0  0  0  0  0  0  0  0
   24.7299    9.2927   55.2723 C   0  0  0  0  0  0  0  0  0  0  0  0
   25.9835    9.4482   55.8822 C   0  0  0  0  0  0  0  0  0  0  0  0
   27.0515    8.7331   55.3881 C   0  0  0  0  0  0  0  0  0  0  0  0
   26.8725    7.9224   54.3581 N   0  0  0  0  0  0  0  0  0  0  0  0
   25.6794    7.7577   53.7577 C   0  0  0  0  0  0  0  0  0  0  0  0
  1  2  1  0  0  0
  2  3  1  0  0  0
  3  4  1  0  0  0
  4  5  1  0  0  0
  5  6  1  0  0  0
  6  7  1  0  0  0
  7  8  2  0  0  0
  8  9  1  0  0  0
  9 10  2  0  0  0
 10 11  1  0  0  0
 11 12  2  0  0  0
  6  2  1  0  0  0
 12  7  1  0  0  0
M  END
> <minimizedAffinity>
-0.62256

> <CNNscore>
0.5900714397

> <CNNaffinity>
4.1058440208

> <CNN_VS>
2.4227411747

> <CNNaffinity_variance>
0.7990726233

$$$$
[H]c1nc([H])c([C@@]2([H])N(C([H])([H])[H])C([H])([H])C([H])([H])C2([H])[H])c([H])c1[H]


 12 13  0  0  0  0  0  0  0  0999 V2000
   21.5941    7.5873   55.1541 C   0  0  0  0  0  0  0  0  0  0  0  0
   21.6913    7.3358   53.7838 N   0  0  0  0  0  0  0  0  0  0  0  0
   20.5272    7.3643   52.9933 C   0  0  0  0  0  0  0  0  0  0  0  0
   20.8321    8.4253   51.9554 C   0  0  0  0  0  0  0  0  0  0  0  0
   22.1998    9.0077   52.3315 C   0  0  0  0  0  0  0  0  0  0  0  0
   22.8041    7.8092   53.0666 C   0  0  0  0  0  0  0  0  0  0  0  0
   24.0012    8.1582   53.8089 C   0  0  0  0  0  0  0  0  0  0  0  0
   25.2431    7.7873   53.3402 C   0  0  0  0  0  0  0  0  0  0  0  0
   26.4043    8.1188   54.0541 C   0  0  0  0  0  0  0  0  0  0  0  0
   26.2776    8.8217   55.2314 C   0  0  0  0  0  0  0  0  0  0  0  0
   25.0738    9.1654   55.6588 N   0  0  0  0  0  0  0  0  0  0  0  0
   23.9468    8.8582   54.9907 C   0  0  0  0  0  0  0  0  0  0  0  0
  1  2  1  0  0  0
  2  3  1  0  0  0
  3  4  1  0  0  0
  4  5  1  0  0  0
  5  6  1  0  0  0
  6  7  1  0  0  0
  7  8  2  0  0  0
  8  9  1  0  0  0
  9 10  2  0  0  0
 10 11  1  0  0  0
 11 12  2  0  0  0
  6  2  1  0  0  0
 12  7  1  0  0  0
M  END
> <minimizedAffinity>
-2.78710

> <CNNscore>
0.5494304895

> <CNNaffinity>
4.4183902740

> <CNN_VS>
2.4275982380

> <CNNaffinity_variance>
0.4540643096

$$$$
[H]c1nc([H])c([C@@]2([H])N(C([H])([H])[H])C([H])([H])C([H])([H])C2([H])[H])c([H])c1[H]


 12 13  0  0  0  0  0  0  0  0999 V2000
   22.5155    9.9781   55.3412 C   0  0  0  0  0  0  0  0  0  0  0  0
   22.1209    8.7138   54.8983 N   0  0  0  0  0  0  0  0  0  0  0  0
   20.8132    8.5311   54.4109 C   0  0  0  0  0  0  0  0  0  0  0  0
   21.0309    8.0197   53.0014 C   0  0  0  0  0  0  0  0  0  0  0  0
   22.5463    8.0466   52.7683 C   0  0  0  0  0  0  0  0  0  0  0  0
   23.0378    7.8999   54.2102 C   0  0  0  0  0  0  0  0  0  0  0  0
   24.4526    8.1921   54.3477 C   0  0  0  0  0  0  0  0  0  0  0  0
   25.3091    7.9994   53.2852 C   0  0  0  0  0  0  0  0  0  0  0  0
   26.6784    8.2770   53.4120 C   0  0  0  0  0  0  0  0  0  0  0  0
   27.1482    8.7454   54.6186 C   0  0  0  0  0  0  0  0  0  0  0  0
   26.3047    8.9215   55.6224 N   0  0  0  0  0  0  0  0  0  0  0  0
   24.9880    8.6619   55.5234 C   0  0  0  0  0  0  0  0  0  0  0  0
  1  2  1  0  0  0
  2  3  1  0  0  0
  3  4  1  0  0  0
  4  5  1  0  0  0
  5  6  1  0  0  0
  6  7  1  0  0  0
  7  8  2  0  0  0
  8  9  1  0  0  0
  9 10  2  0  0  0
 10 11  1  0  0  0
 11 12  2  0  0  0
  6  2  1  0  0  0
 12  7  1  0  0  0
M  END
> <minimizedAffinity>
-3.10491

> <CNNscore>
0.5380604267

> <CNNaffinity>
4.1545438766

> <CNN_VS>
2.2353956699

> <CNNaffinity_variance>
0.7360907793

$$$$
[H]c1nc([H])c([C@@]2([H])N(C([H])([H])[H])C([H])([H])C([H])([H])C2([H])[H])c([H])c1[H]


 12 13  0  0  0  0  0  0  0  0999 V2000
   23.3882    5.9788   54.5007 C   0  0  0  0  0  0  0  0  0  0  0  0
   22.8934    6.9111   53.5862 N   0  0  0  0  0  0  0  0  0  0  0  0
   21.5139    6.9389   53.3080 C   0  0  0  0  0  0  0  0  0  0  0  0
   21.1095    8.3528   53.6725 C   0  0  0  0  0  0  0  0  0  0  0  0
   22.3640    9.0186   54.2505 C   0  0  0  0  0  0  0  0  0  0  0  0
   23.4468    8.2027   53.5406 C   0  0  0  0  0  0  0  0  0  0  0  0
   24.7633    8.4060   54.1164 C   0  0  0  0  0  0  0  0  0  0  0  0
   25.8944    8.0940   53.3934 C   0  0  0  0  0  0  0  0  0  0  0  0
   27.1701    8.2853   53.9448 C   0  0  0  0  0  0  0  0  0  0  0  0
   27.2684    8.7906   55.2219 C   0  0  0  0  0  0  0  0  0  0  0  0
   26.1668    9.0818   55.8942 N   0  0  0  0  0  0  0  0  0  0  0  0
   24.9334    8.9066   55.3853 C   0  0  0  0  0  0  0  0  0  0  0  0
  1  2  1  0  0  0
  2  3  1  0  0  0
  3  4  1  0  0  0
  4  5  1  0  0  0
  5  6  1  0  0  0
  6  7  1  0  0  0
  7  8  2  0  0  0
  8  9  1  0  0  0
  9 10  2  0  0  0
 10 11  1  0  0  0
 11 12  2  0  0  0
  6  2  1  0  0  0
 12  7  1  0  0  0
M  END
> <minimizedAffinity>
-3.66630

> <CNNscore>
0.5175906420

> <CNNaffinity>
4.2431840897

> <CNN_VS>
2.1962323189

> <CNNaffinity_variance>
0.6185259223

$$$$
[H]c1nc([H])c([C@@]2([H])N(C([H])([H])[H])C([H])([H])C([H])([H])C2([H])[H])c([H])c1[H]


 12 13  0  0  0  0  0  0  0  0999 V2000
   24.5850    9.1643   55.8560 C   0  0  0  0  0  0  0  0  0  0  0  0
   25.4300    9.0387   54.7512 N   0  0  0  0  0  0  0  0  0  0  0  0
   26.8183    8.9270   54.9541 C   0  0  0  0  0  0  0  0  0  0  0  0
   27.1652    7.6066   54.2970 C   0  0  0  0  0  0  0  0  0  0  0  0
   25.8362    7.0027   53.8277 C   0  0  0  0  0  0  0  0  0  0  0  0
   25.0164    8.2815   53.6412 C   0  0  0  0  0  0  0  0  0  0  0  0
   23.5988    8.0148   53.4820 C   0  0  0  0  0  0  0  0  0  0  0  0
   23.0865    6.7719   53.7854 C   0  0  0  0  0  0  0  0  0  0  0  0
   21.7176    6.5063   53.6312 C   0  0  0  0  0  0  0  0  0  0  0  0
   20.8976    7.5123   53.1709 C   0  0  0  0  0  0  0  0  0  0  0  0
   21.4150    8.6962   52.8870 N   0  0  0  0  0  0  0  0  0  0  0  0
   22.7244    8.9732   53.0273 C   0  0  0  0  0  0  0  0  0  0  0  0
  1  2  1  0  0  0
  2  3  1  0  0  0
  3  4  1  0  0  0
  4  5  1  0  0  0
  5  6  1  0  0  0
  6  7  1  0  0  0
  7  8  2  0  0  0
  8  9  1  0  0  0
  9 10  2  0  0  0
 10 11  1  0  0  0
 11 12  2  0  0  0
  6  2  1  0  0  0
 12  7  1  0  0  0
M  END
> <minimizedAffinity>
1.51309

> <CNNscore>
0.5149053931

> <CNNaffinity>
4.2091860771

> <CNN_VS>
2.1673326492

> <CNNaffinity_variance>
0.3365456462

$$$$
[H]c1nc([H])c([C@@]2([H])N(C([H])([H])[H])C([H])([H])C([H])([H])C2([H])[H])c([H])c1[H]


 12 13  0  0  0  0  0  0  0  0999 V2000
   23.7129    8.3681   52.4142 C   0  0  0  0  0  0  0  0  0  0  0  0
   22.5027    8.9551   52.7900 N   0  0  0  0  0  0  0  0  0  0  0  0
   21.7596    9.6745   51.8354 C   0  0  0  0  0  0  0  0  0  0  0  0
   20.4255    8.9565   51.8136 C   0  0  0  0  0  0  0  0  0  0  0  0
   20.5729    7.7561   52.7562 C   0  0  0  0  0  0  0  0  0  0  0  0
   21.6576    8.2891   53.6949 C   0  0  0  0  0  0  0  0  0  0  0  0
   22.2297    7.2496   54.5305 C   0  0  0  0  0  0  0  0  0  0  0  0
   21.6150    6.8882   55.7098 C   0  0  0  0  0  0  0  0  0  0  0  0
   22.1639    5.8862   56.5238 C   0  0  0  0  0  0  0  0  0  0  0  0
   23.3285    5.2721   56.1203 C   0  0  0  0  0  0  0  0  0  0  0  0
   23.8982    5.6379   54.9838 N   0  0  0  0  0  0  0  0  0  0  0  0
   23.3895    6.5961   54.1876 C   0  0  0  0  0  0  0  0  0  0  0  0
  1  2  1  0  0  0
  2  3  1  0  0  0
  3  4  1  0  0  0
  4  5  1  0  0  0
  5  6  1  0  0  0
  6  7  1  0  0  0
  7  8  2  0  0  0
  8  9  1  0  0  0
  9 10  2  0  0  0
 10 11  1  0  0  0
 11 12  2  0  0  0
  6  2  1  0  0  0
 12  7  1  0  0  0
M  END
> <minimizedAffinity>
5.31291

> <CNNscore>
0.4593097270

> <CNNaffinity>
3.9661746025

> <CNN_VS>
1.8217025995

> <CNNaffinity_variance>
0.3521487117

$$$$
[H]c1nc([H])c([C@@]2([H])N(C([H])([H])[H])C([H])([H])C([H])([H])C2([H])[H])c([H])c1[H]


 12 13  0  0  0  0  0  0  0  0999 V2000
   24.3437    5.7844   54.2684 C   0  0  0  0  0  0  0  0  0  0  0  0
   24.8752    7.0159   54.6572 N   0  0  0  0  0  0  0  0  0  0  0  0
   26.2722    7.1837   54.6926 C   0  0  0  0  0  0  0  0  0  0  0  0
   26.5120    8.3415   53.7452 C   0  0  0  0  0  0  0  0  0  0  0  0
   25.1444    8.6915   53.1463 C   0  0  0  0  0  0  0  0  0  0  0  0
   24.2304    8.2047   54.2731 C   0  0  0  0  0  0  0  0  0  0  0  0
   22.8390    8.1306   53.8675 C   0  0  0  0  0  0  0  0  0  0  0  0
   21.8340    8.3010   54.7951 C   0  0  0  0  0  0  0  0  0  0  0  0
   20.4869    8.2278   54.4105 C   0  0  0  0  0  0  0  0  0  0  0  0
   20.1900    7.9825   53.0884 C   0  0  0  0  0  0  0  0  0  0  0  0
   21.1737    7.8227   52.2184 N   0  0  0  0  0  0  0  0  0  0  0  0
   22.4724    7.8888   52.5648 C   0  0  0  0  0  0  0  0  0  0  0  0
  1  2  1  0  0  0
  2  3  1  0  0  0
  3  4  1  0  0  0
  4  5  1  0  0  0
  5  6  1  0  0  0
  6  7  1  0  0  0
  7  8  2  0  0  0
  8  9  1  0  0  0
  9 10  2  0  0  0
 10 11  1  0  0  0
 11 12  2  0  0  0
  6  2  1  0  0  0
 12  7  1  0  0  0
M  END
> <minimizedAffinity>
-0.12694

> <CNNscore>
0.4359687865

> <CNNaffinity>
4.4954648018

> <CNN_VS>
1.9598823786

> <CNNaffinity_variance>
0.3877546787

$$$$
[H]c1nc([H])c([C@@]2([H])N(C([H])([H])[H])C([H])([H])C([H])([H])C2([H])[H])c([H])c1[H]


 12 13  0  0  0  0  0  0  0  0999 V2000
   23.0057    9.0889   55.6396 C   0  0  0  0  0  0  0  0  0  0  0  0
   24.0709    9.0176   54.7392 N   0  0  0  0  0  0  0  0  0  0  0  0
   25.3862    8.9312   55.2327 C   0  0  0  0  0  0  0  0  0  0  0  0
   25.9039    7.6404   54.6313 C   0  0  0  0  0  0  0  0  0  0  0  0
   24.7242    7.0216   53.8719 C   0  0  0  0  0  0  0  0  0  0  0  0
   23.9266    8.2867   53.5470 C   0  0  0  0  0  0  0  0  0  0  0  0
   22.5842    7.9930   53.0801 C   0  0  0  0  0  0  0  0  0  0  0  0
   21.9513    8.8457   52.2016 C   0  0  0  0  0  0  0  0  0  0  0  0
   20.6527    8.5696   51.7484 C   0  0  0  0  0  0  0  0  0  0  0  0
   20.0244    7.4301   52.1992 C   0  0  0  0  0  0  0  0  0  0  0  0
   20.6545    6.6286   53.0421 N   0  0  0  0  0  0  0  0  0  0  0  0
   21.8997    6.8736   53.4898 C   0  0  0  0  0  0  0  0  0  0  0  0
  1  2  1  0  0  0
  2  3  1  0  0  0
  3  4  1  0  0  0
  4  5  1  0  0  0
  5  6  1  0  0  0
  6  7  1  0  0  0
  7  8  2  0  0  0
  8  9  1  0  0  0
  9 10  2  0  0  0
 10 11  1  0  0  0
 11 12  2  0  0  0
  6  2  1  0  0  0
 12  7  1  0  0  0
M  END
> <minimizedAffinity>
-1.05016

> <CNNscore>
0.4284276068

> <CNNaffinity>
4.2464556694

> <CNN_VS>
1.8192988634

> <CNNaffinity_variance>
0.4036664367

$$$$
[H]c1nc([H])c([C@@]2([H])N(C([H])([H])[H])C([H])([H])C([H])([H])C2([H])[H])c([H])c1[H]


 12 13  0  0  0  0  0  0  0  0999 V2000
   22.9809    9.1670   55.5485 C   0  0  0  0  0  0  0  0  0  0  0  0
   24.0819    9.0748   54.6943 N   0  0  0  0  0  0  0  0  0  0  0  0
   25.3692    8.9222   55.2427 C   0  0  0  0  0  0  0  0  0  0  0  0
   25.8617    7.6268   54.6301 C   0  0  0  0  0  0  0  0  0  0  0  0
   24.6937    7.0761   53.8032 C   0  0  0  0  0  0  0  0  0  0  0  0
   23.9625    8.3805   53.4776 C   0  0  0  0  0  0  0  0  0  0  0  0
   22.6320    8.1539   52.9444 C   0  0  0  0  0  0  0  0  0  0  0  0
   21.9132    7.0392   53.3187 C   0  0  0  0  0  0  0  0  0  0  0  0
   20.6276    6.8124   52.8050 C   0  0  0  0  0  0  0  0  0  0  0  0
   20.0997    7.7256   51.9200 C   0  0  0  0  0  0  0  0  0  0  0  0
   20.8108    8.7872   51.5772 N   0  0  0  0  0  0  0  0  0  0  0  0
   22.0453    9.0248   52.0572 C   0  0  0  0  0  0  0  0  0  0  0  0
  1  2  1  0  0  0
  2  3  1  0  0  0
  3  4  1  0  0  0
  4  5  1  0  0  0
  5  6  1  0  0  0
  6  7  1  0  0  0
  7  8  2  0  0  0
  8  9  1  0  0  0
  9 10  2  0  0  0
 10 11  1  0  0  0
 11 12  2  0  0  0
  6  2  1  0  0  0
 12  7  1  0  0  0
M  END
> <minimizedAffinity>
-0.87648

> <CNNscore>
0.3989705741

> <CNNaffinity>
4.3207221031

> <CNN_VS>
1.7238409519

> <CNNaffinity_variance>
0.2487178743

$$$$
[H]c1nc([H])c(N([H])C(=O)c2nc(-c3c(F)c([H])c([H])c([H])c3F)c([H])c([H])c2F)c([C@@]2([H])C([H])([H])[C@@]([H])(N([H])[H])C([H])([H])[C@@]([H])(C([H])([H])[H])C2([H])[H])c1[H]


 35 38  0  0  0  0  0  0  0  0999 V2000
   26.9557    8.8437   52.4862 N   0  0  0  0  0  0  0  0  0  0  0  0
   27.8767    9.6353   51.7927 C   0  0  0  0  0  0  0  0  0  0  0  0
   28.8165   10.2335   52.4594 O   0  0  0  0  0  0  0  0  0  0  0  0
   26.2112    8.3598   51.9343 H   0  0  0  0  0  0  0  0  0  0  0  0
   27.9495    9.8915   50.3636 C   0  0  0  0  0  0  0  0  0  0  0  0
   27.4593   11.0462   49.8773 N   0  0  0  0  0  0  0  0  0  0  0  0
   27.4458   11.4413   48.6027 C   0  0  0  0  0  0  0  0  0  0  0  0
   27.9994   10.5459   47.6756 C   0  0  0  0  0  0  0  0  0  0  0  0
   28.5198    9.3402   48.0980 C   0  0  0  0  0  0  0  0  0  0  0  0
   28.4831    9.0336   49.4549 C   0  0  0  0  0  0  0  0  0  0  0  0
   29.0138    7.8102   49.8352 F   0  0  0  0  0  0  0  0  0  0  0  0
   26.9542   12.7201   48.1367 C   0  0  0  0  0  0  0  0  0  0  0  0
   27.5778   13.4134   47.1096 C   0  0  0  0  0  0  0  0  0  0  0  0
   28.7117   12.9180   46.5297 F   0  0  0  0  0  0  0  0  0  0  0  0
   27.1168   14.6155   46.6266 C   0  0  0  0  0  0  0  0  0  0  0  0
   25.9959   15.1868   47.1541 C   0  0  0  0  0  0  0  0  0  0  0  0
   25.3442   14.5172   48.1913 C   0  0  0  0  0  0  0  0  0  0  0  0
   25.8310   13.3139   48.6540 C   0  0  0  0  0  0  0  0  0  0  0  0
   25.1932   12.6484   49.6755 F   0  0  0  0  0  0  0  0  0  0  0  0
   25.9450    8.0821   54.4881 C   0  0  0  0  0  0  0  0  0  0  0  0
   26.0893    7.8556   55.8614 C   0  0  0  0  0  0  0  0  0  0  0  0
   27.2270    8.2270   56.5579 C   0  0  0  0  0  0  0  0  0  0  0  0
   28.2369    8.8205   55.9354 N   0  0  0  0  0  0  0  0  0  0  0  0
   28.1248    9.0488   54.6070 C   0  0  0  0  0  0  0  0  0  0  0  0
   27.0378    8.6998   53.8843 C   0  0  0  0  0  0  0  0  0  0  0  0
   21.7959   10.3463   54.5079 C   0  0  0  0  0  0  0  0  0  0  0  0
   22.4984    9.2258   53.6662 C   0  0  0  0  0  0  0  0  0  0  0  0
   21.7188    7.9360   53.9396 C   0  0  0  0  0  0  0  0  0  0  0  0
   22.5230    6.8041   53.4261 C   0  0  0  0  0  0  0  0  0  0  0  0
   21.8351    5.5655   53.4869 N   0  0  0  0  0  0  0  0  0  0  0  0
   23.8684    6.6900   54.1931 C   0  0  0  0  0  0  0  0  0  0  0  0
   24.7130    7.8849   53.7619 C   0  0  0  0  0  0  0  0  0  0  0  0
   23.8404    9.1105   54.2514 C   0  0  0  0  0  0  0  0  0  0  0  0
   22.3851    4.7548   53.0969 H   0  0  0  0  0  0  0  0  0  0  0  0
   20.8499    5.5519   53.1964 H   0  0  0  0  0  0  0  0  0  0  0  0
 26 27  1  0  0  0
 27 28  1  0  0  0
 28 29  1  0  0  0
 29 30  1  0  0  0
 29 31  1  0  0  0
 31 32  1  0  0  0
 32 20  1  0  0  0
 20 21  2  0  0  0
 21 22  1  0  0  0
 22 23  2  0  0  0
 23 24  1  0  0  0
 24 25  2  0  0  0
 25  1  1  0  0  0
  1  2  1  0  0  0
  2  3  2  0  0  0
  2  5  1  0  0  0
  5  6  2  0  0  0
  6  7  1  0  0  0
  7 12  1  0  0  0
 12 13  2  0  0  0
 13 14  1  0  0  0
 13 15  1  0  0  0
 15 16  2  0  0  0
 16 17  1  0  0  0
 17 18  2  0  0  0
 18 19  1  0  0  0
  7  8  2  0  0  0
  8  9  1  0  0  0
  9 10  2  0  0  0
 10 11  1  0  0  0
 32 33  1  0  0  0
 33 27  1  0  0  0
 25 20  1  0  0  0
 10  5  1  0  0  0
 18 12  1  0  0  0
 30 34  1  0  0  0
 30 35  1  0  0  0
  1  4  1  0  0  0
M  END
> <minimizedAffinity>
48.79037

> <CNNscore>
0.5645576715

> <CNNaffinity>
6.5070238113

> <CNN_VS>
3.6735901833

> <CNNaffinity_variance>
0.1490312517

$$$$
[H]c1nc([H])c(N([H])C(=O)c2nc(-c3c(F)c([H])c([H])c([H])c3F)c([H])c([H])c2F)c([C@@]2([H])C([H])([H])[C@@]([H])(N([H])[H])C([H])([H])[C@@]([H])(C([H])([H])[H])C2([H])[H])c1[H]


 35 38  0  0  0  0  0  0  0  0999 V2000
   24.2981    7.1292   52.6614 N   0  0  0  0  0  0  0  0  0  0  0  0
   25.1000    7.8412   53.5591 C   0  0  0  0  0  0  0  0  0  0  0  0
   24.6770    8.0177   54.7738 O   0  0  0  0  0  0  0  0  0  0  0  0
   24.6570    6.9860   51.6901 H   0  0  0  0  0  0  0  0  0  0  0  0
   26.4075    8.4325   53.3266 C   0  0  0  0  0  0  0  0  0  0  0  0
   26.7749    8.7414   52.0697 N   0  0  0  0  0  0  0  0  0  0  0  0
   27.9285    9.2873   51.6796 C   0  0  0  0  0  0  0  0  0  0  0  0
   28.8551    9.5592   52.6971 C   0  0  0  0  0  0  0  0  0  0  0  0
   28.5515    9.2679   54.0108 C   0  0  0  0  0  0  0  0  0  0  0  0
   27.3142    8.7015   54.3024 C   0  0  0  0  0  0  0  0  0  0  0  0
   27.0518    8.4217   55.6350 F   0  0  0  0  0  0  0  0  0  0  0  0
   28.2544    9.6508   50.3174 C   0  0  0  0  0  0  0  0  0  0  0  0
   28.5059    8.6938   49.3450 C   0  0  0  0  0  0  0  0  0  0  0  0
   28.4908    7.3648   49.6626 F   0  0  0  0  0  0  0  0  0  0  0  0
   28.7893    9.0087   48.0368 C   0  0  0  0  0  0  0  0  0  0  0  0
   28.8336   10.3116   47.6347 C   0  0  0  0  0  0  0  0  0  0  0  0
   28.5877   11.3011   48.5882 C   0  0  0  0  0  0  0  0  0  0  0  0
   28.3069   10.9539   49.8919 C   0  0  0  0  0  0  0  0  0  0  0  0
   28.0630   11.9241   50.8365 F   0  0  0  0  0  0  0  0  0  0  0  0
   21.9922    7.5224   53.0322 C   0  0  0  0  0  0  0  0  0  0  0  0
   20.7425    6.9695   53.3334 C   0  0  0  0  0  0  0  0  0  0  0  0
   20.5804    5.6296   53.6431 C   0  0  0  0  0  0  0  0  0  0  0  0
   21.6233    4.8102   53.6648 N   0  0  0  0  0  0  0  0  0  0  0  0
   22.8428    5.3180   53.3745 C   0  0  0  0  0  0  0  0  0  0  0  0
   23.0494    6.6160   53.0612 C   0  0  0  0  0  0  0  0  0  0  0  0
   20.8270   11.2742   55.6605 C   0  0  0  0  0  0  0  0  0  0  0  0
   21.7279   10.9695   54.4143 C   0  0  0  0  0  0  0  0  0  0  0  0
   21.0689   11.6807   53.2285 C   0  0  0  0  0  0  0  0  0  0  0  0
   21.6957   11.1686   51.9889 C   0  0  0  0  0  0  0  0  0  0  0  0
   21.2721   11.8640   50.8279 N   0  0  0  0  0  0  0  0  0  0  0  0
   21.4179    9.6506   51.8164 C   0  0  0  0  0  0  0  0  0  0  0  0
   22.2359    8.9380   52.8888 C   0  0  0  0  0  0  0  0  0  0  0  0
   21.6188    9.5172   54.2256 C   0  0  0  0  0  0  0  0  0  0  0  0
   21.7331   11.5292   49.9406 H   0  0  0  0  0  0  0  0  0  0  0  0
   21.2112   12.8881   50.8804 H   0  0  0  0  0  0  0  0  0  0  0  0
 26 27  1  0  0  0
 27 28  1  0  0  0
 28 29  1  0  0  0
 29 30  1  0  0  0
 29 31  1  0  0  0
 31 32  1  0  0  0
 32 20  1  0  0  0
 20 21  2  0  0  0
 21 22  1  0  0  0
 22 23  2  0  0  0
 23 24  1  0  0  0
 24 25  2  0  0  0
 25  1  1  0  0  0
  1  2  1  0  0  0
  2  3  2  0  0  0
  2  5  1  0  0  0
  5  6  2  0  0  0
  6  7  1  0  0  0
  7 12  1  0  0  0
 12 13  2  0  0  0
 13 14  1  0  0  0
 13 15  1  0  0  0
 15 16  2  0  0  0
 16 17  1  0  0  0
 17 18  2  0  0  0
 18 19  1  0  0  0
  7  8  2  0  0  0
  8  9  1  0  0  0
  9 10  2  0  0  0
 10 11  1  0  0  0
 32 33  1  0  0  0
 33 27  1  0  0  0
 25 20  1  0  0  0
 10  5  1  0  0  0
 18 12  1  0  0  0
 30 34  1  0  0  0
 30 35  1  0  0  0
  1  4  1  0  0  0
M  END
> <minimizedAffinity>
29.37934

> <CNNscore>
0.5134249926

> <CNNaffinity>
6.8838071823

> <CNN_VS>
3.5343186855

> <CNNaffinity_variance>
0.2636557519

$$$$
[H]c1nc([H])c(N([H])C(=O)c2nc(-c3c(F)c([H])c([H])c([H])c3F)c([H])c([H])c2F)c([C@@]2([H])C([H])([H])[C@@]([H])(N([H])[H])C([H])([H])[C@@]([H])(C([H])([H])[H])C2([H])[H])c1[H]


 35 38  0  0  0  0  0  0  0  0999 V2000
   25.7437    8.5305   55.0143 N   0  0  0  0  0  0  0  0  0  0  0  0
   24.7087    8.3736   54.0869 C   0  0  0  0  0  0  0  0  0  0  0  0
   25.0083    8.1033   52.8529 O   0  0  0  0  0  0  0  0  0  0  0  0
   25.4863    8.7372   56.0062 H   0  0  0  0  0  0  0  0  0  0  0  0
   23.2753    8.4608   54.3122 C   0  0  0  0  0  0  0  0  0  0  0  0
   22.4921    7.4213   53.9714 N   0  0  0  0  0  0  0  0  0  0  0  0
   21.1677    7.3323   54.1092 C   0  0  0  0  0  0  0  0  0  0  0  0
   20.5308    8.4518   54.6650 C   0  0  0  0  0  0  0  0  0  0  0  0
   21.2668    9.5576   55.0372 C   0  0  0  0  0  0  0  0  0  0  0  0
   22.6456    9.5384   54.8498 C   0  0  0  0  0  0  0  0  0  0  0  0
   23.3459   10.6717   55.2345 F   0  0  0  0  0  0  0  0  0  0  0  0
   20.3763    6.1675   53.7760 C   0  0  0  0  0  0  0  0  0  0  0  0
   20.9545    4.9216   53.5811 C   0  0  0  0  0  0  0  0  0  0  0  0
   22.3100    4.7682   53.6613 F   0  0  0  0  0  0  0  0  0  0  0  0
   20.2254    3.7921   53.2924 C   0  0  0  0  0  0  0  0  0  0  0  0
   18.8669    3.8564   53.1850 C   0  0  0  0  0  0  0  0  0  0  0  0
   18.2520    5.0956   53.3728 C   0  0  0  0  0  0  0  0  0  0  0  0
   19.0101    6.2098   53.6607 C   0  0  0  0  0  0  0  0  0  0  0  0
   18.4103    7.4339   53.8475 F   0  0  0  0  0  0  0  0  0  0  0  0
   28.0310    8.6600   55.6147 C   0  0  0  0  0  0  0  0  0  0  0  0
   29.3577    8.4306   55.2335 C   0  0  0  0  0  0  0  0  0  0  0  0
   29.6988    7.9934   53.9647 C   0  0  0  0  0  0  0  0  0  0  0  0
   28.7624    7.7732   53.0513 N   0  0  0  0  0  0  0  0  0  0  0  0
   27.4712    7.9843   53.3943 C   0  0  0  0  0  0  0  0  0  0  0  0
   27.0895    8.4048   54.6204 C   0  0  0  0  0  0  0  0  0  0  0  0
   28.0003   13.1566   57.0712 C   0  0  0  0  0  0  0  0  0  0  0  0
   27.4843   11.7696   57.5882 C   0  0  0  0  0  0  0  0  0  0  0  0
   28.3154   11.4432   58.8328 C   0  0  0  0  0  0  0  0  0  0  0  0
   28.0884   10.0191   59.1674 C   0  0  0  0  0  0  0  0  0  0  0  0
   28.6896    9.6373   60.3937 N   0  0  0  0  0  0  0  0  0  0  0  0
   28.5997    9.0961   58.0280 C   0  0  0  0  0  0  0  0  0  0  0  0
   27.6442    9.2900   56.8547 C   0  0  0  0  0  0  0  0  0  0  0  0
   27.8289   10.8248   56.5179 C   0  0  0  0  0  0  0  0  0  0  0  0
   28.5111    8.6325   60.6594 H   0  0  0  0  0  0  0  0  0  0  0  0
   28.5988   10.2796   61.1902 H   0  0  0  0  0  0  0  0  0  0  0  0
 26 27  1  0  0  0
 27 28  1  0  0  0
 28 29  1  0  0  0
 29 30  1  0  0  0
 29 31  1  0  0  0
 31 32  1  0  0  0
 32 20  1  0  0  0
 20 21  2  0  0  0
 21 22  1  0  0  0
 22 23  2  0  0  0
 23 24  1  0  0  0
 24 25  2  0  0  0
 25  1  1  0  0  0
  1  2  1  0  0  0
  2  3  2  0  0  0
  2  5  1  0  0  0
  5  6  2  0  0  0
  6  7  1  0  0  0
  7 12  1  0  0  0
 12 13  2  0  0  0
 13 14  1  0  0  0
 13 15  1  0  0  0
 15 16  2  0  0  0
 16 17  1  0  0  0
 17 18  2  0  0  0
 18 19  1  0  0  0
  7  8  2  0  0  0
  8  9  1  0  0  0
  9 10  2  0  0  0
 10 11  1  0  0  0
 32 33  1  0  0  0
 33 27  1  0  0  0
 25 20  1  0  0  0
 10  5  1  0  0  0
 18 12  1  0  0  0
 30 34  1  0  0  0
 30 35  1  0  0  0
  1  4  1  0  0  0
M  END
> <minimizedAffinity>
33.72073

> <CNNscore>
0.4798223078

> <CNNaffinity>
6.5950737000

> <CNN_VS>
3.1644635201

> <CNNaffinity_variance>
0.3055743873

$$$$
[H]c1nc([H])c(N([H])C(=O)c2nc(-c3c(F)c([H])c([H])c([H])c3F)c([H])c([H])c2F)c([C@@]2([H])C([H])([H])[C@@]([H])(N([H])[H])C([H])([H])[C@@]([H])(C([H])([H])[H])C2([H])[H])c1[H]


 35 38  0  0  0  0  0  0  0  0999 V2000
   25.3557    8.6473   52.7248 N   0  0  0  0  0  0  0  0  0  0  0  0
   24.2364    8.1888   53.4268 C   0  0  0  0  0  0  0  0  0  0  0  0
   24.3984    7.7155   54.6249 O   0  0  0  0  0  0  0  0  0  0  0  0
   25.2079    9.0355   51.7654 H   0  0  0  0  0  0  0  0  0  0  0  0
   22.8475    8.1732   52.9982 C   0  0  0  0  0  0  0  0  0  0  0  0
   22.0919    7.0906   53.2574 N   0  0  0  0  0  0  0  0  0  0  0  0
   20.8084    6.9100   52.9394 C   0  0  0  0  0  0  0  0  0  0  0  0
   20.1901    7.9670   52.2551 C   0  0  0  0  0  0  0  0  0  0  0  0
   20.9008    9.1095   51.9512 C   0  0  0  0  0  0  0  0  0  0  0  0
   22.2359    9.1897   52.3352 C   0  0  0  0  0  0  0  0  0  0  0  0
   22.9134   10.3541   52.0066 F   0  0  0  0  0  0  0  0  0  0  0  0
   20.0239    5.7456   53.2896 C   0  0  0  0  0  0  0  0  0  0  0  0
   18.6594    5.8271   53.5264 C   0  0  0  0  0  0  0  0  0  0  0  0
   18.0191    7.0331   53.4728 F   0  0  0  0  0  0  0  0  0  0  0  0
   17.8836    4.7338   53.8322 C   0  0  0  0  0  0  0  0  0  0  0  0
   18.4429    3.4922   53.9152 C   0  0  0  0  0  0  0  0  0  0  0  0
   19.8147    3.3741   53.6850 C   0  0  0  0  0  0  0  0  0  0  0  0
   20.5658    4.4888   53.3810 C   0  0  0  0  0  0  0  0  0  0  0  0
   21.9181    4.3792   53.1524 F   0  0  0  0  0  0  0  0  0  0  0  0
   27.6481    9.2231   52.5753 C   0  0  0  0  0  0  0  0  0  0  0  0
   28.8943    9.2477   53.2113 C   0  0  0  0  0  0  0  0  0  0  0  0
   29.1013    8.6808   54.4576 C   0  0  0  0  0  0  0  0  0  0  0  0
   28.1070    8.0848   55.1024 N   0  0  0  0  0  0  0  0  0  0  0  0
   26.8909    8.0493   54.5115 C   0  0  0  0  0  0  0  0  0  0  0  0
   26.6395    8.5930   53.3004 C   0  0  0  0  0  0  0  0  0  0  0  0
   29.2440    7.5935   48.4353 C   0  0  0  0  0  0  0  0  0  0  0  0
   28.1859    8.6352   48.9383 C   0  0  0  0  0  0  0  0  0  0  0  0
   28.7128   10.0119   48.5223 C   0  0  0  0  0  0  0  0  0  0  0  0
   27.9212   11.0353   49.2417 C   0  0  0  0  0  0  0  0  0  0  0  0
   28.2173   12.3575   48.8231 N   0  0  0  0  0  0  0  0  0  0  0  0
   28.1297   10.9165   50.7759 C   0  0  0  0  0  0  0  0  0  0  0  0
   27.4310    9.6311   51.2077 C   0  0  0  0  0  0  0  0  0  0  0  0
   28.2271    8.5262   50.4023 C   0  0  0  0  0  0  0  0  0  0  0  0
   27.6394   13.0953   49.3064 H   0  0  0  0  0  0  0  0  0  0  0  0
   28.3149   12.5284   47.8149 H   0  0  0  0  0  0  0  0  0  0  0  0
 26 27  1  0  0  0
 27 28  1  0  0  0
 28 29  1  0  0  0
 29 30  1  0  0  0
 29 31  1  0  0  0
 31 32  1  0  0  0
 32 20  1  0  0  0
 20 21  2  0  0  0
 21 22  1  0  0  0
 22 23  2  0  0  0
 23 24  1  0  0  0
 24 25  2  0  0  0
 25  1  1  0  0  0
  1  2  1  0  0  0
  2  3  2  0  0  0
  2  5  1  0  0  0
  5  6  2  0  0  0
  6  7  1  0  0  0
  7 12  1  0  0  0
 12 13  2  0  0  0
 13 14  1  0  0  0
 13 15  1  0  0  0
 15 16  2  0  0  0
 16 17  1  0  0  0
 17 18  2  0  0  0
 18 19  1  0  0  0
  7  8  2  0  0  0
  8  9  1  0  0  0
  9 10  2  0  0  0
 10 11  1  0  0  0
 32 33  1  0  0  0
 33 27  1  0  0  0
 25 20  1  0  0  0
 10  5  1  0  0  0
 18 12  1  0  0  0
 30 34  1  0  0  0
 30 35  1  0  0  0
  1  4  1  0  0  0
M  END
> <minimizedAffinity>
42.70299

> <CNNscore>
0.4540805221

> <CNNaffinity>
6.4881563187

> <CNN_VS>
2.9461452961

> <CNNaffinity_variance>
0.3763431013

$$$$
[H]c1nc([H])c(N([H])C(=O)c2nc(-c3c(F)c([H])c([H])c([H])c3F)c([H])c([H])c2F)c([C@@]2([H])C([H])([H])[C@@]([H])(N([H])[H])C([H])([H])[C@@]([H])(C([H])([H])[H])C2([H])[H])c1[H]


 35 38  0  0  0  0  0  0  0  0999 V2000
   23.6127    7.8337   53.0354 N   0  0  0  0  0  0  0  0  0  0  0  0
   24.9085    7.4635   53.4091 C   0  0  0  0  0  0  0  0  0  0  0  0
   25.0952    6.3010   53.9562 O   0  0  0  0  0  0  0  0  0  0  0  0
   23.4798    8.7683   52.5863 H   0  0  0  0  0  0  0  0  0  0  0  0
   26.1410    8.2192   53.2580 C   0  0  0  0  0  0  0  0  0  0  0  0
   26.5717    8.5338   52.0228 N   0  0  0  0  0  0  0  0  0  0  0  0
   27.6721    9.2184   51.7042 C   0  0  0  0  0  0  0  0  0  0  0  0
   28.4627    9.6470   52.7808 C   0  0  0  0  0  0  0  0  0  0  0  0
   28.0877    9.3604   54.0770 C   0  0  0  0  0  0  0  0  0  0  0  0
   26.9160    8.6408   54.2916 C   0  0  0  0  0  0  0  0  0  0  0  0
   26.5786    8.3719   55.6094 F   0  0  0  0  0  0  0  0  0  0  0  0
   28.0636    9.5780   50.3583 C   0  0  0  0  0  0  0  0  0  0  0  0
   28.1395   10.9008   49.9473 C   0  0  0  0  0  0  0  0  0  0  0  0
   27.8035   11.9114   50.8037 F   0  0  0  0  0  0  0  0  0  0  0  0
   28.5362   11.2734   48.6845 C   0  0  0  0  0  0  0  0  0  0  0  0
   28.8811   10.3287   47.7628 C   0  0  0  0  0  0  0  0  0  0  0  0
   28.8139    8.9869   48.1420 C   0  0  0  0  0  0  0  0  0  0  0  0
   28.4120    8.6450   49.4151 C   0  0  0  0  0  0  0  0  0  0  0  0
   28.3443    7.3245   49.7955 F   0  0  0  0  0  0  0  0  0  0  0  0
   21.3226    7.5864   53.5866 C   0  0  0  0  0  0  0  0  0  0  0  0
   20.2309    6.7181   53.6974 C   0  0  0  0  0  0  0  0  0  0  0  0
   20.3470    5.3527   53.4978 C   0  0  0  0  0  0  0  0  0  0  0  0
   21.5184    4.8122   53.1890 N   0  0  0  0  0  0  0  0  0  0  0  0
   22.5899    5.6293   53.0727 C   0  0  0  0  0  0  0  0  0  0  0  0
   22.5246    6.9669   53.2524 C   0  0  0  0  0  0  0  0  0  0  0  0
   21.5105   11.6071   51.1086 C   0  0  0  0  0  0  0  0  0  0  0  0
   21.2358   11.1726   52.5896 C   0  0  0  0  0  0  0  0  0  0  0  0
   22.4112   11.7056   53.4146 C   0  0  0  0  0  0  0  0  0  0  0  0
   22.3604   11.0581   54.7449 C   0  0  0  0  0  0  0  0  0  0  0  0
   23.3136   11.5857   55.6526 N   0  0  0  0  0  0  0  0  0  0  0  0
   22.5561    9.5227   54.6192 C   0  0  0  0  0  0  0  0  0  0  0  0
   21.2892    8.9787   53.9665 C   0  0  0  0  0  0  0  0  0  0  0  0
   21.2938    9.7054   52.5611 C   0  0  0  0  0  0  0  0  0  0  0  0
   23.2690   11.1540   56.6137 H   0  0  0  0  0  0  0  0  0  0  0  0
   23.4314   12.6058   55.6818 H   0  0  0  0  0  0  0  0  0  0  0  0
 26 27  1  0  0  0
 27 28  1  0  0  0
 28 29  1  0  0  0
 29 30  1  0  0  0
 29 31  1  0  0  0
 31 32  1  0  0  0
 32 20  1  0  0  0
 20 21  2  0  0  0
 21 22  1  0  0  0
 22 23  2  0  0  0
 23 24  1  0  0  0
 24 25  2  0  0  0
 25  1  1  0  0  0
  1  2  1  0  0  0
  2  3  2  0  0  0
  2  5  1  0  0  0
  5  6  2  0  0  0
  6  7  1  0  0  0
  7 12  1  0  0  0
 12 13  2  0  0  0
 13 14  1  0  0  0
 13 15  1  0  0  0
 15 16  2  0  0  0
 16 17  1  0  0  0
 17 18  2  0  0  0
 18 19  1  0  0  0
  7  8  2  0  0  0
  8  9  1  0  0  0
  9 10  2  0  0  0
 10 11  1  0  0  0
 32 33  1  0  0  0
 33 27  1  0  0  0
 25 20  1  0  0  0
 10  5  1  0  0  0
 18 12  1  0  0  0
 30 34  1  0  0  0
 30 35  1  0  0  0
  1  4  1  0  0  0
M  END
> <minimizedAffinity>
36.63577

> <CNNscore>
0.4417924285

> <CNNaffinity>
6.6582794189

> <CNN_VS>
2.9415774345

> <CNNaffinity_variance>
0.5088621378

$$$$
[H]c1nc([H])c(N([H])C(=O)c2nc(-c3c(F)c([H])c([H])c([H])c3F)c([H])c([H])c2F)c([C@@]2([H])C([H])([H])[C@@]([H])(N([H])[H])C([H])([H])[C@@]([H])(C([H])([H])[H])C2([H])[H])c1[H]


 35 38  0  0  0  0  0  0  0  0999 V2000
   25.7483    9.0104   53.2011 N   0  0  0  0  0  0  0  0  0  0  0  0
   24.6688    8.1248   53.2801 C   0  0  0  0  0  0  0  0  0  0  0  0
   24.8792    6.9162   53.7053 O   0  0  0  0  0  0  0  0  0  0  0  0
   25.5612    9.9832   52.8671 H   0  0  0  0  0  0  0  0  0  0  0  0
   23.2743    8.3715   52.9518 C   0  0  0  0  0  0  0  0  0  0  0  0
   22.8422    9.6398   52.8310 N   0  0  0  0  0  0  0  0  0  0  0  0
   21.6052   10.0438   52.5350 C   0  0  0  0  0  0  0  0  0  0  0  0
   20.6579    9.0285   52.3362 C   0  0  0  0  0  0  0  0  0  0  0  0
   21.0249    7.7032   52.4458 C   0  0  0  0  0  0  0  0  0  0  0  0
   22.3466    7.3979   52.7564 C   0  0  0  0  0  0  0  0  0  0  0  0
   22.6712    6.0538   52.8601 F   0  0  0  0  0  0  0  0  0  0  0  0
   21.2028   11.4232   52.3631 C   0  0  0  0  0  0  0  0  0  0  0  0
   20.8196   12.2127   53.4375 C   0  0  0  0  0  0  0  0  0  0  0  0
   20.7738   11.6890   54.6989 F   0  0  0  0  0  0  0  0  0  0  0  0
   20.4605   13.5338   53.3084 C   0  0  0  0  0  0  0  0  0  0  0  0
   20.4693   14.1347   52.0837 C   0  0  0  0  0  0  0  0  0  0  0  0
   20.8477   13.3686   50.9798 C   0  0  0  0  0  0  0  0  0  0  0  0
   21.2018   12.0466   51.1412 C   0  0  0  0  0  0  0  0  0  0  0  0
   21.5763   11.2861   50.0575 F   0  0  0  0  0  0  0  0  0  0  0  0
   28.0604    8.9685   52.6900 C   0  0  0  0  0  0  0  0  0  0  0  0
   29.3509    8.6437   53.1229 C   0  0  0  0  0  0  0  0  0  0  0  0
   29.5887    8.0010   54.3262 C   0  0  0  0  0  0  0  0  0  0  0  0
   28.5830    7.6657   55.1235 N   0  0  0  0  0  0  0  0  0  0  0  0
   27.3252    7.9707   54.7305 C   0  0  0  0  0  0  0  0  0  0  0  0
   27.0443    8.6015   53.5692 C   0  0  0  0  0  0  0  0  0  0  0  0
   29.2192    7.5063   48.3471 C   0  0  0  0  0  0  0  0  0  0  0  0
   28.2628    8.5666   48.9940 C   0  0  0  0  0  0  0  0  0  0  0  0
   28.8250    9.9383   48.6086 C   0  0  0  0  0  0  0  0  0  0  0  0
   28.1508   10.9551   49.4470 C   0  0  0  0  0  0  0  0  0  0  0  0
   28.4803   12.2836   49.0759 N   0  0  0  0  0  0  0  0  0  0  0  0
   28.4795   10.7381   50.9491 C   0  0  0  0  0  0  0  0  0  0  0  0
   27.7523    9.4648   51.3698 C   0  0  0  0  0  0  0  0  0  0  0  0
   28.4195    8.3714   50.4411 C   0  0  0  0  0  0  0  0  0  0  0  0
   27.9841   13.0191   49.6458 H   0  0  0  0  0  0  0  0  0  0  0  0
   28.5028   12.5076   48.0736 H   0  0  0  0  0  0  0  0  0  0  0  0
 26 27  1  0  0  0
 27 28  1  0  0  0
 28 29  1  0  0  0
 29 30  1  0  0  0
 29 31  1  0  0  0
 31 32  1  0  0  0
 32 20  1  0  0  0
 20 21  2  0  0  0
 21 22  1  0  0  0
 22 23  2  0  0  0
 23 24  1  0  0  0
 24 25  2  0  0  0
 25  1  1  0  0  0
  1  2  1  0  0  0
  2  3  2  0  0  0
  2  5  1  0  0  0
  5  6  2  0  0  0
  6  7  1  0  0  0
  7 12  1  0  0  0
 12 13  2  0  0  0
 13 14  1  0  0  0
 13 15  1  0  0  0
 15 16  2  0  0  0
 16 17  1  0  0  0
 17 18  2  0  0  0
 18 19  1  0  0  0
  7  8  2  0  0  0
  8  9  1  0  0  0
  9 10  2  0  0  0
 10 11  1  0  0  0
 32 33  1  0  0  0
 33 27  1  0  0  0
 25 20  1  0  0  0
 10  5  1  0  0  0
 18 12  1  0  0  0
 30 34  1  0  0  0
 30 35  1  0  0  0
  1  4  1  0  0  0
M  END
> <minimizedAffinity>
47.51120

> <CNNscore>
0.4342768788

> <CNNaffinity>
6.3419351578

> <CNN_VS>
2.7541558743

> <CNNaffinity_variance>
0.2273093015

$$$$
[H]c1nc([H])c(N([H])C(=O)c2nc(-c3c(F)c([H])c([H])c([H])c3F)c([H])c([H])c2F)c([C@@]2([H])C([H])([H])[C@@]([H])(N([H])[H])C([H])([H])[C@@]([H])(C([H])([H])[H])C2([H])[H])c1[H]


 35 38  0  0  0  0  0  0  0  0999 V2000
   26.1147    8.7499   54.4807 N   0  0  0  0  0  0  0  0  0  0  0  0
   25.0419    7.8739   54.2868 C   0  0  0  0  0  0  0  0  0  0  0  0
   25.2871    6.6107   54.1147 O   0  0  0  0  0  0  0  0  0  0  0  0
   25.9007    9.7624   54.6287 H   0  0  0  0  0  0  0  0  0  0  0  0
   23.6212    8.1806   54.2597 C   0  0  0  0  0  0  0  0  0  0  0  0
   23.1879    9.2232   53.5280 N   0  0  0  0  0  0  0  0  0  0  0  0
   21.9280    9.6414   53.3902 C   0  0  0  0  0  0  0  0  0  0  0  0
   20.9578    8.9121   54.0935 C   0  0  0  0  0  0  0  0  0  0  0  0
   21.3254    7.8310   54.8675 C   0  0  0  0  0  0  0  0  0  0  0  0
   22.6709    7.4826   54.9354 C   0  0  0  0  0  0  0  0  0  0  0  0
   22.9964    6.3920   55.7275 F   0  0  0  0  0  0  0  0  0  0  0  0
   21.5068   10.7386   52.5460 C   0  0  0  0  0  0  0  0  0  0  0  0
   21.5527   12.0553   52.9805 C   0  0  0  0  0  0  0  0  0  0  0  0
   21.9658   12.3508   54.2491 F   0  0  0  0  0  0  0  0  0  0  0  0
   21.1867   13.1199   52.1909 C   0  0  0  0  0  0  0  0  0  0  0  0
   20.7536   12.9150   50.9136 C   0  0  0  0  0  0  0  0  0  0  0  0
   20.6926   11.6016   50.4444 C   0  0  0  0  0  0  0  0  0  0  0  0
   21.0658   10.5554   51.2601 C   0  0  0  0  0  0  0  0  0  0  0  0
   21.0087    9.2587   50.8036 F   0  0  0  0  0  0  0  0  0  0  0  0
   28.1182    8.4001   55.6943 C   0  0  0  0  0  0  0  0  0  0  0  0
   29.3968    7.8316   55.7072 C   0  0  0  0  0  0  0  0  0  0  0  0
   29.9403    7.2056   54.5980 C   0  0  0  0  0  0  0  0  0  0  0  0
   29.2546    7.1221   53.4655 N   0  0  0  0  0  0  0  0  0  0  0  0
   28.0146    7.6608   53.4265 C   0  0  0  0  0  0  0  0  0  0  0  0
   27.4405    8.2760   54.4837 C   0  0  0  0  0  0  0  0  0  0  0  0
   28.2104   13.0524   56.5249 C   0  0  0  0  0  0  0  0  0  0  0  0
   27.5097   11.7840   57.1230 C   0  0  0  0  0  0  0  0  0  0  0  0
   28.1011   11.5911   58.5227 C   0  0  0  0  0  0  0  0  0  0  0  0
   27.7111   10.2440   58.9967 C   0  0  0  0  0  0  0  0  0  0  0  0
   28.0750   10.0068   60.3466 N   0  0  0  0  0  0  0  0  0  0  0  0
   28.3241    9.1414   58.0913 C   0  0  0  0  0  0  0  0  0  0  0  0
   27.5882    9.2205   56.7574 C   0  0  0  0  0  0  0  0  0  0  0  0
   27.9458   10.6791   56.2596 C   0  0  0  0  0  0  0  0  0  0  0  0
   27.7769    9.0616   60.7069 H   0  0  0  0  0  0  0  0  0  0  0  0
   27.9085   10.7597   61.0253 H   0  0  0  0  0  0  0  0  0  0  0  0
 26 27  1  0  0  0
 27 28  1  0  0  0
 28 29  1  0  0  0
 29 30  1  0  0  0
 29 31  1  0  0  0
 31 32  1  0  0  0
 32 20  1  0  0  0
 20 21  2  0  0  0
 21 22  1  0  0  0
 22 23  2  0  0  0
 23 24  1  0  0  0
 24 25  2  0  0  0
 25  1  1  0  0  0
  1  2  1  0  0  0
  2  3  2  0  0  0
  2  5  1  0  0  0
  5  6  2  0  0  0
  6  7  1  0  0  0
  7 12  1  0  0  0
 12 13  2  0  0  0
 13 14  1  0  0  0
 13 15  1  0  0  0
 15 16  2  0  0  0
 16 17  1  0  0  0
 17 18  2  0  0  0
 18 19  1  0  0  0
  7  8  2  0  0  0
  8  9  1  0  0  0
  9 10  2  0  0  0
 10 11  1  0  0  0
 32 33  1  0  0  0
 33 27  1  0  0  0
 25 20  1  0  0  0
 10  5  1  0  0  0
 18 12  1  0  0  0
 30 34  1  0  0  0
 30 35  1  0  0  0
  1  4  1  0  0  0
M  END
> <minimizedAffinity>
38.03180

> <CNNscore>
0.4306438565

> <CNNaffinity>
6.4064955711

> <CNN_VS>
2.7589180470

> <CNNaffinity_variance>
0.3073936999

$$$$
[H]c1nc([H])c(N([H])C(=O)c2nc(-c3c(F)c([H])c([H])c([H])c3F)c([H])c([H])c2F)c([C@@]2([H])C([H])([H])[C@@]([H])(N([H])[H])C([H])([H])[C@@]([H])(C([H])([H])[H])C2([H])[H])c1[H]


 35 38  0  0  0  0  0  0  0  0999 V2000
   25.4059    9.1850   56.1210 N   0  0  0  0  0  0  0  0  0  0  0  0
   24.7605    8.0661   55.5851 C   0  0  0  0  0  0  0  0  0  0  0  0
   25.3290    6.9037   55.6912 O   0  0  0  0  0  0  0  0  0  0  0  0
   24.9306   10.1124   56.0373 H   0  0  0  0  0  0  0  0  0  0  0  0
   23.4782    8.0056   54.9030 C   0  0  0  0  0  0  0  0  0  0  0  0
   23.0959    9.0380   54.1296 N   0  0  0  0  0  0  0  0  0  0  0  0
   21.9612    9.1467   53.4356 C   0  0  0  0  0  0  0  0  0  0  0  0
   21.0739    8.0647   53.5346 C   0  0  0  0  0  0  0  0  0  0  0  0
   21.3948    6.9705   54.3110 C   0  0  0  0  0  0  0  0  0  0  0  0
   22.6096    6.9641   54.9897 C   0  0  0  0  0  0  0  0  0  0  0  0
   22.8903    5.8464   55.7609 F   0  0  0  0  0  0  0  0  0  0  0  0
   21.6205   10.2578   52.5734 C   0  0  0  0  0  0  0  0  0  0  0  0
   21.1128   10.0642   51.2969 C   0  0  0  0  0  0  0  0  0  0  0  0
   20.9562    8.8012   50.7992 F   0  0  0  0  0  0  0  0  0  0  0  0
   20.7532   11.0997   50.4666 C   0  0  0  0  0  0  0  0  0  0  0  0
   20.8848   12.3931   50.8799 C   0  0  0  0  0  0  0  0  0  0  0  0
   21.3950   12.6245   52.1586 C   0  0  0  0  0  0  0  0  0  0  0  0
   21.7470   11.5657   52.9672 C   0  0  0  0  0  0  0  0  0  0  0  0
   22.2498   11.7868   54.2287 F   0  0  0  0  0  0  0  0  0  0  0  0
   27.7191    8.7135   55.9320 C   0  0  0  0  0  0  0  0  0  0  0  0
   28.9669    8.6942   56.5650 C   0  0  0  0  0  0  0  0  0  0  0  0
   29.1202    8.9883   57.9095 C   0  0  0  0  0  0  0  0  0  0  0  0
   28.0702    9.3042   58.6560 N   0  0  0  0  0  0  0  0  0  0  0  0
   26.8523    9.3333   58.0685 C   0  0  0  0  0  0  0  0  0  0  0  0
   26.6541    9.0597   56.7603 C   0  0  0  0  0  0  0  0  0  0  0  0
   28.7109   10.4864   51.6641 C   0  0  0  0  0  0  0  0  0  0  0  0
   28.1729    9.1405   52.2613 C   0  0  0  0  0  0  0  0  0  0  0  0
   26.7176    9.0212   51.7986 C   0  0  0  0  0  0  0  0  0  0  0  0
   26.0795    7.9428   52.5870 C   0  0  0  0  0  0  0  0  0  0  0  0
   24.7682    7.6360   52.1429 N   0  0  0  0  0  0  0  0  0  0  0  0
   26.0453    8.3085   54.0958 C   0  0  0  0  0  0  0  0  0  0  0  0
   27.4867    8.2356   54.5898 C   0  0  0  0  0  0  0  0  0  0  0  0
   28.2006    9.3442   53.7154 C   0  0  0  0  0  0  0  0  0  0  0  0
   24.3124    6.8490   52.6767 H   0  0  0  0  0  0  0  0  0  0  0  0
   24.6103    7.5709   51.1299 H   0  0  0  0  0  0  0  0  0  0  0  0
 26 27  1  0  0  0
 27 28  1  0  0  0
 28 29  1  0  0  0
 29 30  1  0  0  0
 29 31  1  0  0  0
 31 32  1  0  0  0
 32 20  1  0  0  0
 20 21  2  0  0  0
 21 22  1  0  0  0
 22 23  2  0  0  0
 23 24  1  0  0  0
 24 25  2  0  0  0
 25  1  1  0  0  0
  1  2  1  0  0  0
  2  3  2  0  0  0
  2  5  1  0  0  0
  5  6  2  0  0  0
  6  7  1  0  0  0
  7 12  1  0  0  0
 12 13  2  0  0  0
 13 14  1  0  0  0
 13 15  1  0  0  0
 15 16  2  0  0  0
 16 17  1  0  0  0
 17 18  2  0  0  0
 18 19  1  0  0  0
  7  8  2  0  0  0
  8  9  1  0  0  0
  9 10  2  0  0  0
 10 11  1  0  0  0
 32 33  1  0  0  0
 33 27  1  0  0  0
 25 20  1  0  0  0
 10  5  1  0  0  0
 18 12  1  0  0  0
 30 34  1  0  0  0
 30 35  1  0  0  0
  1  4  1  0  0  0
M  END
> <minimizedAffinity>
40.74115

> <CNNscore>
0.4279372990

> <CNNaffinity>
6.6680021286

> <CNN_VS>
2.8534867764

> <CNNaffinity_variance>
0.2631853223

$$$$
[H]c1nc([H])c(N([H])C(=O)c2nc(-c3c(F)c([H])c([H])c([H])c3F)c([H])c([H])c2F)c([C@@]2([H])C([H])([H])[C@@]([H])(N([H])[H])C([H])([H])[C@@]([H])(C([H])([H])[H])C2([H])[H])c1[H]


 35 38  0  0  0  0  0  0  0  0999 V2000
   23.2623    8.4835   52.9749 N   0  0  0  0  0  0  0  0  0  0  0  0
   22.3738    8.6778   54.0373 C   0  0  0  0  0  0  0  0  0  0  0  0
   22.1638    7.7004   54.8657 O   0  0  0  0  0  0  0  0  0  0  0  0
   23.4293    9.2832   52.3226 H   0  0  0  0  0  0  0  0  0  0  0  0
   21.6215    9.8746   54.3762 C   0  0  0  0  0  0  0  0  0  0  0  0
   21.5666   10.8882   53.4932 N   0  0  0  0  0  0  0  0  0  0  0  0
   20.9253   12.0494   53.6397 C   0  0  0  0  0  0  0  0  0  0  0  0
   20.2422   12.2256   54.8522 C   0  0  0  0  0  0  0  0  0  0  0  0
   20.2545   11.2317   55.8087 C   0  0  0  0  0  0  0  0  0  0  0  0
   20.9552   10.0584   55.5462 C   0  0  0  0  0  0  0  0  0  0  0  0
   20.9441    9.0874   56.5361 F   0  0  0  0  0  0  0  0  0  0  0  0
   20.8520   13.0881   52.6349 C   0  0  0  0  0  0  0  0  0  0  0  0
   21.5432   12.9958   51.4356 C   0  0  0  0  0  0  0  0  0  0  0  0
   22.3539   11.9245   51.1854 F   0  0  0  0  0  0  0  0  0  0  0  0
   21.4698   13.9527   50.4508 C   0  0  0  0  0  0  0  0  0  0  0  0
   20.6909   15.0597   50.6211 C   0  0  0  0  0  0  0  0  0  0  0  0
   19.9831   15.1860   51.8176 C   0  0  0  0  0  0  0  0  0  0  0  0
   20.0775   14.2102   52.7860 C   0  0  0  0  0  0  0  0  0  0  0  0
   19.3820   14.3282   53.9673 F   0  0  0  0  0  0  0  0  0  0  0  0
   25.1407    7.1213   53.4492 C   0  0  0  0  0  0  0  0  0  0  0  0
   25.7254    5.8541   53.3468 C   0  0  0  0  0  0  0  0  0  0  0  0
   25.1311    4.8186   52.6454 C   0  0  0  0  0  0  0  0  0  0  0  0
   23.9664    4.9961   52.0361 N   0  0  0  0  0  0  0  0  0  0  0  0
   23.3776    6.2108   52.1215 C   0  0  0  0  0  0  0  0  0  0  0  0
   23.9158    7.2490   52.7985 C   0  0  0  0  0  0  0  0  0  0  0  0
   29.6641    8.0629   54.4461 C   0  0  0  0  0  0  0  0  0  0  0  0
   28.3031    8.8396   54.4029 C   0  0  0  0  0  0  0  0  0  0  0  0
   27.9773    9.2085   55.8534 C   0  0  0  0  0  0  0  0  0  0  0  0
   26.5672    9.6570   55.9000 C   0  0  0  0  0  0  0  0  0  0  0  0
   26.1924   10.1693   57.1681 N   0  0  0  0  0  0  0  0  0  0  0  0
   25.6076    8.5032   55.5010 C   0  0  0  0  0  0  0  0  0  0  0  0
   25.8060    8.2753   54.0057 C   0  0  0  0  0  0  0  0  0  0  0  0
   27.3278    7.8499   53.9272 C   0  0  0  0  0  0  0  0  0  0  0  0
   25.1987   10.5200   57.2075 H   0  0  0  0  0  0  0  0  0  0  0  0
   26.8527   10.7962   57.6439 H   0  0  0  0  0  0  0  0  0  0  0  0
 26 27  1  0  0  0
 27 28  1  0  0  0
 28 29  1  0  0  0
 29 30  1  0  0  0
 29 31  1  0  0  0
 31 32  1  0  0  0
 32 20  1  0  0  0
 20 21  2  0  0  0
 21 22  1  0  0  0
 22 23  2  0  0  0
 23 24  1  0  0  0
 24 25  2  0  0  0
 25  1  1  0  0  0
  1  2  1  0  0  0
  2  3  2  0  0  0
  2  5  1  0  0  0
  5  6  2  0  0  0
  6  7  1  0  0  0
  7 12  1  0  0  0
 12 13  2  0  0  0
 13 14  1  0  0  0
 13 15  1  0  0  0
 15 16  2  0  0  0
 16 17  1  0  0  0
 17 18  2  0  0  0
 18 19  1  0  0  0
  7  8  2  0  0  0
  8  9  1  0  0  0
  9 10  2  0  0  0
 10 11  1  0  0  0
 32 33  1  0  0  0
 33 27  1  0  0  0
 25 20  1  0  0  0
 10  5  1  0  0  0
 18 12  1  0  0  0
 30 34  1  0  0  0
 30 35  1  0  0  0
  1  4  1  0  0  0
M  END
> <minimizedAffinity>
47.12733

> <CNNscore>
0.4225190580

> <CNNaffinity>
6.5056467056

> <CNN_VS>
2.7487597466

> <CNNaffinity_variance>
0.4322124124

$$$$
[H]OC(=O)C1(C([H])([H])c2c([H])nc(OC([H])([H])C([H])([H])c3nc(-c4c([H])c([H])c([H])c(Cl)c4[H])oc3C([H])([H])[H])c([H])c2[H])OC([H])([H])C([H])([H])C1([H])[H]


 32 35  0  0  0  0  0  0  0  0999 V2000
   26.0102    9.8227   56.1922 O   0  0  0  0  0  0  0  0  0  0  0  0
   24.7591    9.5302   55.6776 C   0  0  0  0  0  0  0  0  0  0  0  0
   24.6336    8.5014   54.7294 C   0  0  0  0  0  0  0  0  0  0  0  0
   23.3970    8.1877   54.1987 C   0  0  0  0  0  0  0  0  0  0  0  0
   22.2535    8.8629   54.5739 C   0  0  0  0  0  0  0  0  0  0  0  0
   22.4294    9.8558   55.4991 C   0  0  0  0  0  0  0  0  0  0  0  0
   23.6320   10.1541   56.0092 N   0  0  0  0  0  0  0  0  0  0  0  0
   20.9455    8.5259   54.0126 C   0  0  0  0  0  0  0  0  0  0  0  0
   20.9197    7.6850   52.7892 C   0  0  0  0  0  0  0  0  0  0  0  0
   22.0069    6.6223   52.8455 C   0  0  0  0  0  0  0  0  0  0  0  0
   21.3835    5.6528   53.8303 C   0  0  0  0  0  0  0  0  0  0  0  0
   19.9271    5.8515   53.5897 C   0  0  0  0  0  0  0  0  0  0  0  0
   19.7193    6.9522   52.7973 O   0  0  0  0  0  0  0  0  0  0  0  0
   20.9592    8.4160   51.5058 C   0  0  0  0  0  0  0  0  0  0  0  0
   21.1528    9.6814   51.4678 O   0  0  0  0  0  0  0  0  0  0  0  0
   20.7947    7.8295   50.2617 O   0  0  0  0  0  0  0  0  0  0  0  0
   21.4275    8.1133   49.5270 H   0  0  0  0  0  0  0  0  0  0  0  0
   27.0719    8.9360   56.3701 C   0  0  0  0  0  0  0  0  0  0  0  0
   28.2780    9.4396   55.5907 C   0  0  0  0  0  0  0  0  0  0  0  0
   26.5020    7.1291   54.3781 C   0  0  0  0  0  0  0  0  0  0  0  0
   27.2120    8.1957   53.6247 C   0  0  0  0  0  0  0  0  0  0  0  0
   27.2239    8.3565   52.3323 O   0  0  0  0  0  0  0  0  0  0  0  0
   27.9412    9.3881   51.9866 C   0  0  0  0  0  0  0  0  0  0  0  0
   28.4203    9.9254   53.1195 N   0  0  0  0  0  0  0  0  0  0  0  0
   27.9885    9.2099   54.1721 C   0  0  0  0  0  0  0  0  0  0  0  0
   28.1858    9.8766   50.6377 C   0  0  0  0  0  0  0  0  0  0  0  0
   28.2517   11.2123   50.3069 C   0  0  0  0  0  0  0  0  0  0  0  0
   28.4879   11.6431   49.0173 C   0  0  0  0  0  0  0  0  0  0  0  0
   28.6699   10.7386   47.9925 C   0  0  0  0  0  0  0  0  0  0  0  0
   28.6104    9.3858   48.2884 C   0  0  0  0  0  0  0  0  0  0  0  0
   28.8365    8.1892   47.0151 Cl  0  0  0  0  0  0  0  0  0  0  0  0
   28.3734    8.9780   49.5824 C   0  0  0  0  0  0  0  0  0  0  0  0
 20 21  1  0  0  0
 21 22  1  0  0  0
 22 23  1  0  0  0
 23 26  1  0  0  0
 26 27  2  0  0  0
 27 28  1  0  0  0
 28 29  2  0  0  0
 29 30  1  0  0  0
 30 31  1  0  0  0
 30 32  2  0  0  0
 23 24  2  0  0  0
 24 25  1  0  0  0
 25 19  1  0  0  0
 19 18  1  0  0  0
 18  1  1  0  0  0
  1  2  1  0  0  0
  2  3  2  0  0  0
  3  4  1  0  0  0
  4  5  2  0  0  0
  5  8  1  0  0  0
  8  9  1  0  0  0
  9 14  1  0  0  0
 14 15  2  0  0  0
 14 16  1  0  0  0
  9 10  1  0  0  0
 10 11  1  0  0  0
 11 12  1  0  0  0
 12 13  1  0  0  0
  5  6  1  0  0  0
  6  7  2  0  0  0
 25 21  2  0  0  0
  7  2  1  0  0  0
 32 26  1  0  0  0
 13  9  1  0  0  0
 16 17  1  0  0  0
M  END
> <minimizedAffinity>
17.42753

> <CNNscore>
0.6705570817

> <CNNaffinity>
6.2956018448

> <CNN_VS>
4.2215604782

> <CNNaffinity_variance>
0.1754705608

$$$$
[H]OC(=O)C1(C([H])([H])c2c([H])nc(OC([H])([H])C([H])([H])c3nc(-c4c([H])c([H])c([H])c(Cl)c4[H])oc3C([H])([H])[H])c([H])c2[H])OC([H])([H])C([H])([H])C1([H])[H]


 32 35  0  0  0  0  0  0  0  0999 V2000
   21.8629    6.4757   56.7279 O   0  0  0  0  0  0  0  0  0  0  0  0
   21.7021    7.5966   55.9321 C   0  0  0  0  0  0  0  0  0  0  0  0
   20.6684    7.6170   54.9812 C   0  0  0  0  0  0  0  0  0  0  0  0
   20.4846    8.7227   54.1731 C   0  0  0  0  0  0  0  0  0  0  0  0
   21.2973    9.8339   54.2672 C   0  0  0  0  0  0  0  0  0  0  0  0
   22.2890    9.7637   55.2077 C   0  0  0  0  0  0  0  0  0  0  0  0
   22.4609    8.6879   55.9877 N   0  0  0  0  0  0  0  0  0  0  0  0
   21.0977   11.0041   53.4126 C   0  0  0  0  0  0  0  0  0  0  0  0
   21.4623   10.8769   51.9789 C   0  0  0  0  0  0  0  0  0  0  0  0
   22.6683    9.9647   51.8108 C   0  0  0  0  0  0  0  0  0  0  0  0
   22.0145    8.6138   52.0249 C   0  0  0  0  0  0  0  0  0  0  0  0
   20.6280    8.8531   51.5360 C   0  0  0  0  0  0  0  0  0  0  0  0
   20.4186   10.1933   51.3296 O   0  0  0  0  0  0  0  0  0  0  0  0
   21.6530   12.1473   51.2489 C   0  0  0  0  0  0  0  0  0  0  0  0
   21.1798   12.3137   50.0705 O   0  0  0  0  0  0  0  0  0  0  0  0
   22.3384   13.2439   51.7452 O   0  0  0  0  0  0  0  0  0  0  0  0
   21.9205   14.1536   51.6089 H   0  0  0  0  0  0  0  0  0  0  0  0
   22.6590    5.3629   56.4579 C   0  0  0  0  0  0  0  0  0  0  0  0
   22.7222    5.1483   54.9527 C   0  0  0  0  0  0  0  0  0  0  0  0
   22.9115    6.2814   52.0127 C   0  0  0  0  0  0  0  0  0  0  0  0
   23.8258    6.5844   53.1448 C   0  0  0  0  0  0  0  0  0  0  0  0
   24.8649    7.3691   53.1146 O   0  0  0  0  0  0  0  0  0  0  0  0
   25.4563    7.4222   54.2747 C   0  0  0  0  0  0  0  0  0  0  0  0
   24.7602    6.6272   55.1024 N   0  0  0  0  0  0  0  0  0  0  0  0
   23.7287    6.0807   54.4363 C   0  0  0  0  0  0  0  0  0  0  0  0
   26.6427    8.1899   54.6223 C   0  0  0  0  0  0  0  0  0  0  0  0
   27.6415    8.5040   53.7269 C   0  0  0  0  0  0  0  0  0  0  0  0
   28.7539    9.2365   54.0881 C   0  0  0  0  0  0  0  0  0  0  0  0
   28.9119    9.6899   55.3807 C   0  0  0  0  0  0  0  0  0  0  0  0
   27.9265    9.3928   56.3091 C   0  0  0  0  0  0  0  0  0  0  0  0
   28.0805    9.9490   57.9739 Cl  0  0  0  0  0  0  0  0  0  0  0  0
   26.8246    8.6603   55.9269 C   0  0  0  0  0  0  0  0  0  0  0  0
 20 21  1  0  0  0
 21 22  1  0  0  0
 22 23  1  0  0  0
 23 26  1  0  0  0
 26 27  2  0  0  0
 27 28  1  0  0  0
 28 29  2  0  0  0
 29 30  1  0  0  0
 30 31  1  0  0  0
 30 32  2  0  0  0
 23 24  2  0  0  0
 24 25  1  0  0  0
 25 19  1  0  0  0
 19 18  1  0  0  0
 18  1  1  0  0  0
  1  2  1  0  0  0
  2  3  2  0  0  0
  3  4  1  0  0  0
  4  5  2  0  0  0
  5  8  1  0  0  0
  8  9  1  0  0  0
  9 14  1  0  0  0
 14 15  2  0  0  0
 14 16  1  0  0  0
  9 10  1  0  0  0
 10 11  1  0  0  0
 11 12  1  0  0  0
 12 13  1  0  0  0
  5  6  1  0  0  0
  6  7  2  0  0  0
 25 21  2  0  0  0
  7  2  1  0  0  0
 32 26  1  0  0  0
 13  9  1  0  0  0
 16 17  1  0  0  0
M  END
> <minimizedAffinity>
13.16741

> <CNNscore>
0.6592211127

> <CNNaffinity>
6.5630826950

> <CNN_VS>
4.3265228271

> <CNNaffinity_variance>
0.3992315233

$$$$
[H]OC(=O)C1(C([H])([H])c2c([H])nc(OC([H])([H])C([H])([H])c3nc(-c4c([H])c([H])c([H])c(Cl)c4[H])oc3C([H])([H])[H])c([H])c2[H])OC([H])([H])C([H])([H])C1([H])[H]


 32 35  0  0  0  0  0  0  0  0999 V2000
   21.6972    5.0280   52.9936 O   0  0  0  0  0  0  0  0  0  0  0  0
   21.3708    6.3352   52.6769 C   0  0  0  0  0  0  0  0  0  0  0  0
   22.3595    7.1751   52.1383 C   0  0  0  0  0  0  0  0  0  0  0  0
   22.0620    8.4846   51.8128 C   0  0  0  0  0  0  0  0  0  0  0  0
   20.8004    9.0110   52.0013 C   0  0  0  0  0  0  0  0  0  0  0  0
   19.8741    8.1527   52.5289 C   0  0  0  0  0  0  0  0  0  0  0  0
   20.1703    6.8840   52.8419 N   0  0  0  0  0  0  0  0  0  0  0  0
   20.4880   10.3966   51.6524 C   0  0  0  0  0  0  0  0  0  0  0  0
   21.4200   11.4505   52.1268 C   0  0  0  0  0  0  0  0  0  0  0  0
   20.9272   12.0542   53.4334 C   0  0  0  0  0  0  0  0  0  0  0  0
   21.2929   10.9425   54.3972 C   0  0  0  0  0  0  0  0  0  0  0  0
   22.4866   10.3378   53.7430 C   0  0  0  0  0  0  0  0  0  0  0  0
   22.6335   10.8276   52.4698 O   0  0  0  0  0  0  0  0  0  0  0  0
   21.7498   12.5058   51.1467 C   0  0  0  0  0  0  0  0  0  0  0  0
   21.4076   12.4006   49.9170 O   0  0  0  0  0  0  0  0  0  0  0  0
   22.4379   13.6700   51.4466 O   0  0  0  0  0  0  0  0  0  0  0  0
   22.0841   14.5323   51.0568 H   0  0  0  0  0  0  0  0  0  0  0  0
   22.7011    4.6015   53.8627 C   0  0  0  0  0  0  0  0  0  0  0  0
   22.4773    5.2306   55.2302 C   0  0  0  0  0  0  0  0  0  0  0  0
   21.3458    8.1604   55.5447 C   0  0  0  0  0  0  0  0  0  0  0  0
   22.7710    7.7678   55.3890 C   0  0  0  0  0  0  0  0  0  0  0  0
   23.7973    8.5689   55.3531 O   0  0  0  0  0  0  0  0  0  0  0  0
   24.9119    7.9098   55.2069 C   0  0  0  0  0  0  0  0  0  0  0  0
   24.5885    6.6085   55.1450 N   0  0  0  0  0  0  0  0  0  0  0  0
   23.2559    6.4724   55.2549 C   0  0  0  0  0  0  0  0  0  0  0  0
   26.2557    8.4623   55.1245 C   0  0  0  0  0  0  0  0  0  0  0  0
   27.0714    8.3320   54.0220 C   0  0  0  0  0  0  0  0  0  0  0  0
   28.3411    8.8704   53.9747 C   0  0  0  0  0  0  0  0  0  0  0  0
   28.8515    9.5713   55.0470 C   0  0  0  0  0  0  0  0  0  0  0  0
   28.0588    9.7226   56.1738 C   0  0  0  0  0  0  0  0  0  0  0  0
   28.6639   10.6095   57.5708 Cl  0  0  0  0  0  0  0  0  0  0  0  0
   26.7945    9.1768   56.1994 C   0  0  0  0  0  0  0  0  0  0  0  0
 20 21  1  0  0  0
 21 22  1  0  0  0
 22 23  1  0  0  0
 23 26  1  0  0  0
 26 27  2  0  0  0
 27 28  1  0  0  0
 28 29  2  0  0  0
 29 30  1  0  0  0
 30 31  1  0  0  0
 30 32  2  0  0  0
 23 24  2  0  0  0
 24 25  1  0  0  0
 25 19  1  0  0  0
 19 18  1  0  0  0
 18  1  1  0  0  0
  1  2  1  0  0  0
  2  3  2  0  0  0
  3  4  1  0  0  0
  4  5  2  0  0  0
  5  8  1  0  0  0
  8  9  1  0  0  0
  9 14  1  0  0  0
 14 15  2  0  0  0
 14 16  1  0  0  0
  9 10  1  0  0  0
 10 11  1  0  0  0
 11 12  1  0  0  0
 12 13  1  0  0  0
  5  6  1  0  0  0
  6  7  2  0  0  0
 25 21  2  0  0  0
  7  2  1  0  0  0
 32 26  1  0  0  0
 13  9  1  0  0  0
 16 17  1  0  0  0
M  END
> <minimizedAffinity>
22.10681

> <CNNscore>
0.6346982718

> <CNNaffinity>
6.2725987434

> <CNN_VS>
3.9812076092

> <CNNaffinity_variance>
0.5133321881

$$$$
[H]OC(=O)C1(C([H])([H])c2c([H])nc(OC([H])([H])C([H])([H])c3nc(-c4c([H])c([H])c([H])c(Cl)c4[H])oc3C([H])([H])[H])c([H])c2[H])OC([H])([H])C([H])([H])C1([H])[H]


 32 35  0  0  0  0  0  0  0  0999 V2000
   23.2711    5.6680   54.9639 O   0  0  0  0  0  0  0  0  0  0  0  0
   22.6501    6.7345   54.3376 C   0  0  0  0  0  0  0  0  0  0  0  0
   22.9932    7.0419   53.0106 C   0  0  0  0  0  0  0  0  0  0  0  0
   22.3893    8.1011   52.3604 C   0  0  0  0  0  0  0  0  0  0  0  0
   21.4393    8.8870   52.9801 C   0  0  0  0  0  0  0  0  0  0  0  0
   21.1411    8.5468   54.2718 C   0  0  0  0  0  0  0  0  0  0  0  0
   21.7311    7.5181   54.8955 N   0  0  0  0  0  0  0  0  0  0  0  0
   20.7994   10.0053   52.2878 C   0  0  0  0  0  0  0  0  0  0  0  0
   21.3651   11.3608   52.5049 C   0  0  0  0  0  0  0  0  0  0  0  0
   20.6115   12.0860   53.6099 C   0  0  0  0  0  0  0  0  0  0  0  0
   21.1757   11.3801   54.8271 C   0  0  0  0  0  0  0  0  0  0  0  0
   22.5424   11.0047   54.3691 C   0  0  0  0  0  0  0  0  0  0  0  0
   22.6657   11.2061   53.0175 O   0  0  0  0  0  0  0  0  0  0  0  0
   21.4843   12.2082   51.3004 C   0  0  0  0  0  0  0  0  0  0  0  0
   20.9754   11.8478   50.1817 O   0  0  0  0  0  0  0  0  0  0  0  0
   22.1354   13.4301   51.2602 O   0  0  0  0  0  0  0  0  0  0  0  0
   21.6766   14.1851   50.7701 H   0  0  0  0  0  0  0  0  0  0  0  0
   24.6334    5.5285   55.2283 C   0  0  0  0  0  0  0  0  0  0  0  0
   25.4286    6.1261   54.0766 C   0  0  0  0  0  0  0  0  0  0  0  0
   26.2915    8.7055   52.4751 C   0  0  0  0  0  0  0  0  0  0  0  0
   26.5203    8.4352   53.9188 C   0  0  0  0  0  0  0  0  0  0  0  0
   27.1199    9.2182   54.7696 O   0  0  0  0  0  0  0  0  0  0  0  0
   27.1573    8.6893   55.9600 C   0  0  0  0  0  0  0  0  0  0  0  0
   26.5470    7.4968   55.8747 N   0  0  0  0  0  0  0  0  0  0  0  0
   26.1315    7.2956   54.6125 C   0  0  0  0  0  0  0  0  0  0  0  0
   27.7435    9.2665   57.1604 C   0  0  0  0  0  0  0  0  0  0  0  0
   28.3136    8.5212   58.1691 C   0  0  0  0  0  0  0  0  0  0  0  0
   28.8637    9.1000   59.2947 C   0  0  0  0  0  0  0  0  0  0  0  0
   28.8640   10.4694   59.4565 C   0  0  0  0  0  0  0  0  0  0  0  0
   28.2989   11.2514   58.4614 C   0  0  0  0  0  0  0  0  0  0  0  0
   28.2741   13.0060   58.6197 Cl  0  0  0  0  0  0  0  0  0  0  0  0
   27.7554   10.6528   57.3464 C   0  0  0  0  0  0  0  0  0  0  0  0
 20 21  1  0  0  0
 21 22  1  0  0  0
 22 23  1  0  0  0
 23 26  1  0  0  0
 26 27  2  0  0  0
 27 28  1  0  0  0
 28 29  2  0  0  0
 29 30  1  0  0  0
 30 31  1  0  0  0
 30 32  2  0  0  0
 23 24  2  0  0  0
 24 25  1  0  0  0
 25 19  1  0  0  0
 19 18  1  0  0  0
 18  1  1  0  0  0
  1  2  1  0  0  0
  2  3  2  0  0  0
  3  4  1  0  0  0
  4  5  2  0  0  0
  5  8  1  0  0  0
  8  9  1  0  0  0
  9 14  1  0  0  0
 14 15  2  0  0  0
 14 16  1  0  0  0
  9 10  1  0  0  0
 10 11  1  0  0  0
 11 12  1  0  0  0
 12 13  1  0  0  0
  5  6  1  0  0  0
  6  7  2  0  0  0
 25 21  2  0  0  0
  7  2  1  0  0  0
 32 26  1  0  0  0
 13  9  1  0  0  0
 16 17  1  0  0  0
M  END
> <minimizedAffinity>
21.37284

> <CNNscore>
0.5931208730

> <CNNaffinity>
6.0440511703

> <CNN_VS>
3.5848529339

> <CNNaffinity_variance>
0.2866786718

$$$$
[H]OC(=O)C1(C([H])([H])c2c([H])nc(OC([H])([H])C([H])([H])c3nc(-c4c([H])c([H])c([H])c(Cl)c4[H])oc3C([H])([H])[H])c([H])c2[H])OC([H])([H])C([H])([H])C1([H])[H]


 32 35  0  0  0  0  0  0  0  0999 V2000
   25.9642    9.7398   56.6118 O   0  0  0  0  0  0  0  0  0  0  0  0
   24.7512    9.3766   56.0531 C   0  0  0  0  0  0  0  0  0  0  0  0
   23.8062   10.3746   55.7632 C   0  0  0  0  0  0  0  0  0  0  0  0
   22.5869   10.0410   55.2052 C   0  0  0  0  0  0  0  0  0  0  0  0
   22.2545    8.7334   54.9153 C   0  0  0  0  0  0  0  0  0  0  0  0
   23.2085    7.7996   55.2171 C   0  0  0  0  0  0  0  0  0  0  0  0
   24.3887    8.1311   55.7580 N   0  0  0  0  0  0  0  0  0  0  0  0
   20.9643    8.3841   54.3215 C   0  0  0  0  0  0  0  0  0  0  0  0
   20.9747    7.5011   53.1279 C   0  0  0  0  0  0  0  0  0  0  0  0
   19.9598    7.9772   52.0993 C   0  0  0  0  0  0  0  0  0  0  0  0
   20.6949    9.1757   51.5321 C   0  0  0  0  0  0  0  0  0  0  0  0
   22.1209    8.7795   51.6996 C   0  0  0  0  0  0  0  0  0  0  0  0
   22.2167    7.6601   52.4873 O   0  0  0  0  0  0  0  0  0  0  0  0
   20.8199    6.0563   53.3956 C   0  0  0  0  0  0  0  0  0  0  0  0
   21.8196    5.3340   53.7410 O   0  0  0  0  0  0  0  0  0  0  0  0
   19.6245    5.3630   53.3014 O   0  0  0  0  0  0  0  0  0  0  0  0
   19.4068    4.7098   54.0408 H   0  0  0  0  0  0  0  0  0  0  0  0
   27.1720    9.9319   55.9414 C   0  0  0  0  0  0  0  0  0  0  0  0
   27.6147    8.6135   55.3236 C   0  0  0  0  0  0  0  0  0  0  0  0
   25.2105    7.3012   53.7550 C   0  0  0  0  0  0  0  0  0  0  0  0
   26.2976    8.1373   53.1818 C   0  0  0  0  0  0  0  0  0  0  0  0
   26.4444    8.4688   51.9309 O   0  0  0  0  0  0  0  0  0  0  0  0
   27.5011    9.2108   51.7549 C   0  0  0  0  0  0  0  0  0  0  0  0
   28.0702    9.3687   52.9604 N   0  0  0  0  0  0  0  0  0  0  0  0
   27.3491    8.7123   53.8854 C   0  0  0  0  0  0  0  0  0  0  0  0
   27.9848    9.7686   50.5008 C   0  0  0  0  0  0  0  0  0  0  0  0
   28.2625   11.1048   50.3132 C   0  0  0  0  0  0  0  0  0  0  0  0
   28.7227   11.6020   49.1109 C   0  0  0  0  0  0  0  0  0  0  0  0
   28.9256   10.7669   48.0325 C   0  0  0  0  0  0  0  0  0  0  0  0
   28.6567    9.4158   48.1846 C   0  0  0  0  0  0  0  0  0  0  0  0
   28.8995    8.3065   46.8375 Cl  0  0  0  0  0  0  0  0  0  0  0  0
   28.1980    8.9411   49.3935 C   0  0  0  0  0  0  0  0  0  0  0  0
 20 21  1  0  0  0
 21 22  1  0  0  0
 22 23  1  0  0  0
 23 26  1  0  0  0
 26 27  2  0  0  0
 27 28  1  0  0  0
 28 29  2  0  0  0
 29 30  1  0  0  0
 30 31  1  0  0  0
 30 32  2  0  0  0
 23 24  2  0  0  0
 24 25  1  0  0  0
 25 19  1  0  0  0
 19 18  1  0  0  0
 18  1  1  0  0  0
  1  2  1  0  0  0
  2  3  2  0  0  0
  3  4  1  0  0  0
  4  5  2  0  0  0
  5  8  1  0  0  0
  8  9  1  0  0  0
  9 14  1  0  0  0
 14 15  2  0  0  0
 14 16  1  0  0  0
  9 10  1  0  0  0
 10 11  1  0  0  0
 11 12  1  0  0  0
 12 13  1  0  0  0
  5  6  1  0  0  0
  6  7  2  0  0  0
 25 21  2  0  0  0
  7  2  1  0  0  0
 32 26  1  0  0  0
 13  9  1  0  0  0
 16 17  1  0  0  0
M  END
> <minimizedAffinity>
19.87016

> <CNNscore>
0.5855175853

> <CNNaffinity>
6.2344031334

> <CNN_VS>
3.6503527164

> <CNNaffinity_variance>
0.2010822296

$$$$
[H]OC(=O)C1(C([H])([H])c2c([H])nc(OC([H])([H])C([H])([H])c3nc(-c4c([H])c([H])c([H])c(Cl)c4[H])oc3C([H])([H])[H])c([H])c2[H])OC([H])([H])C([H])([H])C1([H])[H]


 32 35  0  0  0  0  0  0  0  0999 V2000
   21.5519    5.5678   52.6611 O   0  0  0  0  0  0  0  0  0  0  0  0
   21.4760    6.9135   52.3468 C   0  0  0  0  0  0  0  0  0  0  0  0
   20.2242    7.4757   52.0468 C   0  0  0  0  0  0  0  0  0  0  0  0
   20.1186    8.8164   51.7296 C   0  0  0  0  0  0  0  0  0  0  0  0
   21.2227    9.6436   51.6955 C   0  0  0  0  0  0  0  0  0  0  0  0
   22.4178    9.0477   51.9946 C   0  0  0  0  0  0  0  0  0  0  0  0
   22.5121    7.7467   52.3014 N   0  0  0  0  0  0  0  0  0  0  0  0
   21.1069   11.0632   51.3626 C   0  0  0  0  0  0  0  0  0  0  0  0
   21.5442   12.0458   52.3861 C   0  0  0  0  0  0  0  0  0  0  0  0
   22.7764   12.8020   51.9121 C   0  0  0  0  0  0  0  0  0  0  0  0
   22.1422   13.7471   50.9106 C   0  0  0  0  0  0  0  0  0  0  0  0
   20.7766   13.9349   51.4749 C   0  0  0  0  0  0  0  0  0  0  0  0
   20.5487   13.0345   52.4849 O   0  0  0  0  0  0  0  0  0  0  0  0
   21.7431   11.5097   53.7485 C   0  0  0  0  0  0  0  0  0  0  0  0
   20.7531   11.1104   54.4562 O   0  0  0  0  0  0  0  0  0  0  0  0
   22.9728   11.3916   54.3751 O   0  0  0  0  0  0  0  0  0  0  0  0
   23.1601   10.5323   54.8723 H   0  0  0  0  0  0  0  0  0  0  0  0
   22.1721    5.0004   53.7739 C   0  0  0  0  0  0  0  0  0  0  0  0
   21.7787    5.7838   55.0178 C   0  0  0  0  0  0  0  0  0  0  0  0
   21.0232    8.8198   55.4367 C   0  0  0  0  0  0  0  0  0  0  0  0
   22.3902    8.2530   55.2969 C   0  0  0  0  0  0  0  0  0  0  0  0
   23.5113    8.9155   55.3209 O   0  0  0  0  0  0  0  0  0  0  0  0
   24.5361    8.1245   55.1714 C   0  0  0  0  0  0  0  0  0  0  0  0
   24.0505    6.8796   55.0437 N   0  0  0  0  0  0  0  0  0  0  0  0
   22.7089    6.9125   55.1163 C   0  0  0  0  0  0  0  0  0  0  0  0
   25.9414    8.5016   55.1453 C   0  0  0  0  0  0  0  0  0  0  0  0
   26.7807    8.2566   54.0807 C   0  0  0  0  0  0  0  0  0  0  0  0
   28.1093    8.6296   54.0864 C   0  0  0  0  0  0  0  0  0  0  0  0
   28.6579    9.2724   55.1761 C   0  0  0  0  0  0  0  0  0  0  0  0
   27.8429    9.5355   56.2660 C   0  0  0  0  0  0  0  0  0  0  0  0
   28.4949   10.3546   57.6831 Cl  0  0  0  0  0  0  0  0  0  0  0  0
   26.5197    9.1544   56.2388 C   0  0  0  0  0  0  0  0  0  0  0  0
 20 21  1  0  0  0
 21 22  1  0  0  0
 22 23  1  0  0  0
 23 26  1  0  0  0
 26 27  2  0  0  0
 27 28  1  0  0  0
 28 29  2  0  0  0
 29 30  1  0  0  0
 30 31  1  0  0  0
 30 32  2  0  0  0
 23 24  2  0  0  0
 24 25  1  0  0  0
 25 19  1  0  0  0
 19 18  1  0  0  0
 18  1  1  0  0  0
  1  2  1  0  0  0
  2  3  2  0  0  0
  3  4  1  0  0  0
  4  5  2  0  0  0
  5  8  1  0  0  0
  8  9  1  0  0  0
  9 14  1  0  0  0
 14 15  2  0  0  0
 14 16  1  0  0  0
  9 10  1  0  0  0
 10 11  1  0  0  0
 11 12  1  0  0  0
 12 13  1  0  0  0
  5  6  1  0  0  0
  6  7  2  0  0  0
 25 21  2  0  0  0
  7  2  1  0  0  0
 32 26  1  0  0  0
 13  9  1  0  0  0
 16 17  1  0  0  0
M  END
> <minimizedAffinity>
22.47723

> <CNNscore>
0.5786784291

> <CNNaffinity>
6.3293142319

> <CNN_VS>
3.6626377106

> <CNNaffinity_variance>
0.1571066380

$$$$
[H]OC(=O)C1(C([H])([H])c2c([H])nc(OC([H])([H])C([H])([H])c3nc(-c4c([H])c([H])c([H])c(Cl)c4[H])oc3C([H])([H])[H])c([H])c2[H])OC([H])([H])C([H])([H])C1([H])[H]


 32 35  0  0  0  0  0  0  0  0999 V2000
   20.0105    6.1783   53.3026 O   0  0  0  0  0  0  0  0  0  0  0  0
   20.4918    7.4596   53.0971 C   0  0  0  0  0  0  0  0  0  0  0  0
   20.9249    7.8292   51.8130 C   0  0  0  0  0  0  0  0  0  0  0  0
   21.4101    9.1016   51.5788 C   0  0  0  0  0  0  0  0  0  0  0  0
   21.4872   10.0454   52.5826 C   0  0  0  0  0  0  0  0  0  0  0  0
   21.0539    9.6357   53.8144 C   0  0  0  0  0  0  0  0  0  0  0  0
   20.5846    8.3999   54.0336 N   0  0  0  0  0  0  0  0  0  0  0  0
   21.9982   11.3925   52.3305 C   0  0  0  0  0  0  0  0  0  0  0  0
   21.2989   12.2114   51.3083 C   0  0  0  0  0  0  0  0  0  0  0  0
   20.4035   13.2474   51.9714 C   0  0  0  0  0  0  0  0  0  0  0  0
   21.4453   14.2499   52.4273 C   0  0  0  0  0  0  0  0  0  0  0  0
   22.5131   14.0835   51.4023 C   0  0  0  0  0  0  0  0  0  0  0  0
   22.2685   12.9743   50.6328 O   0  0  0  0  0  0  0  0  0  0  0  0
   20.5606   11.4566   50.2748 C   0  0  0  0  0  0  0  0  0  0  0  0
   20.0316   12.0494   49.2702 O   0  0  0  0  0  0  0  0  0  0  0  0
   20.3711   10.0845   50.2884 O   0  0  0  0  0  0  0  0  0  0  0  0
   20.5042    9.5886   49.4183 H   0  0  0  0  0  0  0  0  0  0  0  0
   20.6450    5.1448   53.9912 C   0  0  0  0  0  0  0  0  0  0  0  0
   22.0079    4.8905   53.3637 C   0  0  0  0  0  0  0  0  0  0  0  0
   21.7528    6.1768   56.2348 C   0  0  0  0  0  0  0  0  0  0  0  0
   22.8393    6.4099   55.2476 C   0  0  0  0  0  0  0  0  0  0  0  0
   23.8719    7.1889   55.3993 O   0  0  0  0  0  0  0  0  0  0  0  0
   24.6405    7.1725   54.3471 C   0  0  0  0  0  0  0  0  0  0  0  0
   24.0732    6.3351   53.4646 N   0  0  0  0  0  0  0  0  0  0  0  0
   22.9410    5.8336   53.9871 C   0  0  0  0  0  0  0  0  0  0  0  0
   25.8778    7.9130   54.1505 C   0  0  0  0  0  0  0  0  0  0  0  0
   26.7274    8.2707   55.1743 C   0  0  0  0  0  0  0  0  0  0  0  0
   27.8957    8.9714   54.9539 C   0  0  0  0  0  0  0  0  0  0  0  0
   28.2642    9.3475   53.6794 C   0  0  0  0  0  0  0  0  0  0  0  0
   27.4334    9.0046   52.6243 C   0  0  0  0  0  0  0  0  0  0  0  0
   27.8588    9.4611   50.9766 Cl  0  0  0  0  0  0  0  0  0  0  0  0
   26.2721    8.3050   52.8671 C   0  0  0  0  0  0  0  0  0  0  0  0
 20 21  1  0  0  0
 21 22  1  0  0  0
 22 23  1  0  0  0
 23 26  1  0  0  0
 26 27  2  0  0  0
 27 28  1  0  0  0
 28 29  2  0  0  0
 29 30  1  0  0  0
 30 31  1  0  0  0
 30 32  2  0  0  0
 23 24  2  0  0  0
 24 25  1  0  0  0
 25 19  1  0  0  0
 19 18  1  0  0  0
 18  1  1  0  0  0
  1  2  1  0  0  0
  2  3  2  0  0  0
  3  4  1  0  0  0
  4  5  2  0  0  0
  5  8  1  0  0  0
  8  9  1  0  0  0
  9 14  1  0  0  0
 14 15  2  0  0  0
 14 16  1  0  0  0
  9 10  1  0  0  0
 10 11  1  0  0  0
 11 12  1  0  0  0
 12 13  1  0  0  0
  5  6  1  0  0  0
  6  7  2  0  0  0
 25 21  2  0  0  0
  7  2  1  0  0  0
 32 26  1  0  0  0
 13  9  1  0  0  0
 16 17  1  0  0  0
M  END
> <minimizedAffinity>
28.41276

> <CNNscore>
0.5740987062

> <CNNaffinity>
6.4710249901

> <CNN_VS>
3.7150070667

> <CNNaffinity_variance>
0.4603112638

$$$$
[H]OC(=O)C1(C([H])([H])c2c([H])nc(OC([H])([H])C([H])([H])c3nc(-c4c([H])c([H])c([H])c(Cl)c4[H])oc3C([H])([H])[H])c([H])c2[H])OC([H])([H])C([H])([H])C1([H])[H]


 32 35  0  0  0  0  0  0  0  0999 V2000
   23.0836    8.2025   54.6238 O   0  0  0  0  0  0  0  0  0  0  0  0
   22.0001    7.4521   54.2011 C   0  0  0  0  0  0  0  0  0  0  0  0
   22.0940    6.0506   54.2108 C   0  0  0  0  0  0  0  0  0  0  0  0
   21.0280    5.2763   53.7943 C   0  0  0  0  0  0  0  0  0  0  0  0
   19.8467    5.8412   53.3588 C   0  0  0  0  0  0  0  0  0  0  0  0
   19.8064    7.2092   53.3680 C   0  0  0  0  0  0  0  0  0  0  0  0
   20.8444    7.9532   53.7735 N   0  0  0  0  0  0  0  0  0  0  0  0
   18.7190    5.0185   52.9219 C   0  0  0  0  0  0  0  0  0  0  0  0
   18.5781    3.6702   53.5272 C   0  0  0  0  0  0  0  0  0  0  0  0
   18.2251    3.7788   55.0031 C   0  0  0  0  0  0  0  0  0  0  0  0
   16.7621    4.1630   54.9013 C   0  0  0  0  0  0  0  0  0  0  0  0
   16.3526    3.5110   53.6262 C   0  0  0  0  0  0  0  0  0  0  0  0
   17.4542    3.0547   52.9474 O   0  0  0  0  0  0  0  0  0  0  0  0
   19.7161    2.7507   53.3209 C   0  0  0  0  0  0  0  0  0  0  0  0
   20.1507    2.0083   54.2698 O   0  0  0  0  0  0  0  0  0  0  0  0
   20.4033    2.6058   52.1270 O   0  0  0  0  0  0  0  0  0  0  0  0
   20.6226    1.6659   51.8283 H   0  0  0  0  0  0  0  0  0  0  0  0
   24.1607    8.6305   53.8482 C   0  0  0  0  0  0  0  0  0  0  0  0
   25.4448    8.0335   54.4055 C   0  0  0  0  0  0  0  0  0  0  0  0
   28.3377    8.9143   55.3103 C   0  0  0  0  0  0  0  0  0  0  0  0
   27.8093    8.8841   53.9212 C   0  0  0  0  0  0  0  0  0  0  0  0
   28.4516    9.2196   52.8391 O   0  0  0  0  0  0  0  0  0  0  0  0
   27.7063    9.0796   51.7793 C   0  0  0  0  0  0  0  0  0  0  0  0
   26.5143    8.6276   52.1996 N   0  0  0  0  0  0  0  0  0  0  0  0
   26.5334    8.4903   53.5364 C   0  0  0  0  0  0  0  0  0  0  0  0
   28.0787    9.3556   50.3998 C   0  0  0  0  0  0  0  0  0  0  0  0
   28.4528    8.3835   49.4982 C   0  0  0  0  0  0  0  0  0  0  0  0
   28.7982    8.6783   48.1950 C   0  0  0  0  0  0  0  0  0  0  0  0
   28.7824    9.9789   47.7370 C   0  0  0  0  0  0  0  0  0  0  0  0
   28.4110   10.9836   48.6166 C   0  0  0  0  0  0  0  0  0  0  0  0
   28.3742   12.6617   48.0811 Cl  0  0  0  0  0  0  0  0  0  0  0  0
   28.0701   10.6668   49.9129 C   0  0  0  0  0  0  0  0  0  0  0  0
 20 21  1  0  0  0
 21 22  1  0  0  0
 22 23  1  0  0  0
 23 26  1  0  0  0
 26 27  2  0  0  0
 27 28  1  0  0  0
 28 29  2  0  0  0
 29 30  1  0  0  0
 30 31  1  0  0  0
 30 32  2  0  0  0
 23 24  2  0  0  0
 24 25  1  0  0  0
 25 19  1  0  0  0
 19 18  1  0  0  0
 18  1  1  0  0  0
  1  2  1  0  0  0
  2  3  2  0  0  0
  3  4  1  0  0  0
  4  5  2  0  0  0
  5  8  1  0  0  0
  8  9  1  0  0  0
  9 14  1  0  0  0
 14 15  2  0  0  0
 14 16  1  0  0  0
  9 10  1  0  0  0
 10 11  1  0  0  0
 11 12  1  0  0  0
 12 13  1  0  0  0
  5  6  1  0  0  0
  6  7  2  0  0  0
 25 21  2  0  0  0
  7  2  1  0  0  0
 32 26  1  0  0  0
 13  9  1  0  0  0
 16 17  1  0  0  0
M  END
> <minimizedAffinity>
32.33969

> <CNNscore>
0.5618156791

> <CNNaffinity>
6.0686941147

> <CNN_VS>
3.4094874859

> <CNNaffinity_variance>
0.5103337169

$$$$
[H]OC(=O)C1(C([H])([H])c2c([H])nc(OC([H])([H])C([H])([H])c3nc(-c4c([H])c([H])c([H])c(Cl)c4[H])oc3C([H])([H])[H])c([H])c2[H])OC([H])([H])C([H])([H])C1([H])[H]


 32 35  0  0  0  0  0  0  0  0999 V2000
   21.6560   11.2631   51.8212 O   0  0  0  0  0  0  0  0  0  0  0  0
   21.4220    9.9010   51.8962 C   0  0  0  0  0  0  0  0  0  0  0  0
   22.4926    9.0385   52.1844 C   0  0  0  0  0  0  0  0  0  0  0  0
   22.2881    7.6743   52.2654 C   0  0  0  0  0  0  0  0  0  0  0  0
   21.0424    7.1140   52.0693 C   0  0  0  0  0  0  0  0  0  0  0  0
   20.0339    7.9963   51.7909 C   0  0  0  0  0  0  0  0  0  0  0  0
   20.2402    9.3181   51.7141 N   0  0  0  0  0  0  0  0  0  0  0  0
   20.8288    5.6698   52.1592 C   0  0  0  0  0  0  0  0  0  0  0  0
   20.9381    5.0422   53.5003 C   0  0  0  0  0  0  0  0  0  0  0  0
   19.6404    5.2066   54.2771 C   0  0  0  0  0  0  0  0  0  0  0  0
   18.7793    4.1695   53.5834 C   0  0  0  0  0  0  0  0  0  0  0  0
   19.7865    3.1605   53.1521 C   0  0  0  0  0  0  0  0  0  0  0  0
   21.0567    3.6529   53.3156 O   0  0  0  0  0  0  0  0  0  0  0  0
   22.0989    5.4604   54.3131 C   0  0  0  0  0  0  0  0  0  0  0  0
   23.2979    5.2251   53.9293 O   0  0  0  0  0  0  0  0  0  0  0  0
   22.0112    6.1217   55.5270 O   0  0  0  0  0  0  0  0  0  0  0  0
   22.6375    6.8999   55.6784 H   0  0  0  0  0  0  0  0  0  0  0  0
   21.7683   12.1545   52.8879 C   0  0  0  0  0  0  0  0  0  0  0  0
   21.1693   11.5189   54.1341 C   0  0  0  0  0  0  0  0  0  0  0  0
   20.4646    8.7429   55.4609 C   0  0  0  0  0  0  0  0  0  0  0  0
   21.8229    9.2727   55.1715 C   0  0  0  0  0  0  0  0  0  0  0  0
   22.9561    8.6806   55.4198 O   0  0  0  0  0  0  0  0  0  0  0  0
   23.9680    9.4111   55.0450 C   0  0  0  0  0  0  0  0  0  0  0  0
   23.4609   10.5397   54.5244 N   0  0  0  0  0  0  0  0  0  0  0  0
   22.1189   10.4964   54.5832 C   0  0  0  0  0  0  0  0  0  0  0  0
   25.3808    9.0819   55.1612 C   0  0  0  0  0  0  0  0  0  0  0  0
   26.1019    8.4423   54.1769 C   0  0  0  0  0  0  0  0  0  0  0  0
   27.4425    8.1463   54.3174 C   0  0  0  0  0  0  0  0  0  0  0  0
   28.1238    8.4846   55.4676 C   0  0  0  0  0  0  0  0  0  0  0  0
   27.4303    9.1295   56.4796 C   0  0  0  0  0  0  0  0  0  0  0  0
   28.2545    9.5835   57.9692 Cl  0  0  0  0  0  0  0  0  0  0  0  0
   26.0926    9.4151   56.3182 C   0  0  0  0  0  0  0  0  0  0  0  0
 20 21  1  0  0  0
 21 22  1  0  0  0
 22 23  1  0  0  0
 23 26  1  0  0  0
 26 27  2  0  0  0
 27 28  1  0  0  0
 28 29  2  0  0  0
 29 30  1  0  0  0
 30 31  1  0  0  0
 30 32  2  0  0  0
 23 24  2  0  0  0
 24 25  1  0  0  0
 25 19  1  0  0  0
 19 18  1  0  0  0
 18  1  1  0  0  0
  1  2  1  0  0  0
  2  3  2  0  0  0
  3  4  1  0  0  0
  4  5  2  0  0  0
  5  8  1  0  0  0
  8  9  1  0  0  0
  9 14  1  0  0  0
 14 15  2  0  0  0
 14 16  1  0  0  0
  9 10  1  0  0  0
 10 11  1  0  0  0
 11 12  1  0  0  0
 12 13  1  0  0  0
  5  6  1  0  0  0
  6  7  2  0  0  0
 25 21  2  0  0  0
  7  2  1  0  0  0
 32 26  1  0  0  0
 13  9  1  0  0  0
 16 17  1  0  0  0
M  END
> <minimizedAffinity>
21.45880

> <CNNscore>
0.5517101288

> <CNNaffinity>
6.4527578354

> <CNN_VS>
3.5600519180

> <CNNaffinity_variance>
0.2104486972

$$$$
[H]OC(=O)C([H])([H])c1c([H])c([H])c(Oc2c([H])c([H])c(C(=O)N([H])C([H])(C([H])([H])[H])C([H])([H])[H])c([H])c2N([H])S(=O)(=O)c2c([H])c([H])c(Cl)c([H])c2Cl)c(OC([H])([H])[H])c1[H]


 40 42  0  0  0  0  0  0  0  0999 V2000
   27.9207    8.7931   52.9440 C   0  0  0  0  0  0  0  0  0  0  0  0
   28.9675    9.3301   53.6426 C   0  0  0  0  0  0  0  0  0  0  0  0
   28.9097    9.5124   55.0105 C   0  0  0  0  0  0  0  0  0  0  0  0
   27.7790    9.1497   55.6969 C   0  0  0  0  0  0  0  0  0  0  0  0
   26.7302    8.6100   54.9823 C   0  0  0  0  0  0  0  0  0  0  0  0
   26.7477    8.4128   53.6255 C   0  0  0  0  0  0  0  0  0  0  0  0
   27.6793    9.3224   57.1516 C   0  0  0  0  0  0  0  0  0  0  0  0
   26.7038    8.7541   57.7332 O   0  0  0  0  0  0  0  0  0  0  0  0
   28.6155   10.0778   57.8668 N   0  0  0  0  0  0  0  0  0  0  0  0
   29.4124   10.5428   57.4190 H   0  0  0  0  0  0  0  0  0  0  0  0
   28.4665   10.2154   59.3074 C   0  0  0  0  0  0  0  0  0  0  0  0
   29.2358    9.0617   59.9273 C   0  0  0  0  0  0  0  0  0  0  0  0
   28.9857   11.5456   59.7618 C   0  0  0  0  0  0  0  0  0  0  0  0
   25.6724    7.8707   52.8705 N   0  0  0  0  0  0  0  0  0  0  0  0
   25.7139    7.9216   51.8151 H   0  0  0  0  0  0  0  0  0  0  0  0
   24.3440    7.1542   53.6812 S   0  0  0  0  0  0  0  0  0  0  0  0
   23.6515    6.1029   52.8212 O   0  0  0  0  0  0  0  0  0  0  0  0
   24.8858    6.4541   54.9337 O   0  0  0  0  0  0  0  0  0  0  0  0
   23.2117    8.3835   54.1866 C   0  0  0  0  0  0  0  0  0  0  0  0
   23.4056    9.0636   55.3544 C   0  0  0  0  0  0  0  0  0  0  0  0
   22.4402   10.0180   55.7035 C   0  0  0  0  0  0  0  0  0  0  0  0
   21.3423   10.2753   54.9259 C   0  0  0  0  0  0  0  0  0  0  0  0
   20.1553   11.4676   55.3813 Cl  0  0  0  0  0  0  0  0  0  0  0  0
   21.1975    9.5613   53.7626 C   0  0  0  0  0  0  0  0  0  0  0  0
   22.1037    8.6201   53.3700 C   0  0  0  0  0  0  0  0  0  0  0  0
   21.9203    7.6984   51.8717 Cl  0  0  0  0  0  0  0  0  0  0  0  0
   27.9783    8.6080   51.5767 O   0  0  0  0  0  0  0  0  0  0  0  0
   28.3734    9.3534   49.3038 C   0  0  0  0  0  0  0  0  0  0  0  0
   28.3731   10.4039   48.3997 C   0  0  0  0  0  0  0  0  0  0  0  0
   28.0195   11.6984   48.7441 C   0  0  0  0  0  0  0  0  0  0  0  0
   27.6541   11.9292   50.0543 C   0  0  0  0  0  0  0  0  0  0  0  0
   27.6478   10.8992   50.9701 C   0  0  0  0  0  0  0  0  0  0  0  0
   28.0078    9.5897   50.6138 C   0  0  0  0  0  0  0  0  0  0  0  0
   29.1242    7.8537   47.5481 C   0  0  0  0  0  0  0  0  0  0  0  0
   28.7368    8.0669   48.8980 O   0  0  0  0  0  0  0  0  0  0  0  0
   28.0235   12.8173   47.7624 C   0  0  0  0  0  0  0  0  0  0  0  0
   26.7911   13.6298   47.9185 C   0  0  0  0  0  0  0  0  0  0  0  0
   26.1172   14.0838   46.9729 O   0  0  0  0  0  0  0  0  0  0  0  0
   26.3747   13.8924   49.2325 O   0  0  0  0  0  0  0  0  0  0  0  0
   26.1783   13.1140   49.8422 H   0  0  0  0  0  0  0  0  0  0  0  0
 34 35  1  0  0  0
 35 28  1  0  0  0
 28 29  2  0  0  0
 29 30  1  0  0  0
 30 36  1  0  0  0
 36 37  1  0  0  0
 37 38  2  0  0  0
 37 39  1  0  0  0
 30 31  2  0  0  0
 31 32  1  0  0  0
 32 33  2  0  0  0
 33 27  1  0  0  0
 27  1  1  0  0  0
  1  2  2  0  0  0
  2  3  1  0  0  0
  3  4  2  0  0  0
  4  7  1  0  0  0
  7  8  2  0  0  0
  7  9  1  0  0  0
  9 11  1  0  0  0
 11 12  1  0  0  0
 11 13  1  0  0  0
  4  5  1  0  0  0
  5  6  2  0  0  0
  6 14  1  0  0  0
 14 16  1  0  0  0
 16 17  2  0  0  0
 16 18  2  0  0  0
 16 19  1  0  0  0
 19 20  2  0  0  0
 20 21  1  0  0  0
 21 22  2  0  0  0
 22 23  1  0  0  0
 22 24  1  0  0  0
 24 25  2  0  0  0
 25 26  1  0  0  0
 33 28  1  0  0  0
  6  1  1  0  0  0
 25 19  1  0  0  0
 39 40  1  0  0  0
  9 10  1  0  0  0
 14 15  1  0  0  0
M  END
> <minimizedAffinity>
24.26311

> <CNNscore>
0.5695814490

> <CNNaffinity>
6.9680314064

> <CNN_VS>
3.9688613415

> <CNNaffinity_variance>
0.4809713960

$$$$
[H]OC(=O)C([H])([H])c1c([H])c([H])c(Oc2c([H])c([H])c(C(=O)N([H])C([H])(C([H])([H])[H])C([H])([H])[H])c([H])c2N([H])S(=O)(=O)c2c([H])c([H])c(Cl)c([H])c2Cl)c(OC([H])([H])[H])c1[H]


 40 42  0  0  0  0  0  0  0  0999 V2000
   23.2948    6.8174   52.9070 C   0  0  0  0  0  0  0  0  0  0  0  0
   23.3748    5.8462   53.8675 C   0  0  0  0  0  0  0  0  0  0  0  0
   22.3246    4.9847   54.1178 C   0  0  0  0  0  0  0  0  0  0  0  0
   21.1666    5.0963   53.3913 C   0  0  0  0  0  0  0  0  0  0  0  0
   21.0972    6.0791   52.4264 C   0  0  0  0  0  0  0  0  0  0  0  0
   22.1161    6.9532   52.1473 C   0  0  0  0  0  0  0  0  0  0  0  0
   20.0290    4.1973   53.6229 C   0  0  0  0  0  0  0  0  0  0  0  0
   20.2116    2.9640   53.3815 O   0  0  0  0  0  0  0  0  0  0  0  0
   18.7989    4.6753   54.0888 N   0  0  0  0  0  0  0  0  0  0  0  0
   18.6296    5.6660   54.2932 H   0  0  0  0  0  0  0  0  0  0  0  0
   17.7061    3.7385   54.2997 C   0  0  0  0  0  0  0  0  0  0  0  0
   17.8367    3.2470   55.7309 C   0  0  0  0  0  0  0  0  0  0  0  0
   16.3885    4.4086   54.0537 C   0  0  0  0  0  0  0  0  0  0  0  0
   22.0581    7.9803   51.1665 N   0  0  0  0  0  0  0  0  0  0  0  0
   22.6454    7.8841   50.2923 H   0  0  0  0  0  0  0  0  0  0  0  0
   21.0474    9.3398   51.4214 S   0  0  0  0  0  0  0  0  0  0  0  0
   21.4976   10.5457   50.6044 O   0  0  0  0  0  0  0  0  0  0  0  0
   19.6339    8.9617   50.9612 O   0  0  0  0  0  0  0  0  0  0  0  0
   20.9836    9.7335   53.1213 C   0  0  0  0  0  0  0  0  0  0  0  0
   20.5891    8.7972   54.0332 C   0  0  0  0  0  0  0  0  0  0  0  0
   20.5405    9.1967   55.3760 C   0  0  0  0  0  0  0  0  0  0  0  0
   20.8685   10.4634   55.7811 C   0  0  0  0  0  0  0  0  0  0  0  0
   20.8006   10.9363   57.4573 Cl  0  0  0  0  0  0  0  0  0  0  0  0
   21.2577   11.3642   54.8213 C   0  0  0  0  0  0  0  0  0  0  0  0
   21.3246   11.0340   53.4993 C   0  0  0  0  0  0  0  0  0  0  0  0
   21.8258   12.1921   52.2600 Cl  0  0  0  0  0  0  0  0  0  0  0  0
   24.3450    7.6776   52.6541 O   0  0  0  0  0  0  0  0  0  0  0  0
   25.0800    8.5772   54.7821 C   0  0  0  0  0  0  0  0  0  0  0  0
   26.1422    8.9209   55.6036 C   0  0  0  0  0  0  0  0  0  0  0  0
   27.4676    8.7584   55.2345 C   0  0  0  0  0  0  0  0  0  0  0  0
   27.7181    8.2277   53.9858 C   0  0  0  0  0  0  0  0  0  0  0  0
   26.6769    7.8794   53.1525 C   0  0  0  0  0  0  0  0  0  0  0  0
   25.3360    8.0474   53.5334 C   0  0  0  0  0  0  0  0  0  0  0  0
   23.5152    9.5685   56.3518 C   0  0  0  0  0  0  0  0  0  0  0  0
   23.7627    8.7610   55.2097 O   0  0  0  0  0  0  0  0  0  0  0  0
   28.5986    9.1318   56.1271 C   0  0  0  0  0  0  0  0  0  0  0  0
   28.0745    9.6747   57.4053 C   0  0  0  0  0  0  0  0  0  0  0  0
   27.6338    8.9802   58.3424 O   0  0  0  0  0  0  0  0  0  0  0  0
   28.0857   11.0707   57.5459 O   0  0  0  0  0  0  0  0  0  0  0  0
   28.9653   11.5574   57.4690 H   0  0  0  0  0  0  0  0  0  0  0  0
 34 35  1  0  0  0
 35 28  1  0  0  0
 28 29  2  0  0  0
 29 30  1  0  0  0
 30 36  1  0  0  0
 36 37  1  0  0  0
 37 38  2  0  0  0
 37 39  1  0  0  0
 30 31  2  0  0  0
 31 32  1  0  0  0
 32 33  2  0  0  0
 33 27  1  0  0  0
 27  1  1  0  0  0
  1  2  2  0  0  0
  2  3  1  0  0  0
  3  4  2  0  0  0
  4  7  1  0  0  0
  7  8  2  0  0  0
  7  9  1  0  0  0
  9 11  1  0  0  0
 11 12  1  0  0  0
 11 13  1  0  0  0
  4  5  1  0  0  0
  5  6  2  0  0  0
  6 14  1  0  0  0
 14 16  1  0  0  0
 16 17  2  0  0  0
 16 18  2  0  0  0
 16 19  1  0  0  0
 19 20  2  0  0  0
 20 21  1  0  0  0
 21 22  2  0  0  0
 22 23  1  0  0  0
 22 24  1  0  0  0
 24 25  2  0  0  0
 25 26  1  0  0  0
 33 28  1  0  0  0
  6  1  1  0  0  0
 25 19  1  0  0  0
 39 40  1  0  0  0
  9 10  1  0  0  0
 14 15  1  0  0  0
M  END
> <minimizedAffinity>
25.80797

> <CNNscore>
0.5672308207

> <CNNaffinity>
6.6645021439

> <CNN_VS>
3.7803111076

> <CNNaffinity_variance>
1.2162762880

$$$$
[H]OC(=O)C([H])([H])c1c([H])c([H])c(Oc2c([H])c([H])c(C(=O)N([H])C([H])(C([H])([H])[H])C([H])([H])[H])c([H])c2N([H])S(=O)(=O)c2c([H])c([H])c(Cl)c([H])c2Cl)c(OC([H])([H])[H])c1[H]


 40 42  0  0  0  0  0  0  0  0999 V2000
   26.7430    8.4998   54.5447 C   0  0  0  0  0  0  0  0  0  0  0  0
   28.0173    8.2539   54.9783 C   0  0  0  0  0  0  0  0  0  0  0  0
   28.4613    8.6901   56.2113 C   0  0  0  0  0  0  0  0  0  0  0  0
   27.6119    9.3889   57.0308 C   0  0  0  0  0  0  0  0  0  0  0  0
   26.3302    9.6313   56.5831 C   0  0  0  0  0  0  0  0  0  0  0  0
   25.8512    9.2159   55.3673 C   0  0  0  0  0  0  0  0  0  0  0  0
   28.0431    9.8658   58.3508 C   0  0  0  0  0  0  0  0  0  0  0  0
   28.2815    8.9832   59.2321 O   0  0  0  0  0  0  0  0  0  0  0  0
   28.1860   11.2303   58.6273 N   0  0  0  0  0  0  0  0  0  0  0  0
   28.0021   11.9603   57.9308 H   0  0  0  0  0  0  0  0  0  0  0  0
   28.6159   11.6455   59.9537 C   0  0  0  0  0  0  0  0  0  0  0  0
   29.9414   10.9491   60.2092 C   0  0  0  0  0  0  0  0  0  0  0  0
   28.7431   13.1372   60.0188 C   0  0  0  0  0  0  0  0  0  0  0  0
   24.5386    9.4675   54.8835 N   0  0  0  0  0  0  0  0  0  0  0  0
   24.4130    9.7452   53.8708 H   0  0  0  0  0  0  0  0  0  0  0  0
   23.2012    9.3175   55.9436 S   0  0  0  0  0  0  0  0  0  0  0  0
   23.6397    9.0661   57.3820 O   0  0  0  0  0  0  0  0  0  0  0  0
   22.4313   10.6438   55.9121 O   0  0  0  0  0  0  0  0  0  0  0  0
   22.1337    8.0507   55.3921 C   0  0  0  0  0  0  0  0  0  0  0  0
   22.4746    6.7391   55.5571 C   0  0  0  0  0  0  0  0  0  0  0  0
   21.5768    5.7809   55.0662 C   0  0  0  0  0  0  0  0  0  0  0  0
   20.4039    6.1192   54.4447 C   0  0  0  0  0  0  0  0  0  0  0  0
   19.3031    4.9092   53.8430 Cl  0  0  0  0  0  0  0  0  0  0  0  0
   20.1122    7.4532   54.3055 C   0  0  0  0  0  0  0  0  0  0  0  0
   20.9462    8.4310   54.7628 C   0  0  0  0  0  0  0  0  0  0  0  0
   20.5735   10.1508   54.5851 Cl  0  0  0  0  0  0  0  0  0  0  0  0
   26.2973    8.0620   53.3132 O   0  0  0  0  0  0  0  0  0  0  0  0
   24.4173    6.5749   52.9495 C   0  0  0  0  0  0  0  0  0  0  0  0
   23.0936    6.4345   52.5637 C   0  0  0  0  0  0  0  0  0  0  0  0
   22.3034    7.5016   52.1684 C   0  0  0  0  0  0  0  0  0  0  0  0
   22.8827    8.7538   52.1665 C   0  0  0  0  0  0  0  0  0  0  0  0
   24.1977    8.9162   52.5460 C   0  0  0  0  0  0  0  0  0  0  0  0
   24.9925    7.8298   52.9451 C   0  0  0  0  0  0  0  0  0  0  0  0
   24.5799    4.1709   53.2481 C   0  0  0  0  0  0  0  0  0  0  0  0
   25.1650    5.4618   53.3418 O   0  0  0  0  0  0  0  0  0  0  0  0
   20.8826    7.3361   51.7565 C   0  0  0  0  0  0  0  0  0  0  0  0
   20.3538    8.6236   51.2406 C   0  0  0  0  0  0  0  0  0  0  0  0
   20.9490    9.7164   51.3189 O   0  0  0  0  0  0  0  0  0  0  0  0
   19.0933    8.5830   50.6255 O   0  0  0  0  0  0  0  0  0  0  0  0
   18.9639    7.9808   49.8274 H   0  0  0  0  0  0  0  0  0  0  0  0
 34 35  1  0  0  0
 35 28  1  0  0  0
 28 29  2  0  0  0
 29 30  1  0  0  0
 30 36  1  0  0  0
 36 37  1  0  0  0
 37 38  2  0  0  0
 37 39  1  0  0  0
 30 31  2  0  0  0
 31 32  1  0  0  0
 32 33  2  0  0  0
 33 27  1  0  0  0
 27  1  1  0  0  0
  1  2  2  0  0  0
  2  3  1  0  0  0
  3  4  2  0  0  0
  4  7  1  0  0  0
  7  8  2  0  0  0
  7  9  1  0  0  0
  9 11  1  0  0  0
 11 12  1  0  0  0
 11 13  1  0  0  0
  4  5  1  0  0  0
  5  6  2  0  0  0
  6 14  1  0  0  0
 14 16  1  0  0  0
 16 17  2  0  0  0
 16 18  2  0  0  0
 16 19  1  0  0  0
 19 20  2  0  0  0
 20 21  1  0  0  0
 21 22  2  0  0  0
 22 23  1  0  0  0
 22 24  1  0  0  0
 24 25  2  0  0  0
 25 26  1  0  0  0
 33 28  1  0  0  0
  6  1  1  0  0  0
 25 19  1  0  0  0
 39 40  1  0  0  0
  9 10  1  0  0  0
 14 15  1  0  0  0
M  END
> <minimizedAffinity>
23.45269

> <CNNscore>
0.5146014690

> <CNNaffinity>
6.6400995255

> <CNN_VS>
3.4170050621

> <CNNaffinity_variance>
1.1253306866

$$$$
[H]OC(=O)C([H])([H])c1c([H])c([H])c(Oc2c([H])c([H])c(C(=O)N([H])C([H])(C([H])([H])[H])C([H])([H])[H])c([H])c2N([H])S(=O)(=O)c2c([H])c([H])c(Cl)c([H])c2Cl)c(OC([H])([H])[H])c1[H]


 40 42  0  0  0  0  0  0  0  0999 V2000
   26.2179    8.3792   54.3865 C   0  0  0  0  0  0  0  0  0  0  0  0
   27.5838    8.4231   54.4554 C   0  0  0  0  0  0  0  0  0  0  0  0
   28.2394    8.8797   55.5821 C   0  0  0  0  0  0  0  0  0  0  0  0
   27.5131    9.3030   56.6659 C   0  0  0  0  0  0  0  0  0  0  0  0
   26.1372    9.2547   56.5848 C   0  0  0  0  0  0  0  0  0  0  0  0
   25.4488    8.8088   55.4860 C   0  0  0  0  0  0  0  0  0  0  0  0
   28.1714    9.7909   57.8842 C   0  0  0  0  0  0  0  0  0  0  0  0
   28.4705    8.9245   58.7632 O   0  0  0  0  0  0  0  0  0  0  0  0
   28.4576   11.1482   58.0704 N   0  0  0  0  0  0  0  0  0  0  0  0
   28.2281   11.8647   57.3734 H   0  0  0  0  0  0  0  0  0  0  0  0
   29.1109   11.5749   59.2982 C   0  0  0  0  0  0  0  0  0  0  0  0
   28.3502   12.7972   59.7826 C   0  0  0  0  0  0  0  0  0  0  0  0
   29.0985   10.4683   60.3086 C   0  0  0  0  0  0  0  0  0  0  0  0
   24.0322    8.7642   55.3791 N   0  0  0  0  0  0  0  0  0  0  0  0
   23.5642    7.8349   55.1899 H   0  0  0  0  0  0  0  0  0  0  0  0
   23.1230   10.2052   55.5568 S   0  0  0  0  0  0  0  0  0  0  0  0
   22.0469   10.0716   56.6285 O   0  0  0  0  0  0  0  0  0  0  0  0
   24.0882   11.3134   55.9959 O   0  0  0  0  0  0  0  0  0  0  0  0
   22.4184   10.6661   54.0271 C   0  0  0  0  0  0  0  0  0  0  0  0
   22.9091   11.7354   53.3344 C   0  0  0  0  0  0  0  0  0  0  0  0
   22.2747   12.0573   52.1266 C   0  0  0  0  0  0  0  0  0  0  0  0
   21.2085   11.3474   51.6413 C   0  0  0  0  0  0  0  0  0  0  0  0
   20.4364   11.7670   50.1360 Cl  0  0  0  0  0  0  0  0  0  0  0  0
   20.7564   10.2823   52.3796 C   0  0  0  0  0  0  0  0  0  0  0  0
   21.3328    9.9207   53.5620 C   0  0  0  0  0  0  0  0  0  0  0  0
   20.7529    8.5487   54.5158 Cl  0  0  0  0  0  0  0  0  0  0  0  0
   25.5615    7.9204   53.2616 O   0  0  0  0  0  0  0  0  0  0  0  0
   23.8618    6.4167   54.1148 C   0  0  0  0  0  0  0  0  0  0  0  0
   22.5783    5.9089   53.9891 C   0  0  0  0  0  0  0  0  0  0  0  0
   21.7022    6.3052   52.9918 C   0  0  0  0  0  0  0  0  0  0  0  0
   22.1501    7.2508   52.0925 C   0  0  0  0  0  0  0  0  0  0  0  0
   23.4228    7.7688   52.1985 C   0  0  0  0  0  0  0  0  0  0  0  0
   24.3054    7.3621   53.2120 C   0  0  0  0  0  0  0  0  0  0  0  0
   24.2530    4.9449   56.0057 C   0  0  0  0  0  0  0  0  0  0  0  0
   24.7005    5.9814   55.1439 O   0  0  0  0  0  0  0  0  0  0  0  0
   20.3260    5.7513   52.8688 C   0  0  0  0  0  0  0  0  0  0  0  0
   19.3632    6.8481   52.5982 C   0  0  0  0  0  0  0  0  0  0  0  0
   19.4079    7.6015   51.6057 O   0  0  0  0  0  0  0  0  0  0  0  0
   18.3391    7.0309   53.5398 O   0  0  0  0  0  0  0  0  0  0  0  0
   17.7159    6.2620   53.7318 H   0  0  0  0  0  0  0  0  0  0  0  0
 34 35  1  0  0  0
 35 28  1  0  0  0
 28 29  2  0  0  0
 29 30  1  0  0  0
 30 36  1  0  0  0
 36 37  1  0  0  0
 37 38  2  0  0  0
 37 39  1  0  0  0
 30 31  2  0  0  0
 31 32  1  0  0  0
 32 33  2  0  0  0
 33 27  1  0  0  0
 27  1  1  0  0  0
  1  2  2  0  0  0
  2  3  1  0  0  0
  3  4  2  0  0  0
  4  7  1  0  0  0
  7  8  2  0  0  0
  7  9  1  0  0  0
  9 11  1  0  0  0
 11 12  1  0  0  0
 11 13  1  0  0  0
  4  5  1  0  0  0
  5  6  2  0  0  0
  6 14  1  0  0  0
 14 16  1  0  0  0
 16 17  2  0  0  0
 16 18  2  0  0  0
 16 19  1  0  0  0
 19 20  2  0  0  0
 20 21  1  0  0  0
 21 22  2  0  0  0
 22 23  1  0  0  0
 22 24  1  0  0  0
 24 25  2  0  0  0
 25 26  1  0  0  0
 33 28  1  0  0  0
  6  1  1  0  0  0
 25 19  1  0  0  0
 39 40  1  0  0  0
  9 10  1  0  0  0
 14 15  1  0  0  0
M  END
> <minimizedAffinity>
20.53325

> <CNNscore>
0.5086523294

> <CNNaffinity>
6.7454557419

> <CNN_VS>
3.4310917854

> <CNNaffinity_variance>
1.0703499317

$$$$
[H]OC(=O)C([H])([H])c1c([H])c([H])c(Oc2c([H])c([H])c(C(=O)N([H])C([H])(C([H])([H])[H])C([H])([H])[H])c([H])c2N([H])S(=O)(=O)c2c([H])c([H])c(Cl)c([H])c2Cl)c(OC([H])([H])[H])c1[H]


 40 42  0  0  0  0  0  0  0  0999 V2000
   25.7297    8.3015   54.2202 C   0  0  0  0  0  0  0  0  0  0  0  0
   27.0941    8.3196   54.1189 C   0  0  0  0  0  0  0  0  0  0  0  0
   27.8909    8.8093   55.1353 C   0  0  0  0  0  0  0  0  0  0  0  0
   27.3107    9.2928   56.2802 C   0  0  0  0  0  0  0  0  0  0  0  0
   25.9348    9.2701   56.3709 C   0  0  0  0  0  0  0  0  0  0  0  0
   25.1091    8.7929   55.3857 C   0  0  0  0  0  0  0  0  0  0  0  0
   28.1220    9.8176   57.3858 C   0  0  0  0  0  0  0  0  0  0  0  0
   28.5288   11.0161   57.2828 O   0  0  0  0  0  0  0  0  0  0  0  0
   28.4337    9.0346   58.5032 N   0  0  0  0  0  0  0  0  0  0  0  0
   28.1138    8.0660   58.6091 H   0  0  0  0  0  0  0  0  0  0  0  0
   29.2422    9.6068   59.5688 C   0  0  0  0  0  0  0  0  0  0  0  0
   28.3091   10.4805   60.3891 C   0  0  0  0  0  0  0  0  0  0  0  0
   29.8648    8.5210   60.3928 C   0  0  0  0  0  0  0  0  0  0  0  0
   23.6896    8.7735   55.4555 N   0  0  0  0  0  0  0  0  0  0  0  0
   23.1910    7.8411   55.4384 H   0  0  0  0  0  0  0  0  0  0  0  0
   22.8260   10.2492   55.5639 S   0  0  0  0  0  0  0  0  0  0  0  0
   21.6920   10.1724   56.5800 O   0  0  0  0  0  0  0  0  0  0  0  0
   23.8075   11.3292   56.0360 O   0  0  0  0  0  0  0  0  0  0  0  0
   22.2187   10.7092   53.9928 C   0  0  0  0  0  0  0  0  0  0  0  0
   22.6744   11.8407   53.3799 C   0  0  0  0  0  0  0  0  0  0  0  0
   22.1209   12.1557   52.1311 C   0  0  0  0  0  0  0  0  0  0  0  0
   21.1643   11.3801   51.5314 C   0  0  0  0  0  0  0  0  0  0  0  0
   20.4914   11.7925   49.9774 Cl  0  0  0  0  0  0  0  0  0  0  0  0
   20.7427   10.2540   52.1933 C   0  0  0  0  0  0  0  0  0  0  0  0
   21.2442    9.8957   53.4103 C   0  0  0  0  0  0  0  0  0  0  0  0
   20.7032    8.4454   54.2659 Cl  0  0  0  0  0  0  0  0  0  0  0  0
   24.9322    7.8098   53.2057 O   0  0  0  0  0  0  0  0  0  0  0  0
   22.7252    7.0424   52.5591 C   0  0  0  0  0  0  0  0  0  0  0  0
   21.6927    6.1409   52.7644 C   0  0  0  0  0  0  0  0  0  0  0  0
   21.7382    5.1444   53.7257 C   0  0  0  0  0  0  0  0  0  0  0  0
   22.8749    5.0647   54.5037 C   0  0  0  0  0  0  0  0  0  0  0  0
   23.9135    5.9512   54.3170 C   0  0  0  0  0  0  0  0  0  0  0  0
   23.8599    6.9589   53.3407 C   0  0  0  0  0  0  0  0  0  0  0  0
   21.4695    8.0559   50.7449 C   0  0  0  0  0  0  0  0  0  0  0  0
   22.6243    8.0253   51.5714 O   0  0  0  0  0  0  0  0  0  0  0  0
   20.6217    4.1826   53.9352 C   0  0  0  0  0  0  0  0  0  0  0  0
   19.3307    4.8232   53.5798 C   0  0  0  0  0  0  0  0  0  0  0  0
   18.2158    4.2743   53.6805 O   0  0  0  0  0  0  0  0  0  0  0  0
   19.3948    6.1398   53.0987 O   0  0  0  0  0  0  0  0  0  0  0  0
   19.8143    6.8476   53.6813 H   0  0  0  0  0  0  0  0  0  0  0  0
 34 35  1  0  0  0
 35 28  1  0  0  0
 28 29  2  0  0  0
 29 30  1  0  0  0
 30 36  1  0  0  0
 36 37  1  0  0  0
 37 38  2  0  0  0
 37 39  1  0  0  0
 30 31  2  0  0  0
 31 32  1  0  0  0
 32 33  2  0  0  0
 33 27  1  0  0  0
 27  1  1  0  0  0
  1  2  2  0  0  0
  2  3  1  0  0  0
  3  4  2  0  0  0
  4  7  1  0  0  0
  7  8  2  0  0  0
  7  9  1  0  0  0
  9 11  1  0  0  0
 11 12  1  0  0  0
 11 13  1  0  0  0
  4  5  1  0  0  0
  5  6  2  0  0  0
  6 14  1  0  0  0
 14 16  1  0  0  0
 16 17  2  0  0  0
 16 18  2  0  0  0
 16 19  1  0  0  0
 19 20  2  0  0  0
 20 21  1  0  0  0
 21 22  2  0  0  0
 22 23  1  0  0  0
 22 24  1  0  0  0
 24 25  2  0  0  0
 25 26  1  0  0  0
 33 28  1  0  0  0
  6  1  1  0  0  0
 25 19  1  0  0  0
 39 40  1  0  0  0
  9 10  1  0  0  0
 14 15  1  0  0  0
M  END
> <minimizedAffinity>
22.13445

> <CNNscore>
0.4702122211

> <CNNaffinity>
6.8823900223

> <CNN_VS>
3.2361838818

> <CNNaffinity_variance>
0.3706762791

$$$$
[H]OC(=O)C([H])([H])c1c([H])c([H])c(Oc2c([H])c([H])c(C(=O)N([H])C([H])(C([H])([H])[H])C([H])([H])[H])c([H])c2N([H])S(=O)(=O)c2c([H])c([H])c(Cl)c([H])c2Cl)c(OC([H])([H])[H])c1[H]


 40 42  0  0  0  0  0  0  0  0999 V2000
   23.9715    6.5865   53.2050 C   0  0  0  0  0  0  0  0  0  0  0  0
   24.1110    5.3142   53.6889 C   0  0  0  0  0  0  0  0  0  0  0  0
   23.0279    4.4689   53.8309 C   0  0  0  0  0  0  0  0  0  0  0  0
   21.7754    4.9052   53.4814 C   0  0  0  0  0  0  0  0  0  0  0  0
   21.6469    6.1894   52.9954 C   0  0  0  0  0  0  0  0  0  0  0  0
   22.6955    7.0589   52.8393 C   0  0  0  0  0  0  0  0  0  0  0  0
   20.5990    4.0364   53.6124 C   0  0  0  0  0  0  0  0  0  0  0  0
   20.7893    2.7871   53.4880 O   0  0  0  0  0  0  0  0  0  0  0  0
   19.3251    4.5590   53.8633 N   0  0  0  0  0  0  0  0  0  0  0  0
   19.1483    5.5636   53.9703 H   0  0  0  0  0  0  0  0  0  0  0  0
   18.1951    3.6507   53.9829 C   0  0  0  0  0  0  0  0  0  0  0  0
   16.9718    4.5209   54.2143 C   0  0  0  0  0  0  0  0  0  0  0  0
   18.0639    2.8142   52.7466 C   0  0  0  0  0  0  0  0  0  0  0  0
   22.5807    8.3895   52.3530 N   0  0  0  0  0  0  0  0  0  0  0  0
   23.4629    8.9301   52.1340 H   0  0  0  0  0  0  0  0  0  0  0  0
   21.0287    9.0816   52.1356 S   0  0  0  0  0  0  0  0  0  0  0  0
   20.2288    8.3593   51.0572 O   0  0  0  0  0  0  0  0  0  0  0  0
   20.2668    8.9408   53.4593 O   0  0  0  0  0  0  0  0  0  0  0  0
   21.1732   10.7815   51.7642 C   0  0  0  0  0  0  0  0  0  0  0  0
   21.0301   11.2230   50.4803 C   0  0  0  0  0  0  0  0  0  0  0  0
   21.1842   12.5986   50.2589 C   0  0  0  0  0  0  0  0  0  0  0  0
   21.4662   13.4812   51.2677 C   0  0  0  0  0  0  0  0  0  0  0  0
   21.6528   15.1879   50.9674 Cl  0  0  0  0  0  0  0  0  0  0  0  0
   21.6000   12.9818   52.5393 C   0  0  0  0  0  0  0  0  0  0  0  0
   21.4612   11.6533   52.8166 C   0  0  0  0  0  0  0  0  0  0  0  0
   21.6329   11.0065   54.4538 Cl  0  0  0  0  0  0  0  0  0  0  0  0
   25.0540    7.4316   53.0602 O   0  0  0  0  0  0  0  0  0  0  0  0
   25.1234    8.6342   55.1642 C   0  0  0  0  0  0  0  0  0  0  0  0
   25.8964    9.2558   56.1322 C   0  0  0  0  0  0  0  0  0  0  0  0
   27.2772    9.3410   56.0581 C   0  0  0  0  0  0  0  0  0  0  0  0
   27.8900    8.7734   54.9600 C   0  0  0  0  0  0  0  0  0  0  0  0
   27.1406    8.1508   53.9852 C   0  0  0  0  0  0  0  0  0  0  0  0
   25.7413    8.0686   54.0670 C   0  0  0  0  0  0  0  0  0  0  0  0
   23.0366    9.7219   55.7622 C   0  0  0  0  0  0  0  0  0  0  0  0
   23.7335    8.5761   55.2941 O   0  0  0  0  0  0  0  0  0  0  0  0
   28.0951   10.0116   57.1055 C   0  0  0  0  0  0  0  0  0  0  0  0
   28.0210    9.2424   58.3728 C   0  0  0  0  0  0  0  0  0  0  0  0
   27.2290    8.3035   58.5865 O   0  0  0  0  0  0  0  0  0  0  0  0
   28.9151    9.6166   59.3874 O   0  0  0  0  0  0  0  0  0  0  0  0
   29.9043    9.5879   59.1949 H   0  0  0  0  0  0  0  0  0  0  0  0
 34 35  1  0  0  0
 35 28  1  0  0  0
 28 29  2  0  0  0
 29 30  1  0  0  0
 30 36  1  0  0  0
 36 37  1  0  0  0
 37 38  2  0  0  0
 37 39  1  0  0  0
 30 31  2  0  0  0
 31 32  1  0  0  0
 32 33  2  0  0  0
 33 27  1  0  0  0
 27  1  1  0  0  0
  1  2  2  0  0  0
  2  3  1  0  0  0
  3  4  2  0  0  0
  4  7  1  0  0  0
  7  8  2  0  0  0
  7  9  1  0  0  0
  9 11  1  0  0  0
 11 12  1  0  0  0
 11 13  1  0  0  0
  4  5  1  0  0  0
  5  6  2  0  0  0
  6 14  1  0  0  0
 14 16  1  0  0  0
 16 17  2  0  0  0
 16 18  2  0  0  0
 16 19  1  0  0  0
 19 20  2  0  0  0
 20 21  1  0  0  0
 21 22  2  0  0  0
 22 23  1  0  0  0
 22 24  1  0  0  0
 24 25  2  0  0  0
 25 26  1  0  0  0
 33 28  1  0  0  0
  6  1  1  0  0  0
 25 19  1  0  0  0
 39 40  1  0  0  0
  9 10  1  0  0  0
 14 15  1  0  0  0
M  END
> <minimizedAffinity>
24.65166

> <CNNscore>
0.4506612420

> <CNNaffinity>
6.8516440392

> <CNN_VS>
3.0877704620

> <CNNaffinity_variance>
0.5350873470

$$$$
[H]OC(=O)C([H])([H])c1c([H])c([H])c(Oc2c([H])c([H])c(C(=O)N([H])C([H])(C([H])([H])[H])C([H])([H])[H])c([H])c2N([H])S(=O)(=O)c2c([H])c([H])c(Cl)c([H])c2Cl)c(OC([H])([H])[H])c1[H]


 40 42  0  0  0  0  0  0  0  0999 V2000
   24.3564    9.0333   54.7939 C   0  0  0  0  0  0  0  0  0  0  0  0
   24.4795    9.8209   55.9061 C   0  0  0  0  0  0  0  0  0  0  0  0
   25.6410    9.8453   56.6532 C   0  0  0  0  0  0  0  0  0  0  0  0
   26.7049    9.0640   56.2805 C   0  0  0  0  0  0  0  0  0  0  0  0
   26.5692    8.2741   55.1582 C   0  0  0  0  0  0  0  0  0  0  0  0
   25.4346    8.2212   54.3901 C   0  0  0  0  0  0  0  0  0  0  0  0
   27.9587    9.0647   57.0445 C   0  0  0  0  0  0  0  0  0  0  0  0
   29.0388    9.0184   56.3782 O   0  0  0  0  0  0  0  0  0  0  0  0
   27.9658    9.1145   58.4432 N   0  0  0  0  0  0  0  0  0  0  0  0
   27.1065    9.1553   59.0016 H   0  0  0  0  0  0  0  0  0  0  0  0
   29.2384    9.1119   59.1481 C   0  0  0  0  0  0  0  0  0  0  0  0
   29.2818   10.3993   59.9531 C   0  0  0  0  0  0  0  0  0  0  0  0
   29.3497    7.8991   60.0211 C   0  0  0  0  0  0  0  0  0  0  0  0
   25.2716    7.4039   53.2388 N   0  0  0  0  0  0  0  0  0  0  0  0
   25.8685    7.5975   52.3875 H   0  0  0  0  0  0  0  0  0  0  0  0
   24.1206    6.1351   53.2559 S   0  0  0  0  0  0  0  0  0  0  0  0
   24.5639    4.9520   52.4026 O   0  0  0  0  0  0  0  0  0  0  0  0
   23.9881    5.6465   54.7038 O   0  0  0  0  0  0  0  0  0  0  0  0
   22.5635    6.7264   52.7322 C   0  0  0  0  0  0  0  0  0  0  0  0
   22.3900    7.1803   51.4563 C   0  0  0  0  0  0  0  0  0  0  0  0
   21.1173    7.6613   51.1189 C   0  0  0  0  0  0  0  0  0  0  0  0
   20.0778    7.6863   52.0106 C   0  0  0  0  0  0  0  0  0  0  0  0
   18.5037    8.2891   51.5670 Cl  0  0  0  0  0  0  0  0  0  0  0  0
   20.3090    7.2181   53.2800 C   0  0  0  0  0  0  0  0  0  0  0  0
   21.5258    6.7377   53.6669 C   0  0  0  0  0  0  0  0  0  0  0  0
   21.8272    6.1336   55.3017 Cl  0  0  0  0  0  0  0  0  0  0  0  0
   23.1967    9.0101   54.0447 O   0  0  0  0  0  0  0  0  0  0  0  0
   21.6095   10.7726   54.5472 C   0  0  0  0  0  0  0  0  0  0  0  0
   20.8780   11.8556   54.0857 C   0  0  0  0  0  0  0  0  0  0  0  0
   20.9313   12.3013   52.7750 C   0  0  0  0  0  0  0  0  0  0  0  0
   21.7582   11.6197   51.9060 C   0  0  0  0  0  0  0  0  0  0  0  0
   22.4942   10.5397   52.3436 C   0  0  0  0  0  0  0  0  0  0  0  0
   22.4347   10.0934   53.6735 C   0  0  0  0  0  0  0  0  0  0  0  0
   21.0356    9.0673   56.1774 C   0  0  0  0  0  0  0  0  0  0  0  0
   21.5178   10.3702   55.8820 O   0  0  0  0  0  0  0  0  0  0  0  0
   20.1400   13.4663   52.2930 C   0  0  0  0  0  0  0  0  0  0  0  0
   20.9103   14.2080   51.2636 C   0  0  0  0  0  0  0  0  0  0  0  0
   20.4699   15.1720   50.6068 O   0  0  0  0  0  0  0  0  0  0  0  0
   22.2247   13.7756   51.0304 O   0  0  0  0  0  0  0  0  0  0  0  0
   22.8756   13.7700   51.8003 H   0  0  0  0  0  0  0  0  0  0  0  0
 34 35  1  0  0  0
 35 28  1  0  0  0
 28 29  2  0  0  0
 29 30  1  0  0  0
 30 36  1  0  0  0
 36 37  1  0  0  0
 37 38  2  0  0  0
 37 39  1  0  0  0
 30 31  2  0  0  0
 31 32  1  0  0  0
 32 33  2  0  0  0
 33 27  1  0  0  0
 27  1  1  0  0  0
  1  2  2  0  0  0
  2  3  1  0  0  0
  3  4  2  0  0  0
  4  7  1  0  0  0
  7  8  2  0  0  0
  7  9  1  0  0  0
  9 11  1  0  0  0
 11 12  1  0  0  0
 11 13  1  0  0  0
  4  5  1  0  0  0
  5  6  2  0  0  0
  6 14  1  0  0  0
 14 16  1  0  0  0
 16 17  2  0  0  0
 16 18  2  0  0  0
 16 19  1  0  0  0
 19 20  2  0  0  0
 20 21  1  0  0  0
 21 22  2  0  0  0
 22 23  1  0  0  0
 22 24  1  0  0  0
 24 25  2  0  0  0
 25 26  1  0  0  0
 33 28  1  0  0  0
  6  1  1  0  0  0
 25 19  1  0  0  0
 39 40  1  0  0  0
  9 10  1  0  0  0
 14 15  1  0  0  0
M  END
> <minimizedAffinity>
25.44772

> <CNNscore>
0.4396420717

> <CNNaffinity>
6.3874864578

> <CNN_VS>
2.8082077503

> <CNNaffinity_variance>
0.7811676860

$$$$
[H]OC(=O)C([H])([H])c1c([H])c([H])c(Oc2c([H])c([H])c(C(=O)N([H])C([H])(C([H])([H])[H])C([H])([H])[H])c([H])c2N([H])S(=O)(=O)c2c([H])c([H])c(Cl)c([H])c2Cl)c(OC([H])([H])[H])c1[H]


 40 42  0  0  0  0  0  0  0  0999 V2000
   21.1679    7.8653   52.1824 C   0  0  0  0  0  0  0  0  0  0  0  0
   19.8138    7.8566   51.9858 C   0  0  0  0  0  0  0  0  0  0  0  0
   19.0189    6.8292   52.4552 C   0  0  0  0  0  0  0  0  0  0  0  0
   19.5904    5.7854   53.1371 C   0  0  0  0  0  0  0  0  0  0  0  0
   20.9560    5.8046   53.3289 C   0  0  0  0  0  0  0  0  0  0  0  0
   21.7795    6.8046   52.8794 C   0  0  0  0  0  0  0  0  0  0  0  0
   18.7803    4.6765   53.6567 C   0  0  0  0  0  0  0  0  0  0  0  0
   19.3603    3.5553   53.7948 O   0  0  0  0  0  0  0  0  0  0  0  0
   17.4305    4.8452   53.9857 N   0  0  0  0  0  0  0  0  0  0  0  0
   16.9423    5.7415   53.8853 H   0  0  0  0  0  0  0  0  0  0  0  0
   16.6761    3.7106   54.4958 C   0  0  0  0  0  0  0  0  0  0  0  0
   16.4991    3.9519   55.9850 C   0  0  0  0  0  0  0  0  0  0  0  0
   15.3620    3.5948   53.7852 C   0  0  0  0  0  0  0  0  0  0  0  0
   23.1896    6.8351   53.0557 N   0  0  0  0  0  0  0  0  0  0  0  0
   23.8105    6.8341   52.1997 H   0  0  0  0  0  0  0  0  0  0  0  0
   23.8454    6.8716   54.6380 S   0  0  0  0  0  0  0  0  0  0  0  0
   22.8994    7.5366   55.6317 O   0  0  0  0  0  0  0  0  0  0  0  0
   24.0555    5.4205   55.0883 O   0  0  0  0  0  0  0  0  0  0  0  0
   25.3966    7.6731   54.6294 C   0  0  0  0  0  0  0  0  0  0  0  0
   26.4454    7.1414   53.9359 C   0  0  0  0  0  0  0  0  0  0  0  0
   27.6646    7.8304   53.9975 C   0  0  0  0  0  0  0  0  0  0  0  0
   27.8229    8.9869   54.7144 C   0  0  0  0  0  0  0  0  0  0  0  0
   29.3494    9.8261   54.7753 Cl  0  0  0  0  0  0  0  0  0  0  0  0
   26.7348    9.4760   55.3931 C   0  0  0  0  0  0  0  0  0  0  0  0
   25.5229    8.8500   55.3708 C   0  0  0  0  0  0  0  0  0  0  0  0
   24.1186    9.4775   56.2442 Cl  0  0  0  0  0  0  0  0  0  0  0  0
   21.9633    8.8932   51.7158 O   0  0  0  0  0  0  0  0  0  0  0  0
   21.6934   10.7787   53.2158 C   0  0  0  0  0  0  0  0  0  0  0  0
   21.5226   12.1469   53.3572 C   0  0  0  0  0  0  0  0  0  0  0  0
   21.4448   13.0149   52.2803 C   0  0  0  0  0  0  0  0  0  0  0  0
   21.5445   12.4694   51.0170 C   0  0  0  0  0  0  0  0  0  0  0  0
   21.7142   11.1115   50.8533 C   0  0  0  0  0  0  0  0  0  0  0  0
   21.7918   10.2378   51.9496 C   0  0  0  0  0  0  0  0  0  0  0  0
   20.9292   10.2250   55.4529 C   0  0  0  0  0  0  0  0  0  0  0  0
   21.7682    9.9521   54.3397 O   0  0  0  0  0  0  0  0  0  0  0  0
   21.2613   14.4827   52.4470 C   0  0  0  0  0  0  0  0  0  0  0  0
   19.8420   14.8442   52.2057 C   0  0  0  0  0  0  0  0  0  0  0  0
   18.9560   14.8606   53.0828 O   0  0  0  0  0  0  0  0  0  0  0  0
   19.4968   15.1880   50.8898 O   0  0  0  0  0  0  0  0  0  0  0  0
   19.9759   15.9583   50.4498 H   0  0  0  0  0  0  0  0  0  0  0  0
 34 35  1  0  0  0
 35 28  1  0  0  0
 28 29  2  0  0  0
 29 30  1  0  0  0
 30 36  1  0  0  0
 36 37  1  0  0  0
 37 38  2  0  0  0
 37 39  1  0  0  0
 30 31  2  0  0  0
 31 32  1  0  0  0
 32 33  2  0  0  0
 33 27  1  0  0  0
 27  1  1  0  0  0
  1  2  2  0  0  0
  2  3  1  0  0  0
  3  4  2  0  0  0
  4  7  1  0  0  0
  7  8  2  0  0  0
  7  9  1  0  0  0
  9 11  1  0  0  0
 11 12  1  0  0  0
 11 13  1  0  0  0
  4  5  1  0  0  0
  5  6  2  0  0  0
  6 14  1  0  0  0
 14 16  1  0  0  0
 16 17  2  0  0  0
 16 18  2  0  0  0
 16 19  1  0  0  0
 19 20  2  0  0  0
 20 21  1  0  0  0
 21 22  2  0  0  0
 22 23  1  0  0  0
 22 24  1  0  0  0
 24 25  2  0  0  0
 25 26  1  0  0  0
 33 28  1  0  0  0
  6  1  1  0  0  0
 25 19  1  0  0  0
 39 40  1  0  0  0
  9 10  1  0  0  0
 14 15  1  0  0  0
M  END
> <minimizedAffinity>
25.10123

> <CNNscore>
0.4375865459

> <CNNaffinity>
6.7156128883

> <CNN_VS>
2.9386618137

> <CNNaffinity_variance>
0.3497546911

$$$$
[H]OC(=O)C([H])([H])c1c([H])c([H])c(Oc2c([H])c([H])c(C(=O)N([H])C([H])(C([H])([H])[H])C([H])([H])[H])c([H])c2N([H])S(=O)(=O)c2c([H])c([H])c(Cl)c([H])c2Cl)c(OC([H])([H])[H])c1[H]


 40 42  0  0  0  0  0  0  0  0999 V2000
   25.6788    7.7036   53.8138 C   0  0  0  0  0  0  0  0  0  0  0  0
   26.9684    8.0650   53.5337 C   0  0  0  0  0  0  0  0  0  0  0  0
   27.7395    8.7645   54.4414 C   0  0  0  0  0  0  0  0  0  0  0  0
   27.2095    9.1116   55.6579 C   0  0  0  0  0  0  0  0  0  0  0  0
   25.9086    8.7425   55.9289 C   0  0  0  0  0  0  0  0  0  0  0  0
   25.1107    8.0485   55.0561 C   0  0  0  0  0  0  0  0  0  0  0  0
   27.9972    9.8508   56.6523 C   0  0  0  0  0  0  0  0  0  0  0  0
   28.5903   10.9001   56.2524 O   0  0  0  0  0  0  0  0  0  0  0  0
   28.0913    9.4209   57.9809 N   0  0  0  0  0  0  0  0  0  0  0  0
   27.6189    8.5788   58.3267 H   0  0  0  0  0  0  0  0  0  0  0  0
   28.8869   10.1927   58.9231 C   0  0  0  0  0  0  0  0  0  0  0  0
   28.2191   11.5528   59.0302 C   0  0  0  0  0  0  0  0  0  0  0  0
   28.9533    9.4934   60.2467 C   0  0  0  0  0  0  0  0  0  0  0  0
   23.7645    7.6711   55.3123 N   0  0  0  0  0  0  0  0  0  0  0  0
   23.5063    6.6463   55.2746 H   0  0  0  0  0  0  0  0  0  0  0  0
   22.6004    8.8754   55.6723 S   0  0  0  0  0  0  0  0  0  0  0  0
   21.3466    8.2843   56.3071 O   0  0  0  0  0  0  0  0  0  0  0  0
   23.2284    9.8420   56.6842 O   0  0  0  0  0  0  0  0  0  0  0  0
   22.1984    9.7754   54.2311 C   0  0  0  0  0  0  0  0  0  0  0  0
   22.7409    9.4301   53.0268 C   0  0  0  0  0  0  0  0  0  0  0  0
   22.3885   10.2157   51.9207 C   0  0  0  0  0  0  0  0  0  0  0  0
   21.5405   11.2871   52.0170 C   0  0  0  0  0  0  0  0  0  0  0  0
   21.1168   12.2489   50.6265 Cl  0  0  0  0  0  0  0  0  0  0  0  0
   21.0250   11.5892   53.2527 C   0  0  0  0  0  0  0  0  0  0  0  0
   21.3309   10.8617   54.3654 C   0  0  0  0  0  0  0  0  0  0  0  0
   20.6683   11.2481   55.9591 Cl  0  0  0  0  0  0  0  0  0  0  0  0
   24.9078    7.0019   52.9082 O   0  0  0  0  0  0  0  0  0  0  0  0
   23.1415    5.7676   54.0193 C   0  0  0  0  0  0  0  0  0  0  0  0
   21.7902    5.4681   54.0925 C   0  0  0  0  0  0  0  0  0  0  0  0
   20.8471    6.0122   53.2359 C   0  0  0  0  0  0  0  0  0  0  0  0
   21.2972    6.8911   52.2723 C   0  0  0  0  0  0  0  0  0  0  0  0
   22.6366    7.2027   52.1812 C   0  0  0  0  0  0  0  0  0  0  0  0
   23.5868    6.6469   53.0529 C   0  0  0  0  0  0  0  0  0  0  0  0
   23.5718    4.7170   56.1655 C   0  0  0  0  0  0  0  0  0  0  0  0
   24.0467    5.1902   54.9132 O   0  0  0  0  0  0  0  0  0  0  0  0
   19.3986    5.6815   53.3261 C   0  0  0  0  0  0  0  0  0  0  0  0
   19.2254    4.2184   53.5066 C   0  0  0  0  0  0  0  0  0  0  0  0
   19.9419    3.3489   52.9726 O   0  0  0  0  0  0  0  0  0  0  0  0
   18.1747    3.8090   54.3416 O   0  0  0  0  0  0  0  0  0  0  0  0
   18.1632    4.1300   55.2972 H   0  0  0  0  0  0  0  0  0  0  0  0
 34 35  1  0  0  0
 35 28  1  0  0  0
 28 29  2  0  0  0
 29 30  1  0  0  0
 30 36  1  0  0  0
 36 37  1  0  0  0
 37 38  2  0  0  0
 37 39  1  0  0  0
 30 31  2  0  0  0
 31 32  1  0  0  0
 32 33  2  0  0  0
 33 27  1  0  0  0
 27  1  1  0  0  0
  1  2  2  0  0  0
  2  3  1  0  0  0
  3  4  2  0  0  0
  4  7  1  0  0  0
  7  8  2  0  0  0
  7  9  1  0  0  0
  9 11  1  0  0  0
 11 12  1  0  0  0
 11 13  1  0  0  0
  4  5  1  0  0  0
  5  6  2  0  0  0
  6 14  1  0  0  0
 14 16  1  0  0  0
 16 17  2  0  0  0
 16 18  2  0  0  0
 16 19  1  0  0  0
 19 20  2  0  0  0
 20 21  1  0  0  0
 21 22  2  0  0  0
 22 23  1  0  0  0
 22 24  1  0  0  0
 24 25  2  0  0  0
 25 26  1  0  0  0
 33 28  1  0  0  0
  6  1  1  0  0  0
 25 19  1  0  0  0
 39 40  1  0  0  0
  9 10  1  0  0  0
 14 15  1  0  0  0
M  END
> <minimizedAffinity>
18.29055

> <CNNscore>
0.4191769958

> <CNNaffinity>
6.9623804092

> <CNN_VS>
2.9184696674

> <CNNaffinity_variance>
0.5605820417

$$$$
[H]c1c([H])c([H])c(N([H])c2nc3c([H])nc(N([H])c4c([H])c([H])c(OC([H])([H])[H])c([H])c4[H])nc3n2C([H])(C([H])([H])[H])C([H])([H])[H])c(F)c1[H]


 31 34  0  0  0  0  0  0  0  0999 V2000
   23.2630    8.4603   52.7626 C   0  0  0  0  0  0  0  0  0  0  0  0
   22.3143    8.6723   51.8512 N   0  0  0  0  0  0  0  0  0  0  0  0
   21.1634    8.0107   51.7453 C   0  0  0  0  0  0  0  0  0  0  0  0
   20.9037    7.0044   52.6540 C   0  0  0  0  0  0  0  0  0  0  0  0
   19.8891    6.1555   52.8497 N   0  0  0  0  0  0  0  0  0  0  0  0
   20.1736    5.3760   53.9020 C   0  0  0  0  0  0  0  0  0  0  0  0
   21.3933    5.7214   54.4012 N   0  0  0  0  0  0  0  0  0  0  0  0
   21.8403    6.7332   53.6210 C   0  0  0  0  0  0  0  0  0  0  0  0
   22.9690    7.4489   53.6521 N   0  0  0  0  0  0  0  0  0  0  0  0
   22.0953    5.1413   55.5360 C   0  0  0  0  0  0  0  0  0  0  0  0
   21.6039    5.7096   56.8532 C   0  0  0  0  0  0  0  0  0  0  0  0
   23.5845    5.2315   55.3942 C   0  0  0  0  0  0  0  0  0  0  0  0
   24.4687    9.1537   52.8734 N   0  0  0  0  0  0  0  0  0  0  0  0
   24.7115    9.8394   52.0933 H   0  0  0  0  0  0  0  0  0  0  0  0
   27.4433    8.7972   55.8655 C   0  0  0  0  0  0  0  0  0  0  0  0
   26.1407    9.0746   56.2002 C   0  0  0  0  0  0  0  0  0  0  0  0
   25.1412    9.1895   55.2377 C   0  0  0  0  0  0  0  0  0  0  0  0
   25.3993    9.0344   53.9142 C   0  0  0  0  0  0  0  0  0  0  0  0
   26.7523    8.7473   53.5839 C   0  0  0  0  0  0  0  0  0  0  0  0
   27.7107    8.6386   54.5308 C   0  0  0  0  0  0  0  0  0  0  0  0
   28.1473    9.0924   58.1536 C   0  0  0  0  0  0  0  0  0  0  0  0
   28.4281    8.6856   56.8351 O   0  0  0  0  0  0  0  0  0  0  0  0
   19.3610    4.3508   54.4344 N   0  0  0  0  0  0  0  0  0  0  0  0
   19.7889    3.8354   55.2766 H   0  0  0  0  0  0  0  0  0  0  0  0
   18.0940    3.9185   54.0242 C   0  0  0  0  0  0  0  0  0  0  0  0
   16.8982    4.4417   54.4517 C   0  0  0  0  0  0  0  0  0  0  0  0
   15.6875    3.9223   53.9668 C   0  0  0  0  0  0  0  0  0  0  0  0
   15.6637    2.8876   53.0610 C   0  0  0  0  0  0  0  0  0  0  0  0
   16.8532    2.3494   52.6201 C   0  0  0  0  0  0  0  0  0  0  0  0
   18.0090    2.8619   53.0977 C   0  0  0  0  0  0  0  0  0  0  0  0
   19.1695    2.2995   52.6351 F   0  0  0  0  0  0  0  0  0  0  0  0
 21 22  1  0  0  0
 22 15  1  0  0  0
 15 16  2  0  0  0
 16 17  1  0  0  0
 17 18  2  0  0  0
 18 13  1  0  0  0
 13  1  1  0  0  0
  1  2  2  0  0  0
  2  3  1  0  0  0
  3  4  2  0  0  0
  4  5  1  0  0  0
  5  6  2  0  0  0
  6 23  1  0  0  0
 23 25  1  0  0  0
 25 26  2  0  0  0
 26 27  1  0  0  0
 27 28  2  0  0  0
 28 29  1  0  0  0
 29 30  2  0  0  0
 30 31  1  0  0  0
  6  7  1  0  0  0
  7 10  1  0  0  0
 10 11  1  0  0  0
 10 12  1  0  0  0
  7  8  1  0  0  0
  8  9  2  0  0  0
 18 19  1  0  0  0
 19 20  2  0  0  0
 20 15  1  0  0  0
  9  1  1  0  0  0
  8  4  1  0  0  0
 30 25  1  0  0  0
 13 14  1  0  0  0
 23 24  1  0  0  0
M  END
> <minimizedAffinity>
26.81978

> <CNNscore>
0.5957302451

> <CNNaffinity>
6.5794539452

> <CNN_VS>
3.9195797443

> <CNNaffinity_variance>
0.2265583575

$$$$
[H]c1c([H])c([H])c(N([H])c2nc3c([H])nc(N([H])c4c([H])c([H])c(OC([H])([H])[H])c([H])c4[H])nc3n2C([H])(C([H])([H])[H])C([H])([H])[H])c(F)c1[H]


 31 34  0  0  0  0  0  0  0  0999 V2000
   27.3624    9.1725   52.1888 C   0  0  0  0  0  0  0  0  0  0  0  0
   27.9962    8.5909   53.2066 N   0  0  0  0  0  0  0  0  0  0  0  0
   27.4333    7.8722   54.1762 C   0  0  0  0  0  0  0  0  0  0  0  0
   26.0642    7.6977   54.1477 C   0  0  0  0  0  0  0  0  0  0  0  0
   25.1830    7.0603   54.9259 N   0  0  0  0  0  0  0  0  0  0  0  0
   23.9553    7.2244   54.4142 C   0  0  0  0  0  0  0  0  0  0  0  0
   24.0363    7.9810   53.2841 N   0  0  0  0  0  0  0  0  0  0  0  0
   25.3489    8.2710   53.1252 C   0  0  0  0  0  0  0  0  0  0  0  0
   25.9978    8.9768   52.1935 N   0  0  0  0  0  0  0  0  0  0  0  0
   22.9541    8.4052   52.4090 C   0  0  0  0  0  0  0  0  0  0  0  0
   22.1457    9.5341   53.0187 C   0  0  0  0  0  0  0  0  0  0  0  0
   22.0943    7.2604   51.9662 C   0  0  0  0  0  0  0  0  0  0  0  0
   27.9524    9.9253   51.1730 N   0  0  0  0  0  0  0  0  0  0  0  0
   28.2811   10.9091   51.4217 H   0  0  0  0  0  0  0  0  0  0  0  0
   28.6271    8.4841   47.2492 C   0  0  0  0  0  0  0  0  0  0  0  0
   27.9490    9.6599   47.4583 C   0  0  0  0  0  0  0  0  0  0  0  0
   27.7201   10.1609   48.7370 C   0  0  0  0  0  0  0  0  0  0  0  0
   28.1538    9.5141   49.8487 C   0  0  0  0  0  0  0  0  0  0  0  0
   28.8543    8.2987   49.6156 C   0  0  0  0  0  0  0  0  0  0  0  0
   29.0686    7.8263   48.3674 C   0  0  0  0  0  0  0  0  0  0  0  0
   28.8752    8.8954   44.8854 C   0  0  0  0  0  0  0  0  0  0  0  0
   28.8477    7.9975   45.9698 O   0  0  0  0  0  0  0  0  0  0  0  0
   22.7492    6.7089   54.9378 N   0  0  0  0  0  0  0  0  0  0  0  0
   21.8709    6.9704   54.3737 H   0  0  0  0  0  0  0  0  0  0  0  0
   22.5409    5.9160   56.0729 C   0  0  0  0  0  0  0  0  0  0  0  0
   21.6097    6.1591   57.0529 C   0  0  0  0  0  0  0  0  0  0  0  0
   21.4945    5.2884   58.1480 C   0  0  0  0  0  0  0  0  0  0  0  0
   22.3006    4.1806   58.2700 C   0  0  0  0  0  0  0  0  0  0  0  0
   23.2409    3.9198   57.2970 C   0  0  0  0  0  0  0  0  0  0  0  0
   23.3376    4.7689   56.2500 C   0  0  0  0  0  0  0  0  0  0  0  0
   24.2844    4.4749   55.3044 F   0  0  0  0  0  0  0  0  0  0  0  0
 21 22  1  0  0  0
 22 15  1  0  0  0
 15 16  2  0  0  0
 16 17  1  0  0  0
 17 18  2  0  0  0
 18 13  1  0  0  0
 13  1  1  0  0  0
  1  2  2  0  0  0
  2  3  1  0  0  0
  3  4  2  0  0  0
  4  5  1  0  0  0
  5  6  2  0  0  0
  6 23  1  0  0  0
 23 25  1  0  0  0
 25 26  2  0  0  0
 26 27  1  0  0  0
 27 28  2  0  0  0
 28 29  1  0  0  0
 29 30  2  0  0  0
 30 31  1  0  0  0
  6  7  1  0  0  0
  7 10  1  0  0  0
 10 11  1  0  0  0
 10 12  1  0  0  0
  7  8  1  0  0  0
  8  9  2  0  0  0
 18 19  1  0  0  0
 19 20  2  0  0  0
 20 15  1  0  0  0
  9  1  1  0  0  0
  8  4  1  0  0  0
 30 25  1  0  0  0
 13 14  1  0  0  0
 23 24  1  0  0  0
M  END
> <minimizedAffinity>
35.02598

> <CNNscore>
0.5471910834

> <CNNaffinity>
6.1226067543

> <CNN_VS>
3.3502359390

> <CNNaffinity_variance>
0.1367606670

$$$$
[H]c1c([H])c([H])c(N([H])c2nc3c([H])nc(N([H])c4c([H])c([H])c(OC([H])([H])[H])c([H])c4[H])nc3n2C([H])(C([H])([H])[H])C([H])([H])[H])c(F)c1[H]


 31 34  0  0  0  0  0  0  0  0999 V2000
   27.9217    9.4360   52.2337 C   0  0  0  0  0  0  0  0  0  0  0  0
   28.5263    9.1530   53.3870 N   0  0  0  0  0  0  0  0  0  0  0  0
   27.9824    8.5217   54.4259 C   0  0  0  0  0  0  0  0  0  0  0  0
   26.6685    8.1106   54.3243 C   0  0  0  0  0  0  0  0  0  0  0  0
   25.8199    7.4709   55.1360 N   0  0  0  0  0  0  0  0  0  0  0  0
   24.6434    7.3314   54.5095 C   0  0  0  0  0  0  0  0  0  0  0  0
   24.7253    7.8890   53.2692 N   0  0  0  0  0  0  0  0  0  0  0  0
   25.9857    8.3708   53.1616 C   0  0  0  0  0  0  0  0  0  0  0  0
   26.6119    9.0109   52.1689 N   0  0  0  0  0  0  0  0  0  0  0  0
   23.6898    7.9659   52.2500 C   0  0  0  0  0  0  0  0  0  0  0  0
   22.6922    9.0700   52.5421 C   0  0  0  0  0  0  0  0  0  0  0  0
   23.0257    6.6443   52.0084 C   0  0  0  0  0  0  0  0  0  0  0  0
   28.4917   10.0974   51.1454 N   0  0  0  0  0  0  0  0  0  0  0  0
   28.9442   11.0451   51.3318 H   0  0  0  0  0  0  0  0  0  0  0  0
   28.6377    8.5018   47.2260 C   0  0  0  0  0  0  0  0  0  0  0  0
   28.1448    9.7635   47.4524 C   0  0  0  0  0  0  0  0  0  0  0  0
   28.0925   10.3157   48.7295 C   0  0  0  0  0  0  0  0  0  0  0  0
   28.5252    9.6369   49.8223 C   0  0  0  0  0  0  0  0  0  0  0  0
   29.0328    8.3325   49.5714 C   0  0  0  0  0  0  0  0  0  0  0  0
   29.0771    7.8112   48.3251 C   0  0  0  0  0  0  0  0  0  0  0  0
   28.5784    8.8217   44.8360 C   0  0  0  0  0  0  0  0  0  0  0  0
   28.6837    7.9649   45.9485 O   0  0  0  0  0  0  0  0  0  0  0  0
   23.4838    6.7108   55.0243 N   0  0  0  0  0  0  0  0  0  0  0  0
   23.6611    6.0636   55.8656 H   0  0  0  0  0  0  0  0  0  0  0  0
   22.1546    6.8196   54.5979 C   0  0  0  0  0  0  0  0  0  0  0  0
   21.4668    5.8663   53.8876 C   0  0  0  0  0  0  0  0  0  0  0  0
   20.1320    6.0907   53.5152 C   0  0  0  0  0  0  0  0  0  0  0  0
   19.4824    7.2569   53.8465 C   0  0  0  0  0  0  0  0  0  0  0  0
   20.1557    8.2254   54.5589 C   0  0  0  0  0  0  0  0  0  0  0  0
   21.4402    7.9922   54.9088 C   0  0  0  0  0  0  0  0  0  0  0  0
   22.0745    8.9792   55.6162 F   0  0  0  0  0  0  0  0  0  0  0  0
 21 22  1  0  0  0
 22 15  1  0  0  0
 15 16  2  0  0  0
 16 17  1  0  0  0
 17 18  2  0  0  0
 18 13  1  0  0  0
 13  1  1  0  0  0
  1  2  2  0  0  0
  2  3  1  0  0  0
  3  4  2  0  0  0
  4  5  1  0  0  0
  5  6  2  0  0  0
  6 23  1  0  0  0
 23 25  1  0  0  0
 25 26  2  0  0  0
 26 27  1  0  0  0
 27 28  2  0  0  0
 28 29  1  0  0  0
 29 30  2  0  0  0
 30 31  1  0  0  0
  6  7  1  0  0  0
  7 10  1  0  0  0
 10 11  1  0  0  0
 10 12  1  0  0  0
  7  8  1  0  0  0
  8  9  2  0  0  0
 18 19  1  0  0  0
 19 20  2  0  0  0
 20 15  1  0  0  0
  9  1  1  0  0  0
  8  4  1  0  0  0
 30 25  1  0  0  0
 13 14  1  0  0  0
 23 24  1  0  0  0
M  END
> <minimizedAffinity>
22.50973

> <CNNscore>
0.5455414057

> <CNNaffinity>
6.3083820343

> <CNN_VS>
3.4414834976

> <CNNaffinity_variance>
0.1177753061

$$$$
[H]c1c([H])c([H])c(N([H])c2nc3c([H])nc(N([H])c4c([H])c([H])c(OC([H])([H])[H])c([H])c4[H])nc3n2C([H])(C([H])([H])[H])C([H])([H])[H])c(F)c1[H]


 31 34  0  0  0  0  0  0  0  0999 V2000
   20.4363    6.6388   52.9865 C   0  0  0  0  0  0  0  0  0  0  0  0
   20.3408    6.7954   51.6666 N   0  0  0  0  0  0  0  0  0  0  0  0
   20.5943    7.9121   50.9867 C   0  0  0  0  0  0  0  0  0  0  0  0
   20.9960    9.0285   51.6926 C   0  0  0  0  0  0  0  0  0  0  0  0
   21.3262   10.2808   51.3595 N   0  0  0  0  0  0  0  0  0  0  0  0
   21.6426   10.9559   52.4731 C   0  0  0  0  0  0  0  0  0  0  0  0
   21.5169   10.1313   53.5502 N   0  0  0  0  0  0  0  0  0  0  0  0
   21.1150    8.9362   53.0575 C   0  0  0  0  0  0  0  0  0  0  0  0
   20.8396    7.7736   53.6573 N   0  0  0  0  0  0  0  0  0  0  0  0
   21.7576   10.4421   54.9511 C   0  0  0  0  0  0  0  0  0  0  0  0
   22.8771    9.5997   55.5312 C   0  0  0  0  0  0  0  0  0  0  0  0
   20.5071   10.3769   55.7745 C   0  0  0  0  0  0  0  0  0  0  0  0
   20.1708    5.4687   53.6985 N   0  0  0  0  0  0  0  0  0  0  0  0
   20.9525    5.0827   54.3132 H   0  0  0  0  0  0  0  0  0  0  0  0
   16.6619    3.1018   53.5825 C   0  0  0  0  0  0  0  0  0  0  0  0
   16.6562    4.3365   54.1836 C   0  0  0  0  0  0  0  0  0  0  0  0
   17.7933    5.1388   54.2293 C   0  0  0  0  0  0  0  0  0  0  0  0
   18.9713    4.7445   53.6826 C   0  0  0  0  0  0  0  0  0  0  0  0
   18.9609    3.4642   53.0638 C   0  0  0  0  0  0  0  0  0  0  0  0
   17.8481    2.6978   53.0277 C   0  0  0  0  0  0  0  0  0  0  0  0
   15.6443    0.9350   53.2862 C   0  0  0  0  0  0  0  0  0  0  0  0
   15.5217    2.3138   53.5447 O   0  0  0  0  0  0  0  0  0  0  0  0
   22.0458   12.3071   52.5525 N   0  0  0  0  0  0  0  0  0  0  0  0
   23.0012   12.4599   53.0236 H   0  0  0  0  0  0  0  0  0  0  0  0
   21.3843   13.4589   52.1095 C   0  0  0  0  0  0  0  0  0  0  0  0
   21.6939   14.1667   50.9739 C   0  0  0  0  0  0  0  0  0  0  0  0
   20.9552   15.3106   50.6324 C   0  0  0  0  0  0  0  0  0  0  0  0
   19.9131   15.7502   51.4151 C   0  0  0  0  0  0  0  0  0  0  0  0
   19.5873   15.0534   52.5584 C   0  0  0  0  0  0  0  0  0  0  0  0
   20.3093   13.9547   52.8715 C   0  0  0  0  0  0  0  0  0  0  0  0
   19.9541   13.2900   54.0157 F   0  0  0  0  0  0  0  0  0  0  0  0
 21 22  1  0  0  0
 22 15  1  0  0  0
 15 16  2  0  0  0
 16 17  1  0  0  0
 17 18  2  0  0  0
 18 13  1  0  0  0
 13  1  1  0  0  0
  1  2  2  0  0  0
  2  3  1  0  0  0
  3  4  2  0  0  0
  4  5  1  0  0  0
  5  6  2  0  0  0
  6 23  1  0  0  0
 23 25  1  0  0  0
 25 26  2  0  0  0
 26 27  1  0  0  0
 27 28  2  0  0  0
 28 29  1  0  0  0
 29 30  2  0  0  0
 30 31  1  0  0  0
  6  7  1  0  0  0
  7 10  1  0  0  0
 10 11  1  0  0  0
 10 12  1  0  0  0
  7  8  1  0  0  0
  8  9  2  0  0  0
 18 19  1  0  0  0
 19 20  2  0  0  0
 20 15  1  0  0  0
  9  1  1  0  0  0
  8  4  1  0  0  0
 30 25  1  0  0  0
 13 14  1  0  0  0
 23 24  1  0  0  0
M  END
> <minimizedAffinity>
30.72212

> <CNNscore>
0.4967357218

> <CNNaffinity>
6.2650203705

> <CNN_VS>
3.1120593548

> <CNNaffinity_variance>
0.1300894916

$$$$
[H]c1c([H])c([H])c(N([H])c2nc3c([H])nc(N([H])c4c([H])c([H])c(OC([H])([H])[H])c([H])c4[H])nc3n2C([H])(C([H])([H])[H])C([H])([H])[H])c(F)c1[H]


 31 34  0  0  0  0  0  0  0  0999 V2000
   23.4518    9.8018   55.5677 C   0  0  0  0  0  0  0  0  0  0  0  0
   22.3484   10.5468   55.5098 N   0  0  0  0  0  0  0  0  0  0  0  0
   21.1733   10.1740   55.0060 C   0  0  0  0  0  0  0  0  0  0  0  0
   21.0606    8.8993   54.4881 C   0  0  0  0  0  0  0  0  0  0  0  0
   20.0720    8.2017   53.9186 N   0  0  0  0  0  0  0  0  0  0  0  0
   20.5302    6.9838   53.5983 C   0  0  0  0  0  0  0  0  0  0  0  0
   21.8387    6.8847   53.9643 N   0  0  0  0  0  0  0  0  0  0  0  0
   22.1609    8.0780   54.5161 C   0  0  0  0  0  0  0  0  0  0  0  0
   23.3014    8.5364   55.0417 N   0  0  0  0  0  0  0  0  0  0  0  0
   22.7304    5.7457   53.8076 C   0  0  0  0  0  0  0  0  0  0  0  0
   23.4154    5.3826   55.1108 C   0  0  0  0  0  0  0  0  0  0  0  0
   23.7029    5.9311   52.6826 C   0  0  0  0  0  0  0  0  0  0  0  0
   24.6827   10.1925   56.0958 N   0  0  0  0  0  0  0  0  0  0  0  0
   24.6820   11.0032   56.7890 H   0  0  0  0  0  0  0  0  0  0  0  0
   28.3690    8.4216   54.9989 C   0  0  0  0  0  0  0  0  0  0  0  0
   28.2636    9.1704   56.1452 C   0  0  0  0  0  0  0  0  0  0  0  0
   27.0622    9.7574   56.5338 C   0  0  0  0  0  0  0  0  0  0  0  0
   25.9283    9.6227   55.8002 C   0  0  0  0  0  0  0  0  0  0  0  0
   26.0537    8.8444   54.6166 C   0  0  0  0  0  0  0  0  0  0  0  0
   27.2275    8.2809   54.2538 C   0  0  0  0  0  0  0  0  0  0  0  0
   29.5749    6.8249   53.6518 C   0  0  0  0  0  0  0  0  0  0  0  0
   29.5722    7.8430   54.6246 O   0  0  0  0  0  0  0  0  0  0  0  0
   19.7997    5.9454   52.9794 N   0  0  0  0  0  0  0  0  0  0  0  0
   20.1743    5.6513   52.0144 H   0  0  0  0  0  0  0  0  0  0  0  0
   18.6721    5.2556   53.4409 C   0  0  0  0  0  0  0  0  0  0  0  0
   17.4720    5.8307   53.7808 C   0  0  0  0  0  0  0  0  0  0  0  0
   16.4099    5.0316   54.2328 C   0  0  0  0  0  0  0  0  0  0  0  0
   16.5385    3.6670   54.3469 C   0  0  0  0  0  0  0  0  0  0  0  0
   17.7348    3.0715   54.0106 C   0  0  0  0  0  0  0  0  0  0  0  0
   18.7463    3.8564   53.5775 C   0  0  0  0  0  0  0  0  0  0  0  0
   19.9189    3.2264   53.2532 F   0  0  0  0  0  0  0  0  0  0  0  0
 21 22  1  0  0  0
 22 15  1  0  0  0
 15 16  2  0  0  0
 16 17  1  0  0  0
 17 18  2  0  0  0
 18 13  1  0  0  0
 13  1  1  0  0  0
  1  2  2  0  0  0
  2  3  1  0  0  0
  3  4  2  0  0  0
  4  5  1  0  0  0
  5  6  2  0  0  0
  6 23  1  0  0  0
 23 25  1  0  0  0
 25 26  2  0  0  0
 26 27  1  0  0  0
 27 28  2  0  0  0
 28 29  1  0  0  0
 29 30  2  0  0  0
 30 31  1  0  0  0
  6  7  1  0  0  0
  7 10  1  0  0  0
 10 11  1  0  0  0
 10 12  1  0  0  0
  7  8  1  0  0  0
  8  9  2  0  0  0
 18 19  1  0  0  0
 19 20  2  0  0  0
 20 15  1  0  0  0
  9  1  1  0  0  0
  8  4  1  0  0  0
 30 25  1  0  0  0
 13 14  1  0  0  0
 23 24  1  0  0  0
M  END
> <minimizedAffinity>
20.91436

> <CNNscore>
0.4909950793

> <CNNaffinity>
6.4386839867

> <CNN_VS>
3.1613621712

> <CNNaffinity_variance>
0.2816531956

$$$$
[H]c1c([H])c([H])c(N([H])c2nc3c([H])nc(N([H])c4c([H])c([H])c(OC([H])([H])[H])c([H])c4[H])nc3n2C([H])(C([H])([H])[H])C([H])([H])[H])c(F)c1[H]


 31 34  0  0  0  0  0  0  0  0999 V2000
   20.4222    5.0780   53.4118 C   0  0  0  0  0  0  0  0  0  0  0  0
   21.4913    4.2826   53.4011 N   0  0  0  0  0  0  0  0  0  0  0  0
   22.7503    4.6542   53.6256 C   0  0  0  0  0  0  0  0  0  0  0  0
   22.9989    5.9846   53.8977 C   0  0  0  0  0  0  0  0  0  0  0  0
   24.0979    6.6985   54.1642 N   0  0  0  0  0  0  0  0  0  0  0  0
   23.7477    7.9783   54.3523 C   0  0  0  0  0  0  0  0  0  0  0  0
   22.3988    8.1019   54.2063 N   0  0  0  0  0  0  0  0  0  0  0  0
   21.9410    6.8597   53.9241 C   0  0  0  0  0  0  0  0  0  0  0  0
   20.7090    6.3980   53.6868 N   0  0  0  0  0  0  0  0  0  0  0  0
   21.5903    9.3058   54.3235 C   0  0  0  0  0  0  0  0  0  0  0  0
   21.5776   10.1041   53.0343 C   0  0  0  0  0  0  0  0  0  0  0  0
   21.9738   10.1393   55.5085 C   0  0  0  0  0  0  0  0  0  0  0  0
   19.1032    4.6884   53.1768 N   0  0  0  0  0  0  0  0  0  0  0  0
   18.7412    4.7672   52.1765 H   0  0  0  0  0  0  0  0  0  0  0  0
   16.5484    3.1941   56.2047 C   0  0  0  0  0  0  0  0  0  0  0  0
   16.0319    3.8098   55.0912 C   0  0  0  0  0  0  0  0  0  0  0  0
   16.8482    4.3032   54.0769 C   0  0  0  0  0  0  0  0  0  0  0  0
   18.2007    4.2037   54.1329 C   0  0  0  0  0  0  0  0  0  0  0  0
   18.7199    3.5635   55.2916 C   0  0  0  0  0  0  0  0  0  0  0  0
   17.9134    3.0895   56.2673 C   0  0  0  0  0  0  0  0  0  0  0  0
   15.3126    3.5696   58.2419 C   0  0  0  0  0  0  0  0  0  0  0  0
   15.7230    2.7075   57.2069 O   0  0  0  0  0  0  0  0  0  0  0  0
   24.6136    9.0523   54.6550 N   0  0  0  0  0  0  0  0  0  0  0  0
   24.1601   10.0252   54.5786 H   0  0  0  0  0  0  0  0  0  0  0  0
   25.9609    9.0268   55.0352 C   0  0  0  0  0  0  0  0  0  0  0  0
   26.4382    9.3107   56.2914 C   0  0  0  0  0  0  0  0  0  0  0  0
   27.8163    9.2513   56.5524 C   0  0  0  0  0  0  0  0  0  0  0  0
   28.7172    8.9113   55.5703 C   0  0  0  0  0  0  0  0  0  0  0  0
   28.2576    8.6230   54.3036 C   0  0  0  0  0  0  0  0  0  0  0  0
   26.9278    8.6853   54.0706 C   0  0  0  0  0  0  0  0  0  0  0  0
   26.5111    8.3918   52.7988 F   0  0  0  0  0  0  0  0  0  0  0  0
 21 22  1  0  0  0
 22 15  1  0  0  0
 15 16  2  0  0  0
 16 17  1  0  0  0
 17 18  2  0  0  0
 18 13  1  0  0  0
 13  1  1  0  0  0
  1  2  2  0  0  0
  2  3  1  0  0  0
  3  4  2  0  0  0
  4  5  1  0  0  0
  5  6  2  0  0  0
  6 23  1  0  0  0
 23 25  1  0  0  0
 25 26  2  0  0  0
 26 27  1  0  0  0
 27 28  2  0  0  0
 28 29  1  0  0  0
 29 30  2  0  0  0
 30 31  1  0  0  0
  6  7  1  0  0  0
  7 10  1  0  0  0
 10 11  1  0  0  0
 10 12  1  0  0  0
  7  8  1  0  0  0
  8  9  2  0  0  0
 18 19  1  0  0  0
 19 20  2  0  0  0
 20 15  1  0  0  0
  9  1  1  0  0  0
  8  4  1  0  0  0
 30 25  1  0  0  0
 13 14  1  0  0  0
 23 24  1  0  0  0
M  END
> <minimizedAffinity>
21.58936

> <CNNscore>
0.4842969477

> <CNNaffinity>
6.6596498489

> <CNN_VS>
3.2252480984

> <CNNaffinity_variance>
0.3105010390

$$$$
[H]c1c([H])c([H])c(N([H])c2nc3c([H])nc(N([H])c4c([H])c([H])c(OC([H])([H])[H])c([H])c4[H])nc3n2C([H])(C([H])([H])[H])C([H])([H])[H])c(F)c1[H]


 31 34  0  0  0  0  0  0  0  0999 V2000
   23.7972    8.2007   53.8493 C   0  0  0  0  0  0  0  0  0  0  0  0
   24.5290    7.2014   53.3578 N   0  0  0  0  0  0  0  0  0  0  0  0
   25.7799    6.8997   53.7012 C   0  0  0  0  0  0  0  0  0  0  0  0
   26.4007    7.6809   54.6553 C   0  0  0  0  0  0  0  0  0  0  0  0
   27.6083    7.6781   55.2297 N   0  0  0  0  0  0  0  0  0  0  0  0
   27.6717    8.6872   56.1093 C   0  0  0  0  0  0  0  0  0  0  0  0
   26.4867    9.3594   56.1091 N   0  0  0  0  0  0  0  0  0  0  0  0
   25.7027    8.7286   55.2037 C   0  0  0  0  0  0  0  0  0  0  0  0
   24.4495    8.9583   54.7985 N   0  0  0  0  0  0  0  0  0  0  0  0
   26.1124   10.5181   56.9055 C   0  0  0  0  0  0  0  0  0  0  0  0
   24.6968   10.9732   56.6080 C   0  0  0  0  0  0  0  0  0  0  0  0
   27.1070   11.6337   56.7948 C   0  0  0  0  0  0  0  0  0  0  0  0
   22.4867    8.5165   53.4894 N   0  0  0  0  0  0  0  0  0  0  0  0
   21.7451    7.7637   53.6346 H   0  0  0  0  0  0  0  0  0  0  0  0
   21.0949   12.0798   51.6745 C   0  0  0  0  0  0  0  0  0  0  0  0
   21.4243   12.0533   53.0074 C   0  0  0  0  0  0  0  0  0  0  0  0
   21.8917   10.8977   53.6278 C   0  0  0  0  0  0  0  0  0  0  0  0
   22.0471    9.7325   52.9494 C   0  0  0  0  0  0  0  0  0  0  0  0
   21.7022    9.7763   51.5705 C   0  0  0  0  0  0  0  0  0  0  0  0
   21.2501   10.9067   50.9832 C   0  0  0  0  0  0  0  0  0  0  0  0
   20.5962   14.4359   51.8096 C   0  0  0  0  0  0  0  0  0  0  0  0
   20.6306   13.2381   51.0702 O   0  0  0  0  0  0  0  0  0  0  0  0
   28.7753    9.0271   56.9225 N   0  0  0  0  0  0  0  0  0  0  0  0
   29.7334    8.7802   56.4991 H   0  0  0  0  0  0  0  0  0  0  0  0
   28.7952    9.6321   58.1850 C   0  0  0  0  0  0  0  0  0  0  0  0
   28.6627   10.9781   58.4240 C   0  0  0  0  0  0  0  0  0  0  0  0
   28.6991   11.4679   59.7392 C   0  0  0  0  0  0  0  0  0  0  0  0
   28.8664   10.6248   60.8130 C   0  0  0  0  0  0  0  0  0  0  0  0
   29.0012    9.2711   60.5935 C   0  0  0  0  0  0  0  0  0  0  0  0
   28.9638    8.8176   59.3208 C   0  0  0  0  0  0  0  0  0  0  0  0
   29.1014    7.4659   59.1447 F   0  0  0  0  0  0  0  0  0  0  0  0
 21 22  1  0  0  0
 22 15  1  0  0  0
 15 16  2  0  0  0
 16 17  1  0  0  0
 17 18  2  0  0  0
 18 13  1  0  0  0
 13  1  1  0  0  0
  1  2  2  0  0  0
  2  3  1  0  0  0
  3  4  2  0  0  0
  4  5  1  0  0  0
  5  6  2  0  0  0
  6 23  1  0  0  0
 23 25  1  0  0  0
 25 26  2  0  0  0
 26 27  1  0  0  0
 27 28  2  0  0  0
 28 29  1  0  0  0
 29 30  2  0  0  0
 30 31  1  0  0  0
  6  7  1  0  0  0
  7 10  1  0  0  0
 10 11  1  0  0  0
 10 12  1  0  0  0
  7  8  1  0  0  0
  8  9  2  0  0  0
 18 19  1  0  0  0
 19 20  2  0  0  0
 20 15  1  0  0  0
  9  1  1  0  0  0
  8  4  1  0  0  0
 30 25  1  0  0  0
 13 14  1  0  0  0
 23 24  1  0  0  0
M  END
> <minimizedAffinity>
25.58944

> <CNNscore>
0.4833559394

> <CNNaffinity>
6.1868658066

> <CNN_VS>
2.9904582500

> <CNNaffinity_variance>
0.1528786719

$$$$
[H]c1c([H])c([H])c(N([H])c2nc3c([H])nc(N([H])c4c([H])c([H])c(OC([H])([H])[H])c([H])c4[H])nc3n2C([H])(C([H])([H])[H])C([H])([H])[H])c(F)c1[H]


 31 34  0  0  0  0  0  0  0  0999 V2000
   22.7162    8.3778   53.0912 C   0  0  0  0  0  0  0  0  0  0  0  0
   23.2523    7.2984   52.5227 N   0  0  0  0  0  0  0  0  0  0  0  0
   24.3916    6.7067   52.8770 C   0  0  0  0  0  0  0  0  0  0  0  0
   25.1046    7.2425   53.9307 C   0  0  0  0  0  0  0  0  0  0  0  0
   26.2502    6.9283   54.5448 N   0  0  0  0  0  0  0  0  0  0  0  0
   26.4704    7.8112   55.5287 C   0  0  0  0  0  0  0  0  0  0  0  0
   25.4524    8.7161   55.5573 N   0  0  0  0  0  0  0  0  0  0  0  0
   24.6083    8.3564   54.5621 C   0  0  0  0  0  0  0  0  0  0  0  0
   23.4554    8.8846   54.1387 N   0  0  0  0  0  0  0  0  0  0  0  0
   25.2808    9.8453   56.4587 C   0  0  0  0  0  0  0  0  0  0  0  0
   23.8166   10.1395   56.7215 C   0  0  0  0  0  0  0  0  0  0  0  0
   26.0356   11.0584   56.0060 C   0  0  0  0  0  0  0  0  0  0  0  0
   21.5226    8.9975   52.7199 N   0  0  0  0  0  0  0  0  0  0  0  0
   20.6427    8.3947   52.7060 H   0  0  0  0  0  0  0  0  0  0  0  0
   20.9665   12.9921   51.4307 C   0  0  0  0  0  0  0  0  0  0  0  0
   21.2605   12.7124   52.7427 C   0  0  0  0  0  0  0  0  0  0  0  0
   21.4560   11.4091   53.1921 C   0  0  0  0  0  0  0  0  0  0  0  0
   21.3660   10.3422   52.3581 C   0  0  0  0  0  0  0  0  0  0  0  0
   21.0615   10.6482   51.0032 C   0  0  0  0  0  0  0  0  0  0  0  0
   20.8750   11.9193   50.5829 C   0  0  0  0  0  0  0  0  0  0  0  0
   19.9407   15.1532   51.7402 C   0  0  0  0  0  0  0  0  0  0  0  0
   20.7745   14.2952   50.9976 O   0  0  0  0  0  0  0  0  0  0  0  0
   27.5716    7.8292   56.4128 N   0  0  0  0  0  0  0  0  0  0  0  0
   28.1921    6.9511   56.3695 H   0  0  0  0  0  0  0  0  0  0  0  0
   27.9623    8.8173   57.3247 C   0  0  0  0  0  0  0  0  0  0  0  0
   27.9254    8.6966   58.6924 C   0  0  0  0  0  0  0  0  0  0  0  0
   28.3450    9.7609   59.5060 C   0  0  0  0  0  0  0  0  0  0  0  0
   28.7994   10.9406   58.9641 C   0  0  0  0  0  0  0  0  0  0  0  0
   28.8439   11.0809   57.5939 C   0  0  0  0  0  0  0  0  0  0  0  0
   28.4360   10.0458   56.8264 C   0  0  0  0  0  0  0  0  0  0  0  0
   28.4956   10.2247   55.4694 F   0  0  0  0  0  0  0  0  0  0  0  0
 21 22  1  0  0  0
 22 15  1  0  0  0
 15 16  2  0  0  0
 16 17  1  0  0  0
 17 18  2  0  0  0
 18 13  1  0  0  0
 13  1  1  0  0  0
  1  2  2  0  0  0
  2  3  1  0  0  0
  3  4  2  0  0  0
  4  5  1  0  0  0
  5  6  2  0  0  0
  6 23  1  0  0  0
 23 25  1  0  0  0
 25 26  2  0  0  0
 26 27  1  0  0  0
 27 28  2  0  0  0
 28 29  1  0  0  0
 29 30  2  0  0  0
 30 31  1  0  0  0
  6  7  1  0  0  0
  7 10  1  0  0  0
 10 11  1  0  0  0
 10 12  1  0  0  0
  7  8  1  0  0  0
  8  9  2  0  0  0
 18 19  1  0  0  0
 19 20  2  0  0  0
 20 15  1  0  0  0
  9  1  1  0  0  0
  8  4  1  0  0  0
 30 25  1  0  0  0
 13 14  1  0  0  0
 23 24  1  0  0  0
M  END
> <minimizedAffinity>
32.22320

> <CNNscore>
0.4741803706

> <CNNaffinity>
6.1368932724

> <CNN_VS>
2.9099943638

> <CNNaffinity_variance>
0.2097956687

$$$$
[H]c1c([H])c([H])c(N([H])c2nc3c([H])nc(N([H])c4c([H])c([H])c(OC([H])([H])[H])c([H])c4[H])nc3n2C([H])(C([H])([H])[H])C([H])([H])[H])c(F)c1[H]


 31 34  0  0  0  0  0  0  0  0999 V2000
   27.8666    8.9388   56.8747 C   0  0  0  0  0  0  0  0  0  0  0  0
   28.6393    8.6928   55.8173 N   0  0  0  0  0  0  0  0  0  0  0  0
   28.2227    8.4915   54.5685 C   0  0  0  0  0  0  0  0  0  0  0  0
   26.8658    8.5367   54.3185 C   0  0  0  0  0  0  0  0  0  0  0  0
   26.1071    8.3872   53.2275 N   0  0  0  0  0  0  0  0  0  0  0  0
   24.8203    8.5366   53.5710 C   0  0  0  0  0  0  0  0  0  0  0  0
   24.7377    8.7875   54.9076 N   0  0  0  0  0  0  0  0  0  0  0  0
   26.0119    8.7859   55.3647 C   0  0  0  0  0  0  0  0  0  0  0  0
   26.5189    8.9764   56.5869 N   0  0  0  0  0  0  0  0  0  0  0  0
   23.5425    9.0142   55.7056 C   0  0  0  0  0  0  0  0  0  0  0  0
   22.6967    7.7609   55.8227 C   0  0  0  0  0  0  0  0  0  0  0  0
   22.7521   10.1950   55.2293 C   0  0  0  0  0  0  0  0  0  0  0  0
   28.3034    9.1499   58.1829 N   0  0  0  0  0  0  0  0  0  0  0  0
   28.5567    8.2884   58.7585 H   0  0  0  0  0  0  0  0  0  0  0  0
   28.8438   12.7996   60.2603 C   0  0  0  0  0  0  0  0  0  0  0  0
   28.2870   12.7822   59.0051 C   0  0  0  0  0  0  0  0  0  0  0  0
   28.0905   11.5960   58.3028 C   0  0  0  0  0  0  0  0  0  0  0  0
   28.4395   10.3906   58.8198 C   0  0  0  0  0  0  0  0  0  0  0  0
   29.0144   10.4254   60.1200 C   0  0  0  0  0  0  0  0  0  0  0  0
   29.1979   11.5857   60.7887 C   0  0  0  0  0  0  0  0  0  0  0  0
   29.4613   15.1313   60.2449 C   0  0  0  0  0  0  0  0  0  0  0  0
   29.0333   13.9887   60.9478 O   0  0  0  0  0  0  0  0  0  0  0  0
   23.7039    8.4534   52.7100 N   0  0  0  0  0  0  0  0  0  0  0  0
   23.7780    9.0605   51.8246 H   0  0  0  0  0  0  0  0  0  0  0  0
   22.5310    7.7011   52.8468 C   0  0  0  0  0  0  0  0  0  0  0  0
   22.4640    6.4093   53.3088 C   0  0  0  0  0  0  0  0  0  0  0  0
   21.2246    5.7568   53.4015 C   0  0  0  0  0  0  0  0  0  0  0  0
   20.0559    6.3839   53.0370 C   0  0  0  0  0  0  0  0  0  0  0  0
   20.1026    7.6799   52.5711 C   0  0  0  0  0  0  0  0  0  0  0  0
   21.3046    8.2924   52.4885 C   0  0  0  0  0  0  0  0  0  0  0  0
   21.3086    9.5801   52.0206 F   0  0  0  0  0  0  0  0  0  0  0  0
 21 22  1  0  0  0
 22 15  1  0  0  0
 15 16  2  0  0  0
 16 17  1  0  0  0
 17 18  2  0  0  0
 18 13  1  0  0  0
 13  1  1  0  0  0
  1  2  2  0  0  0
  2  3  1  0  0  0
  3  4  2  0  0  0
  4  5  1  0  0  0
  5  6  2  0  0  0
  6 23  1  0  0  0
 23 25  1  0  0  0
 25 26  2  0  0  0
 26 27  1  0  0  0
 27 28  2  0  0  0
 28 29  1  0  0  0
 29 30  2  0  0  0
 30 31  1  0  0  0
  6  7  1  0  0  0
  7 10  1  0  0  0
 10 11  1  0  0  0
 10 12  1  0  0  0
  7  8  1  0  0  0
  8  9  2  0  0  0
 18 19  1  0  0  0
 19 20  2  0  0  0
 20 15  1  0  0  0
  9  1  1  0  0  0
  8  4  1  0  0  0
 30 25  1  0  0  0
 13 14  1  0  0  0
 23 24  1  0  0  0
M  END
> <minimizedAffinity>
2.62558

> <CNNscore>
0.4684929848

> <CNNaffinity>
6.3146090508

> <CNN_VS>
2.9583499432

> <CNNaffinity_variance>
0.3770975769

$$$$
[H]c1nc(-c2c([H])c([H])c(OC([H])([H])C([H])([H])C([H])([H])N3C([H])([H])C([H])([H])C([H])(C([H])([H])c4c([H])nc([H])n4[H])C([H])([H])C3([H])[H])c([H])c2[H])nc([H])c1[H]


 29 32  0  0  0  0  0  0  0  0999 V2000
   23.4282    9.6872   52.3479 C   0  0  0  0  0  0  0  0  0  0  0  0
   23.6209    8.2241   52.7005 C   0  0  0  0  0  0  0  0  0  0  0  0
   24.9889    8.0095   52.8659 O   0  0  0  0  0  0  0  0  0  0  0  0
   27.1353    9.2397   56.2907 C   0  0  0  0  0  0  0  0  0  0  0  0
   27.7825    8.8129   55.1515 C   0  0  0  0  0  0  0  0  0  0  0  0
   27.0772    8.4065   54.0204 C   0  0  0  0  0  0  0  0  0  0  0  0
   25.6996    8.4171   54.0009 C   0  0  0  0  0  0  0  0  0  0  0  0
   25.0568    8.8451   55.1430 C   0  0  0  0  0  0  0  0  0  0  0  0
   25.7576    9.2512   56.2732 C   0  0  0  0  0  0  0  0  0  0  0  0
   29.2856   10.5133   59.6739 C   0  0  0  0  0  0  0  0  0  0  0  0
   28.8340   11.4148   58.7353 C   0  0  0  0  0  0  0  0  0  0  0  0
   28.1503   10.9647   57.6685 N   0  0  0  0  0  0  0  0  0  0  0  0
   27.8824    9.6631   57.4700 C   0  0  0  0  0  0  0  0  0  0  0  0
   28.3236    8.7908   58.3854 N   0  0  0  0  0  0  0  0  0  0  0  0
   29.0192    9.1814   59.4840 C   0  0  0  0  0  0  0  0  0  0  0  0
   21.9967    9.8833   51.9029 C   0  0  0  0  0  0  0  0  0  0  0  0
   21.0732    9.9253   53.0215 N   0  0  0  0  0  0  0  0  0  0  0  0
   20.2376    8.7428   52.9310 C   0  0  0  0  0  0  0  0  0  0  0  0
   20.9199    7.6000   53.6936 C   0  0  0  0  0  0  0  0  0  0  0  0
   20.7342    7.9110   55.1569 C   0  0  0  0  0  0  0  0  0  0  0  0
   21.1248    9.3289   55.4022 C   0  0  0  0  0  0  0  0  0  0  0  0
   21.8640    9.9383   54.2341 C   0  0  0  0  0  0  0  0  0  0  0  0
   21.4668    6.9321   56.0436 C   0  0  0  0  0  0  0  0  0  0  0  0
   22.4327    6.1843   55.2145 C   0  0  0  0  0  0  0  0  0  0  0  0
   23.6411    5.6551   55.5819 C   0  0  0  0  0  0  0  0  0  0  0  0
   24.1906    5.0607   54.5255 N   0  0  0  0  0  0  0  0  0  0  0  0
   23.3544    5.2015   53.4918 C   0  0  0  0  0  0  0  0  0  0  0  0
   22.2861    5.8863   53.9171 N   0  0  0  0  0  0  0  0  0  0  0  0
   21.4563    6.1482   53.3140 H   0  0  0  0  0  0  0  0  0  0  0  0
 10 11  2  0  0  0
 11 12  1  0  0  0
 12 13  2  0  0  0
 13  4  1  0  0  0
  4  5  2  0  0  0
  5  6  1  0  0  0
  6  7  2  0  0  0
  7  3  1  0  0  0
  3  2  1  0  0  0
  2  1  1  0  0  0
  1 16  1  0  0  0
 16 17  1  0  0  0
 17 18  1  0  0  0
 18 19  1  0  0  0
 19 20  1  0  0  0
 20 23  1  0  0  0
 23 24  1  0  0  0
 24 25  2  0  0  0
 25 26  1  0  0  0
 26 27  2  0  0  0
 27 28  1  0  0  0
 20 21  1  0  0  0
 21 22  1  0  0  0
  7  8  1  0  0  0
  8  9  2  0  0  0
 13 14  1  0  0  0
 14 15  2  0  0  0
 15 10  1  0  0  0
  9  4  1  0  0  0
 22 17  1  0  0  0
 28 24  1  0  0  0
 28 29  1  0  0  0
M  END
> <minimizedAffinity>
8.47859

> <CNNscore>
0.6391617060

> <CNNaffinity>
6.3630132675

> <CNN_VS>
4.0669941902

> <CNNaffinity_variance>
1.0032215118

$$$$
[H]c1nc(-c2c([H])c([H])c(OC([H])([H])C([H])([H])C([H])([H])N3C([H])([H])C([H])([H])C([H])(C([H])([H])c4c([H])nc([H])n4[H])C([H])([H])C3([H])[H])c([H])c2[H])nc([H])c1[H]


 29 32  0  0  0  0  0  0  0  0999 V2000
   24.7093    7.7590   53.0184 C   0  0  0  0  0  0  0  0  0  0  0  0
   26.0986    8.3623   52.9301 C   0  0  0  0  0  0  0  0  0  0  0  0
   26.8576    7.8206   53.9670 O   0  0  0  0  0  0  0  0  0  0  0  0
   28.0141   10.0131   57.3882 C   0  0  0  0  0  0  0  0  0  0  0  0
   28.9343    9.6220   56.4400 C   0  0  0  0  0  0  0  0  0  0  0  0
   28.5557    8.8987   55.3106 C   0  0  0  0  0  0  0  0  0  0  0  0
   27.2403    8.5470   55.1007 C   0  0  0  0  0  0  0  0  0  0  0  0
   26.3235    8.9407   56.0523 C   0  0  0  0  0  0  0  0  0  0  0  0
   26.6979    9.6624   57.1802 C   0  0  0  0  0  0  0  0  0  0  0  0
   29.2087   12.1499   60.8087 C   0  0  0  0  0  0  0  0  0  0  0  0
   29.5215   10.8171   60.6554 C   0  0  0  0  0  0  0  0  0  0  0  0
   29.1199   10.1720   59.5461 N   0  0  0  0  0  0  0  0  0  0  0  0
   28.4200   10.7700   58.5675 C   0  0  0  0  0  0  0  0  0  0  0  0
   28.1185   12.0658   58.7213 N   0  0  0  0  0  0  0  0  0  0  0  0
   28.4946   12.7732   59.8174 C   0  0  0  0  0  0  0  0  0  0  0  0
   23.7574    8.8289   53.5029 C   0  0  0  0  0  0  0  0  0  0  0  0
   22.7826    8.3127   54.4460 N   0  0  0  0  0  0  0  0  0  0  0  0
   21.4717    8.7044   53.9635 C   0  0  0  0  0  0  0  0  0  0  0  0
   20.9518    7.6159   53.0159 C   0  0  0  0  0  0  0  0  0  0  0  0
   20.5462    6.4612   53.8960 C   0  0  0  0  0  0  0  0  0  0  0  0
   21.6525    6.1719   54.8527 C   0  0  0  0  0  0  0  0  0  0  0  0
   22.9383    6.8739   54.4837 C   0  0  0  0  0  0  0  0  0  0  0  0
   20.1264    5.2536   53.0918 C   0  0  0  0  0  0  0  0  0  0  0  0
   18.8500    4.7506   53.6375 C   0  0  0  0  0  0  0  0  0  0  0  0
   18.5714    3.5115   54.1496 C   0  0  0  0  0  0  0  0  0  0  0  0
   17.2968    3.4793   54.5310 N   0  0  0  0  0  0  0  0  0  0  0  0
   16.7583    4.6751   54.2713 C   0  0  0  0  0  0  0  0  0  0  0  0
   17.7084    5.4449   53.7275 N   0  0  0  0  0  0  0  0  0  0  0  0
   17.5706    6.4481   53.4185 H   0  0  0  0  0  0  0  0  0  0  0  0
 10 11  2  0  0  0
 11 12  1  0  0  0
 12 13  2  0  0  0
 13  4  1  0  0  0
  4  5  2  0  0  0
  5  6  1  0  0  0
  6  7  2  0  0  0
  7  3  1  0  0  0
  3  2  1  0  0  0
  2  1  1  0  0  0
  1 16  1  0  0  0
 16 17  1  0  0  0
 17 18  1  0  0  0
 18 19  1  0  0  0
 19 20  1  0  0  0
 20 23  1  0  0  0
 23 24  1  0  0  0
 24 25  2  0  0  0
 25 26  1  0  0  0
 26 27  2  0  0  0
 27 28  1  0  0  0
 20 21  1  0  0  0
 21 22  1  0  0  0
  7  8  1  0  0  0
  8  9  2  0  0  0
 13 14  1  0  0  0
 14 15  2  0  0  0
 15 10  1  0  0  0
  9  4  1  0  0  0
 22 17  1  0  0  0
 28 24  1  0  0  0
 28 29  1  0  0  0
M  END
> <minimizedAffinity>
11.88169

> <CNNscore>
0.5565112233

> <CNNaffinity>
6.2053475380

> <CNN_VS>
3.4533455372

> <CNNaffinity_variance>
0.4956785142

$$$$
[H]c1nc(-c2c([H])c([H])c(OC([H])([H])C([H])([H])C([H])([H])N3C([H])([H])C([H])([H])C([H])(C([H])([H])c4c([H])nc([H])n4[H])C([H])([H])C3([H])[H])c([H])c2[H])nc([H])c1[H]


 29 32  0  0  0  0  0  0  0  0999 V2000
   24.3837    6.5200   53.9361 C   0  0  0  0  0  0  0  0  0  0  0  0
   24.5460    7.6980   52.9938 C   0  0  0  0  0  0  0  0  0  0  0  0
   25.8677    8.1324   53.0895 O   0  0  0  0  0  0  0  0  0  0  0  0
   27.6595    9.3276   56.7241 C   0  0  0  0  0  0  0  0  0  0  0  0
   26.2915    9.3386   56.5593 C   0  0  0  0  0  0  0  0  0  0  0  0
   25.6977    8.9450   55.3616 C   0  0  0  0  0  0  0  0  0  0  0  0
   26.4618    8.5283   54.2935 C   0  0  0  0  0  0  0  0  0  0  0  0
   27.8300    8.5190   54.4636 C   0  0  0  0  0  0  0  0  0  0  0  0
   28.4255    8.9111   55.6572 C   0  0  0  0  0  0  0  0  0  0  0  0
   29.4259   10.4684   60.3670 C   0  0  0  0  0  0  0  0  0  0  0  0
   29.1358    9.1489   60.0978 C   0  0  0  0  0  0  0  0  0  0  0  0
   28.5711    8.8280   58.9204 N   0  0  0  0  0  0  0  0  0  0  0  0
   28.2720    9.7416   57.9818 C   0  0  0  0  0  0  0  0  0  0  0  0
   28.5561   11.0230   58.2484 N   0  0  0  0  0  0  0  0  0  0  0  0
   29.1260   11.4118   59.4178 C   0  0  0  0  0  0  0  0  0  0  0  0
   23.2805    5.6345   53.4029 C   0  0  0  0  0  0  0  0  0  0  0  0
   21.9720    6.0324   53.8881 N   0  0  0  0  0  0  0  0  0  0  0  0
   22.1261    6.3974   55.2837 C   0  0  0  0  0  0  0  0  0  0  0  0
   22.4762    7.8886   55.3654 C   0  0  0  0  0  0  0  0  0  0  0  0
   21.1983    8.6300   55.0655 C   0  0  0  0  0  0  0  0  0  0  0  0
   20.5873    8.0586   53.8312 C   0  0  0  0  0  0  0  0  0  0  0  0
   21.5339    7.1514   53.0807 C   0  0  0  0  0  0  0  0  0  0  0  0
   21.4127   10.1229   54.9847 C   0  0  0  0  0  0  0  0  0  0  0  0
   21.4513   10.5121   53.5610 C   0  0  0  0  0  0  0  0  0  0  0  0
   21.3483    9.7109   52.4553 C   0  0  0  0  0  0  0  0  0  0  0  0
   21.4332   10.4685   51.3644 N   0  0  0  0  0  0  0  0  0  0  0  0
   21.5883   11.7378   51.7549 C   0  0  0  0  0  0  0  0  0  0  0  0
   21.5987   11.7583   53.0930 N   0  0  0  0  0  0  0  0  0  0  0  0
   21.7071   12.6302   53.6837 H   0  0  0  0  0  0  0  0  0  0  0  0
 10 11  2  0  0  0
 11 12  1  0  0  0
 12 13  2  0  0  0
 13  4  1  0  0  0
  4  5  2  0  0  0
  5  6  1  0  0  0
  6  7  2  0  0  0
  7  3  1  0  0  0
  3  2  1  0  0  0
  2  1  1  0  0  0
  1 16  1  0  0  0
 16 17  1  0  0  0
 17 18  1  0  0  0
 18 19  1  0  0  0
 19 20  1  0  0  0
 20 23  1  0  0  0
 23 24  1  0  0  0
 24 25  2  0  0  0
 25 26  1  0  0  0
 26 27  2  0  0  0
 27 28  1  0  0  0
 20 21  1  0  0  0
 21 22  1  0  0  0
  7  8  1  0  0  0
  8  9  2  0  0  0
 13 14  1  0  0  0
 14 15  2  0  0  0
 15 10  1  0  0  0
  9  4  1  0  0  0
 22 17  1  0  0  0
 28 24  1  0  0  0
 28 29  1  0  0  0
M  END
> <minimizedAffinity>
-0.95243

> <CNNscore>
0.5174009204

> <CNNaffinity>
6.4569969177

> <CNN_VS>
3.3408560753

> <CNNaffinity_variance>
1.2046270370

$$$$
[H]c1nc(-c2c([H])c([H])c(OC([H])([H])C([H])([H])C([H])([H])N3C([H])([H])C([H])([H])C([H])(C([H])([H])c4c([H])nc([H])n4[H])C([H])([H])C3([H])[H])c([H])c2[H])nc([H])c1[H]


 29 32  0  0  0  0  0  0  0  0999 V2000
   23.0370    9.1061   52.6394 C   0  0  0  0  0  0  0  0  0  0  0  0
   23.8081    7.8140   52.8343 C   0  0  0  0  0  0  0  0  0  0  0  0
   25.1655    8.1334   52.8449 O   0  0  0  0  0  0  0  0  0  0  0  0
   27.2601    9.2439   56.3418 C   0  0  0  0  0  0  0  0  0  0  0  0
   25.8854    9.3110   56.2755 C   0  0  0  0  0  0  0  0  0  0  0  0
   25.1918    8.9455   55.1234 C   0  0  0  0  0  0  0  0  0  0  0  0
   25.8599    8.5013   54.0033 C   0  0  0  0  0  0  0  0  0  0  0  0
   27.2352    8.4359   54.0749 C   0  0  0  0  0  0  0  0  0  0  0  0
   27.9302    8.7999   55.2227 C   0  0  0  0  0  0  0  0  0  0  0  0
   29.3305   10.3007   59.8474 C   0  0  0  0  0  0  0  0  0  0  0  0
   29.0258    8.9866   59.5681 C   0  0  0  0  0  0  0  0  0  0  0  0
   28.3626    8.6929   58.4360 N   0  0  0  0  0  0  0  0  0  0  0  0
   27.9774    9.6290   57.5524 C   0  0  0  0  0  0  0  0  0  0  0  0
   28.2761   10.9050   57.8285 N   0  0  0  0  0  0  0  0  0  0  0  0
   28.9435   11.2668   58.9541 C   0  0  0  0  0  0  0  0  0  0  0  0
   21.5717    8.7660   52.4882 C   0  0  0  0  0  0  0  0  0  0  0  0
   21.0454    8.0703   53.6480 N   0  0  0  0  0  0  0  0  0  0  0  0
   20.9333    6.6685   53.2914 C   0  0  0  0  0  0  0  0  0  0  0  0
   22.2577    5.9697   53.6242 C   0  0  0  0  0  0  0  0  0  0  0  0
   22.2864    5.8318   55.1250 C   0  0  0  0  0  0  0  0  0  0  0  0
   21.9461    7.1482   55.7371 C   0  0  0  0  0  0  0  0  0  0  0  0
   21.9768    8.2795   54.7364 C   0  0  0  0  0  0  0  0  0  0  0  0
   23.5981    5.2693   55.6193 C   0  0  0  0  0  0  0  0  0  0  0  0
   23.3512    4.5566   56.8885 C   0  0  0  0  0  0  0  0  0  0  0  0
   22.3688    4.7821   57.8155 C   0  0  0  0  0  0  0  0  0  0  0  0
   22.5087    3.9117   58.8125 N   0  0  0  0  0  0  0  0  0  0  0  0
   23.5622    3.1358   58.5377 C   0  0  0  0  0  0  0  0  0  0  0  0
   24.0711    3.5329   57.3653 N   0  0  0  0  0  0  0  0  0  0  0  0
   24.9139    3.0991   56.8938 H   0  0  0  0  0  0  0  0  0  0  0  0
 10 11  2  0  0  0
 11 12  1  0  0  0
 12 13  2  0  0  0
 13  4  1  0  0  0
  4  5  2  0  0  0
  5  6  1  0  0  0
  6  7  2  0  0  0
  7  3  1  0  0  0
  3  2  1  0  0  0
  2  1  1  0  0  0
  1 16  1  0  0  0
 16 17  1  0  0  0
 17 18  1  0  0  0
 18 19  1  0  0  0
 19 20  1  0  0  0
 20 23  1  0  0  0
 23 24  1  0  0  0
 24 25  2  0  0  0
 25 26  1  0  0  0
 26 27  2  0  0  0
 27 28  1  0  0  0
 20 21  1  0  0  0
 21 22  1  0  0  0
  7  8  1  0  0  0
  8  9  2  0  0  0
 13 14  1  0  0  0
 14 15  2  0  0  0
 15 10  1  0  0  0
  9  4  1  0  0  0
 22 17  1  0  0  0
 28 24  1  0  0  0
 28 29  1  0  0  0
M  END
> <minimizedAffinity>
12.62140

> <CNNscore>
0.5093384385

> <CNNaffinity>
6.1553168297

> <CNN_VS>
3.1351394653

> <CNNaffinity_variance>
0.6741035581

$$$$
[H]c1nc(-c2c([H])c([H])c(OC([H])([H])C([H])([H])C([H])([H])N3C([H])([H])C([H])([H])C([H])(C([H])([H])c4c([H])nc([H])n4[H])C([H])([H])C3([H])[H])c([H])c2[H])nc([H])c1[H]


 29 32  0  0  0  0  0  0  0  0999 V2000
   27.2068    7.6815   54.0506 C   0  0  0  0  0  0  0  0  0  0  0  0
   28.2695    8.6435   53.5534 C   0  0  0  0  0  0  0  0  0  0  0  0
   27.6788    9.4580   52.5877 O   0  0  0  0  0  0  0  0  0  0  0  0
   28.4506    9.0884   48.4505 C   0  0  0  0  0  0  0  0  0  0  0  0
   28.2133   10.3156   49.0307 C   0  0  0  0  0  0  0  0  0  0  0  0
   27.9584   10.4405   50.3950 C   0  0  0  0  0  0  0  0  0  0  0  0
   27.9345    9.3350   51.2170 C   0  0  0  0  0  0  0  0  0  0  0  0
   28.1727    8.1097   50.6316 C   0  0  0  0  0  0  0  0  0  0  0  0
   28.4273    7.9817   49.2708 C   0  0  0  0  0  0  0  0  0  0  0  0
   29.2277    8.7948   44.3271 C   0  0  0  0  0  0  0  0  0  0  0  0
   29.3250   10.0002   44.9868 C   0  0  0  0  0  0  0  0  0  0  0  0
   29.0679   10.0493   46.3057 N   0  0  0  0  0  0  0  0  0  0  0  0
   28.7164    8.9677   47.0211 C   0  0  0  0  0  0  0  0  0  0  0  0
   28.6232    7.7982   46.3751 N   0  0  0  0  0  0  0  0  0  0  0  0
   28.8698    7.6823   45.0450 C   0  0  0  0  0  0  0  0  0  0  0  0
   26.2752    8.4378   54.9703 C   0  0  0  0  0  0  0  0  0  0  0  0
   26.9370    9.5451   55.6353 N   0  0  0  0  0  0  0  0  0  0  0  0
   26.2097    9.8025   56.8639 C   0  0  0  0  0  0  0  0  0  0  0  0
   26.8064    8.9343   57.9788 C   0  0  0  0  0  0  0  0  0  0  0  0
   28.1216    9.5750   58.3423 C   0  0  0  0  0  0  0  0  0  0  0  0
   28.8898    9.8421   57.0926 C   0  0  0  0  0  0  0  0  0  0  0  0
   28.3038    9.1414   55.8894 C   0  0  0  0  0  0  0  0  0  0  0  0
   28.8938    8.7562   59.3496 C   0  0  0  0  0  0  0  0  0  0  0  0
   29.3059    9.6442   60.4548 C   0  0  0  0  0  0  0  0  0  0  0  0
   30.5407    9.7677   61.0337 C   0  0  0  0  0  0  0  0  0  0  0  0
   30.4757   10.6838   61.9969 N   0  0  0  0  0  0  0  0  0  0  0  0
   29.2220   11.1463   62.0422 C   0  0  0  0  0  0  0  0  0  0  0  0
   28.5144   10.5098   61.1012 N   0  0  0  0  0  0  0  0  0  0  0  0
   27.4869   10.6717   60.9043 H   0  0  0  0  0  0  0  0  0  0  0  0
 10 11  2  0  0  0
 11 12  1  0  0  0
 12 13  2  0  0  0
 13  4  1  0  0  0
  4  5  2  0  0  0
  5  6  1  0  0  0
  6  7  2  0  0  0
  7  3  1  0  0  0
  3  2  1  0  0  0
  2  1  1  0  0  0
  1 16  1  0  0  0
 16 17  1  0  0  0
 17 18  1  0  0  0
 18 19  1  0  0  0
 19 20  1  0  0  0
 20 23  1  0  0  0
 23 24  1  0  0  0
 24 25  2  0  0  0
 25 26  1  0  0  0
 26 27  2  0  0  0
 27 28  1  0  0  0
 20 21  1  0  0  0
 21 22  1  0  0  0
  7  8  1  0  0  0
  8  9  2  0  0  0
 13 14  1  0  0  0
 14 15  2  0  0  0
 15 10  1  0  0  0
  9  4  1  0  0  0
 22 17  1  0  0  0
 28 24  1  0  0  0
 28 29  1  0  0  0
M  END
> <minimizedAffinity>
32.48384

> <CNNscore>
0.4994762540

> <CNNaffinity>
5.6599144936

> <CNN_VS>
2.8269929886

> <CNNaffinity_variance>
0.2217289209

$$$$
[H]c1nc(-c2c([H])c([H])c(OC([H])([H])C([H])([H])C([H])([H])N3C([H])([H])C([H])([H])C([H])(C([H])([H])c4c([H])nc([H])n4[H])C([H])([H])C3([H])[H])c([H])c2[H])nc([H])c1[H]


 29 32  0  0  0  0  0  0  0  0999 V2000
   22.0048   11.4726   53.4893 C   0  0  0  0  0  0  0  0  0  0  0  0
   21.4295   11.2771   52.0990 C   0  0  0  0  0  0  0  0  0  0  0  0
   21.8960   10.0530   51.6207 O   0  0  0  0  0  0  0  0  0  0  0  0
   20.2652    6.3335   52.7845 C   0  0  0  0  0  0  0  0  0  0  0  0
   19.4733    7.4519   52.6399 C   0  0  0  0  0  0  0  0  0  0  0  0
   20.0085    8.6801   52.2562 C   0  0  0  0  0  0  0  0  0  0  0  0
   21.3561    8.8205   52.0063 C   0  0  0  0  0  0  0  0  0  0  0  0
   22.1439    7.6985   52.1523 C   0  0  0  0  0  0  0  0  0  0  0  0
   21.6132    6.4717   52.5349 C   0  0  0  0  0  0  0  0  0  0  0  0
   18.6678    2.6127   53.9231 C   0  0  0  0  0  0  0  0  0  0  0  0
   19.8844    2.7003   53.2829 C   0  0  0  0  0  0  0  0  0  0  0  0
   20.3582    3.9101   52.9365 N   0  0  0  0  0  0  0  0  0  0  0  0
   19.6957    5.0520   53.1867 C   0  0  0  0  0  0  0  0  0  0  0  0
   18.5134    4.9613   53.8092 N   0  0  0  0  0  0  0  0  0  0  0  0
   17.9806    3.7703   54.1849 C   0  0  0  0  0  0  0  0  0  0  0  0
   21.2236   10.6073   54.4519 C   0  0  0  0  0  0  0  0  0  0  0  0
   22.0691   10.0191   55.4742 N   0  0  0  0  0  0  0  0  0  0  0  0
   21.9298    8.5790   55.3680 C   0  0  0  0  0  0  0  0  0  0  0  0
   22.9750    8.0566   54.3741 C   0  0  0  0  0  0  0  0  0  0  0  0
   24.2971    8.1151   55.0960 C   0  0  0  0  0  0  0  0  0  0  0  0
   24.4469    9.4608   55.7202 C   0  0  0  0  0  0  0  0  0  0  0  0
   23.4258   10.4528   55.2146 C   0  0  0  0  0  0  0  0  0  0  0  0
   25.4529    7.7466   54.1962 C   0  0  0  0  0  0  0  0  0  0  0  0
   26.6806    8.3618   54.7385 C   0  0  0  0  0  0  0  0  0  0  0  0
   27.9089    8.4796   54.1446 C   0  0  0  0  0  0  0  0  0  0  0  0
   28.7352    9.1008   54.9827 N   0  0  0  0  0  0  0  0  0  0  0  0
   28.0559    9.3810   56.0996 C   0  0  0  0  0  0  0  0  0  0  0  0
   26.8058    8.9288   55.9453 N   0  0  0  0  0  0  0  0  0  0  0  0
   26.0392    9.0107   56.6708 H   0  0  0  0  0  0  0  0  0  0  0  0
 10 11  2  0  0  0
 11 12  1  0  0  0
 12 13  2  0  0  0
 13  4  1  0  0  0
  4  5  2  0  0  0
  5  6  1  0  0  0
  6  7  2  0  0  0
  7  3  1  0  0  0
  3  2  1  0  0  0
  2  1  1  0  0  0
  1 16  1  0  0  0
 16 17  1  0  0  0
 17 18  1  0  0  0
 18 19  1  0  0  0
 19 20  1  0  0  0
 20 23  1  0  0  0
 23 24  1  0  0  0
 24 25  2  0  0  0
 25 26  1  0  0  0
 26 27  2  0  0  0
 27 28  1  0  0  0
 20 21  1  0  0  0
 21 22  1  0  0  0
  7  8  1  0  0  0
  8  9  2  0  0  0
 13 14  1  0  0  0
 14 15  2  0  0  0
 15 10  1  0  0  0
  9  4  1  0  0  0
 22 17  1  0  0  0
 28 24  1  0  0  0
 28 29  1  0  0  0
M  END
> <minimizedAffinity>
16.48859

> <CNNscore>
0.4865272939

> <CNNaffinity>
6.8668632507

> <CNN_VS>
3.3409163952

> <CNNaffinity_variance>
0.4851370752

$$$$
[H]c1nc(-c2c([H])c([H])c(OC([H])([H])C([H])([H])C([H])([H])N3C([H])([H])C([H])([H])C([H])(C([H])([H])c4c([H])nc([H])n4[H])C([H])([H])C3([H])[H])c([H])c2[H])nc([H])c1[H]


 29 32  0  0  0  0  0  0  0  0999 V2000
   26.7954    8.8728   53.7732 C   0  0  0  0  0  0  0  0  0  0  0  0
   27.5523    8.1789   54.8901 C   0  0  0  0  0  0  0  0  0  0  0  0
   26.9565    8.5512   56.0947 O   0  0  0  0  0  0  0  0  0  0  0  0
   28.9661   10.7367   59.1003 C   0  0  0  0  0  0  0  0  0  0  0  0
   28.5461   11.3377   57.9337 C   0  0  0  0  0  0  0  0  0  0  0  0
   27.8830   10.6194   56.9405 C   0  0  0  0  0  0  0  0  0  0  0  0
   27.6224    9.2748   57.0908 C   0  0  0  0  0  0  0  0  0  0  0  0
   28.0446    8.6783   58.2598 C   0  0  0  0  0  0  0  0  0  0  0  0
   28.7064    9.3921   59.2526 C   0  0  0  0  0  0  0  0  0  0  0  0
   30.9270   12.9686   62.0778 C   0  0  0  0  0  0  0  0  0  0  0  0
   29.7674   13.4260   61.4916 C   0  0  0  0  0  0  0  0  0  0  0  0
   29.1729   12.6806   60.5435 N   0  0  0  0  0  0  0  0  0  0  0  0
   29.6597   11.4970   60.1343 C   0  0  0  0  0  0  0  0  0  0  0  0
   30.7873   11.0568   60.7074 N   0  0  0  0  0  0  0  0  0  0  0  0
   31.4353   11.7618   61.6698 C   0  0  0  0  0  0  0  0  0  0  0  0
   25.6074    8.0150   53.4009 C   0  0  0  0  0  0  0  0  0  0  0  0
   24.9057    7.5105   54.5667 N   0  0  0  0  0  0  0  0  0  0  0  0
   24.3597    8.6577   55.2670 C   0  0  0  0  0  0  0  0  0  0  0  0
   22.9636    8.9565   54.7061 C   0  0  0  0  0  0  0  0  0  0  0  0
   22.0579    7.8864   55.2603 C   0  0  0  0  0  0  0  0  0  0  0  0
   22.6953    6.5558   55.0451 C   0  0  0  0  0  0  0  0  0  0  0  0
   23.8670    6.6199   54.0935 C   0  0  0  0  0  0  0  0  0  0  0  0
   20.6610    7.9737   54.6925 C   0  0  0  0  0  0  0  0  0  0  0  0
   20.7622    8.2366   53.2432 C   0  0  0  0  0  0  0  0  0  0  0  0
   21.1903    9.3734   52.6111 C   0  0  0  0  0  0  0  0  0  0  0  0
   21.1225    9.1867   51.2952 N   0  0  0  0  0  0  0  0  0  0  0  0
   20.6591    7.9516   51.0773 C   0  0  0  0  0  0  0  0  0  0  0  0
   20.4415    7.3780   52.2667 N   0  0  0  0  0  0  0  0  0  0  0  0
   20.0724    6.3955   52.4059 H   0  0  0  0  0  0  0  0  0  0  0  0
 10 11  2  0  0  0
 11 12  1  0  0  0
 12 13  2  0  0  0
 13  4  1  0  0  0
  4  5  2  0  0  0
  5  6  1  0  0  0
  6  7  2  0  0  0
  7  3  1  0  0  0
  3  2  1  0  0  0
  2  1  1  0  0  0
  1 16  1  0  0  0
 16 17  1  0  0  0
 17 18  1  0  0  0
 18 19  1  0  0  0
 19 20  1  0  0  0
 20 23  1  0  0  0
 23 24  1  0  0  0
 24 25  2  0  0  0
 25 26  1  0  0  0
 26 27  2  0  0  0
 27 28  1  0  0  0
 20 21  1  0  0  0
 21 22  1  0  0  0
  7  8  1  0  0  0
  8  9  2  0  0  0
 13 14  1  0  0  0
 14 15  2  0  0  0
 15 10  1  0  0  0
  9  4  1  0  0  0
 22 17  1  0  0  0
 28 24  1  0  0  0
 28 29  1  0  0  0
M  END
> <minimizedAffinity>
-0.41086

> <CNNscore>
0.4762262404

> <CNNaffinity>
6.2622647285

> <CNN_VS>
2.9822547436

> <CNNaffinity_variance>
0.3994183540

$$$$
[H]c1nc(-c2c([H])c([H])c(OC([H])([H])C([H])([H])C([H])([H])N3C([H])([H])C([H])([H])C([H])(C([H])([H])c4c([H])nc([H])n4[H])C([H])([H])C3([H])[H])c([H])c2[H])nc([H])c1[H]


 29 32  0  0  0  0  0  0  0  0999 V2000
   22.3136   10.2221   53.0295 C   0  0  0  0  0  0  0  0  0  0  0  0
   22.5776    9.0763   52.0705 C   0  0  0  0  0  0  0  0  0  0  0  0
   22.6060    7.9006   52.8199 O   0  0  0  0  0  0  0  0  0  0  0  0
   19.2413    5.4004   53.3465 C   0  0  0  0  0  0  0  0  0  0  0  0
   20.5218    4.9356   53.5539 C   0  0  0  0  0  0  0  0  0  0  0  0
   21.6335    5.7579   53.3810 C   0  0  0  0  0  0  0  0  0  0  0  0
   21.4909    7.0726   52.9942 C   0  0  0  0  0  0  0  0  0  0  0  0
   20.2077    7.5327   52.7880 C   0  0  0  0  0  0  0  0  0  0  0  0
   19.0965    6.7149   52.9597 C   0  0  0  0  0  0  0  0  0  0  0  0
   15.9307    2.8550   53.8500 C   0  0  0  0  0  0  0  0  0  0  0  0
   17.0764    2.4187   53.2217 C   0  0  0  0  0  0  0  0  0  0  0  0
   18.1114    3.2655   53.0819 N   0  0  0  0  0  0  0  0  0  0  0  0
   18.0836    4.5318   53.5300 C   0  0  0  0  0  0  0  0  0  0  0  0
   16.9675    4.9511   54.1401 N   0  0  0  0  0  0  0  0  0  0  0  0
   15.8884    4.1455   54.3126 C   0  0  0  0  0  0  0  0  0  0  0  0
   21.4222    9.7151   54.1403 C   0  0  0  0  0  0  0  0  0  0  0  0
   22.0842    9.7384   55.4316 N   0  0  0  0  0  0  0  0  0  0  0  0
   22.5491    8.3902   55.6983 C   0  0  0  0  0  0  0  0  0  0  0  0
   23.9586    8.2323   55.1140 C   0  0  0  0  0  0  0  0  0  0  0  0
   24.8769    8.9881   56.0402 C   0  0  0  0  0  0  0  0  0  0  0  0
   24.3038   10.3419   56.2888 C   0  0  0  0  0  0  0  0  0  0  0  0
   23.1795   10.6805   55.3383 C   0  0  0  0  0  0  0  0  0  0  0  0
   26.2958    9.0302   55.5243 C   0  0  0  0  0  0  0  0  0  0  0  0
   27.1746    9.4991   56.6142 C   0  0  0  0  0  0  0  0  0  0  0  0
   27.7085    8.7779   57.6486 C   0  0  0  0  0  0  0  0  0  0  0  0
   28.4436    9.5890   58.4054 N   0  0  0  0  0  0  0  0  0  0  0  0
   28.3880   10.8137   57.8721 C   0  0  0  0  0  0  0  0  0  0  0  0
   27.6140   10.7530   56.7820 N   0  0  0  0  0  0  0  0  0  0  0  0
   27.3887   11.5748   56.1537 H   0  0  0  0  0  0  0  0  0  0  0  0
 10 11  2  0  0  0
 11 12  1  0  0  0
 12 13  2  0  0  0
 13  4  1  0  0  0
  4  5  2  0  0  0
  5  6  1  0  0  0
  6  7  2  0  0  0
  7  3  1  0  0  0
  3  2  1  0  0  0
  2  1  1  0  0  0
  1 16  1  0  0  0
 16 17  1  0  0  0
 17 18  1  0  0  0
 18 19  1  0  0  0
 19 20  1  0  0  0
 20 23  1  0  0  0
 23 24  1  0  0  0
 24 25  2  0  0  0
 25 26  1  0  0  0
 26 27  2  0  0  0
 27 28  1  0  0  0
 20 21  1  0  0  0
 21 22  1  0  0  0
  7  8  1  0  0  0
  8  9  2  0  0  0
 13 14  1  0  0  0
 14 15  2  0  0  0
 15 10  1  0  0  0
  9  4  1  0  0  0
 22 17  1  0  0  0
 28 24  1  0  0  0
 28 29  1  0  0  0
M  END
> <minimizedAffinity>
23.65644

> <CNNscore>
0.4594107568

> <CNNaffinity>
6.4444046021

> <CNN_VS>
2.9606287479

> <CNNaffinity_variance>
0.5032277107

$$$$
[H]c1nc(-c2c([H])c([H])c(OC([H])([H])C([H])([H])C([H])([H])N3C([H])([H])C([H])([H])C([H])(C([H])([H])c4c([H])nc([H])n4[H])C([H])([H])C3([H])[H])c([H])c2[H])nc([H])c1[H]


 29 32  0  0  0  0  0  0  0  0999 V2000
   22.6980    7.1823   54.6380 C   0  0  0  0  0  0  0  0  0  0  0  0
   23.6859    6.1357   55.1183 C   0  0  0  0  0  0  0  0  0  0  0  0
   24.9021    6.7795   55.3440 O   0  0  0  0  0  0  0  0  0  0  0  0
   27.0198    8.8581   52.3367 C   0  0  0  0  0  0  0  0  0  0  0  0
   25.7439    8.3845   52.1208 C   0  0  0  0  0  0  0  0  0  0  0  0
   25.0430    7.6985   53.1108 C   0  0  0  0  0  0  0  0  0  0  0  0
   25.6041    7.4682   54.3479 C   0  0  0  0  0  0  0  0  0  0  0  0
   26.8808    7.9442   54.5588 C   0  0  0  0  0  0  0  0  0  0  0  0
   27.5827    8.6289   53.5732 C   0  0  0  0  0  0  0  0  0  0  0  0
   29.0885   10.8932   49.2918 C   0  0  0  0  0  0  0  0  0  0  0  0
   28.2202    9.8646   48.9991 C   0  0  0  0  0  0  0  0  0  0  0  0
   27.5793    9.2409   50.0032 N   0  0  0  0  0  0  0  0  0  0  0  0
   27.7457    9.5751   51.2939 C   0  0  0  0  0  0  0  0  0  0  0  0
   28.5908   10.5758   51.5731 N   0  0  0  0  0  0  0  0  0  0  0  0
   29.2679   11.2452   50.6052 C   0  0  0  0  0  0  0  0  0  0  0  0
   21.8669    6.5769   53.5296 C   0  0  0  0  0  0  0  0  0  0  0  0
   20.9435    7.5338   52.9483 N   0  0  0  0  0  0  0  0  0  0  0  0
   20.4862    8.3942   54.0231 C   0  0  0  0  0  0  0  0  0  0  0  0
   21.4499    9.5814   54.1455 C   0  0  0  0  0  0  0  0  0  0  0  0
   21.1471   10.4817   52.9749 C   0  0  0  0  0  0  0  0  0  0  0  0
   21.1070    9.6596   51.7317 C   0  0  0  0  0  0  0  0  0  0  0  0
   21.6676    8.2714   51.9346 C   0  0  0  0  0  0  0  0  0  0  0  0
   22.1088   11.6431   52.8872 C   0  0  0  0  0  0  0  0  0  0  0  0
   21.4180   12.7723   52.2334 C   0  0  0  0  0  0  0  0  0  0  0  0
   21.4066   13.1116   50.9068 C   0  0  0  0  0  0  0  0  0  0  0  0
   20.6586   14.2006   50.7467 N   0  0  0  0  0  0  0  0  0  0  0  0
   20.1932   14.5614   51.9471 C   0  0  0  0  0  0  0  0  0  0  0  0
   20.6587   13.6883   52.8482 N   0  0  0  0  0  0  0  0  0  0  0  0
   20.4535   13.7233   53.8863 H   0  0  0  0  0  0  0  0  0  0  0  0
 10 11  2  0  0  0
 11 12  1  0  0  0
 12 13  2  0  0  0
 13  4  1  0  0  0
  4  5  2  0  0  0
  5  6  1  0  0  0
  6  7  2  0  0  0
  7  3  1  0  0  0
  3  2  1  0  0  0
  2  1  1  0  0  0
  1 16  1  0  0  0
 16 17  1  0  0  0
 17 18  1  0  0  0
 18 19  1  0  0  0
 19 20  1  0  0  0
 20 23  1  0  0  0
 23 24  1  0  0  0
 24 25  2  0  0  0
 25 26  1  0  0  0
 26 27  2  0  0  0
 27 28  1  0  0  0
 20 21  1  0  0  0
 21 22  1  0  0  0
  7  8  1  0  0  0
  8  9  2  0  0  0
 13 14  1  0  0  0
 14 15  2  0  0  0
 15 10  1  0  0  0
  9  4  1  0  0  0
 22 17  1  0  0  0
 28 24  1  0  0  0
 28 29  1  0  0  0
M  END
> <minimizedAffinity>
23.43934

> <CNNscore>
0.4567647278

> <CNNaffinity>
6.0740046501

> <CNN_VS>
2.7743911743

> <CNNaffinity_variance>
0.5285254121

$$$$
[H]OC(=O)[C@]1([H])N([H])[C@@]([H])(C([H])([H])C([H])([H])c2c([H])c([H])c([H])c([H])c2[H])C(=O)N([H])[C@]([H])(C(=O)N([H])C([H])([H])[H])C([H])([H])C([H])([H])C(=O)OC([H])([H])C([H])([H])N([H])C(=O)C([H])([H])C1([H])[H]


 39 40  0  0  0  0  0  0  0  0999 V2000
   26.3034    9.3682   56.6558 C   0  0  0  0  0  0  0  0  0  0  0  0
   27.0675    8.4625   55.7471 C   0  0  0  0  0  0  0  0  0  0  0  0
   28.4749    8.8354   55.4385 C   0  0  0  0  0  0  0  0  0  0  0  0
   28.7640    8.5894   53.9781 C   0  0  0  0  0  0  0  0  0  0  0  0
   28.6687    9.6061   53.2090 O   0  0  0  0  0  0  0  0  0  0  0  0
   29.1096    7.3749   53.4605 O   0  0  0  0  0  0  0  0  0  0  0  0
   28.4943    6.1434   53.6057 C   0  0  0  0  0  0  0  0  0  0  0  0
   27.4961    5.8066   52.4977 C   0  0  0  0  0  0  0  0  0  0  0  0
   26.6333    4.7607   52.9735 N   0  0  0  0  0  0  0  0  0  0  0  0
   25.3026    4.5099   52.5713 C   0  0  0  0  0  0  0  0  0  0  0  0
   24.9242    3.3208   52.2869 O   0  0  0  0  0  0  0  0  0  0  0  0
   24.2467    5.5605   52.4422 C   0  0  0  0  0  0  0  0  0  0  0  0
   24.3271    6.5716   53.5387 C   0  0  0  0  0  0  0  0  0  0  0  0
   23.5230    6.2489   54.7803 C   0  0  0  0  0  0  0  0  0  0  0  0
   23.6686    7.3402   55.6991 N   0  0  0  0  0  0  0  0  0  0  0  0
   23.2081    8.6162   55.3682 C   0  0  0  0  0  0  0  0  0  0  0  0
   24.2373    9.6688   55.1419 C   0  0  0  0  0  0  0  0  0  0  0  0
   24.1614   10.2506   54.0026 O   0  0  0  0  0  0  0  0  0  0  0  0
   25.2509   10.1075   55.9748 N   0  0  0  0  0  0  0  0  0  0  0  0
   27.0294    4.0986   53.7031 H   0  0  0  0  0  0  0  0  0  0  0  0
   23.6024    6.9980   56.6549 H   0  0  0  0  0  0  0  0  0  0  0  0
   25.2962   11.1637   56.1707 H   0  0  0  0  0  0  0  0  0  0  0  0
   29.0426   10.5261   59.0805 C   0  0  0  0  0  0  0  0  0  0  0  0
   28.1556    9.6959   58.3059 N   0  0  0  0  0  0  0  0  0  0  0  0
   27.1983   10.2384   57.4369 C   0  0  0  0  0  0  0  0  0  0  0  0
   27.1063   11.4718   57.3269 O   0  0  0  0  0  0  0  0  0  0  0  0
   28.2292    8.6612   58.3963 H   0  0  0  0  0  0  0  0  0  0  0  0
   22.1575    5.8226   54.4829 C   0  0  0  0  0  0  0  0  0  0  0  0
   21.7484    5.2962   53.4228 O   0  0  0  0  0  0  0  0  0  0  0  0
   21.2000    6.0279   55.4934 O   0  0  0  0  0  0  0  0  0  0  0  0
   20.6498    6.8710   55.3984 H   0  0  0  0  0  0  0  0  0  0  0  0
   22.1403    9.1500   56.3302 C   0  0  0  0  0  0  0  0  0  0  0  0
   21.1656   10.0367   55.6335 C   0  0  0  0  0  0  0  0  0  0  0  0
   21.1618    9.8024   54.1545 C   0  0  0  0  0  0  0  0  0  0  0  0
   21.4628   10.7738   53.2497 C   0  0  0  0  0  0  0  0  0  0  0  0
   21.4278   10.4326   51.9029 C   0  0  0  0  0  0  0  0  0  0  0  0
   21.1017    9.1598   51.4758 C   0  0  0  0  0  0  0  0  0  0  0  0
   20.7998    8.1883   52.4012 C   0  0  0  0  0  0  0  0  0  0  0  0
   20.8364    8.5329   53.7325 C   0  0  0  0  0  0  0  0  0  0  0  0
 23 24  1  0  0  0
 24 25  1  0  0  0
 25 26  2  0  0  0
 25  1  1  0  0  0
  1  2  1  0  0  0
  2  3  1  0  0  0
  3  4  1  0  0  0
  4  5  2  0  0  0
  4  6  1  0  0  0
  6  7  1  0  0  0
  7  8  1  0  0  0
  8  9  1  0  0  0
  9 10  1  0  0  0
 10 11  2  0  0  0
 10 12  1  0  0  0
 12 13  1  0  0  0
 13 14  1  0  0  0
 14 28  1  0  0  0
 28 29  2  0  0  0
 28 30  1  0  0  0
 14 15  1  0  0  0
 15 16  1  0  0  0
 16 32  1  0  0  0
 32 33  1  0  0  0
 33 34  1  0  0  0
 34 35  2  0  0  0
 35 36  1  0  0  0
 36 37  2  0  0  0
 37 38  1  0  0  0
 38 39  2  0  0  0
 16 17  1  0  0  0
 17 18  2  0  0  0
 17 19  1  0  0  0
 19  1  1  0  0  0
 39 34  1  0  0  0
 24 27  1  0  0  0
  9 20  1  0  0  0
 30 31  1  0  0  0
 15 21  1  0  0  0
 19 22  1  0  0  0
M  END
> <minimizedAffinity>
51.45817

> <CNNscore>
0.3098650873

> <CNNaffinity>
5.6251296997

> <CNN_VS>
1.7430312634

> <CNNaffinity_variance>
0.4282513261

$$$$
[H]OC(=O)[C@]1([H])N([H])[C@@]([H])(C([H])([H])C([H])([H])c2c([H])c([H])c([H])c([H])c2[H])C(=O)N([H])[C@]([H])(C(=O)N([H])C([H])([H])[H])C([H])([H])C([H])([H])C(=O)OC([H])([H])C([H])([H])N([H])C(=O)C([H])([H])C1([H])[H]


 39 40  0  0  0  0  0  0  0  0999 V2000
   21.2561    9.6794   55.1962 C   0  0  0  0  0  0  0  0  0  0  0  0
   22.6523    9.9319   55.6615 C   0  0  0  0  0  0  0  0  0  0  0  0
   22.9131   11.2140   56.3711 C   0  0  0  0  0  0  0  0  0  0  0  0
   24.2281   11.7965   55.9147 C   0  0  0  0  0  0  0  0  0  0  0  0
   24.1588   12.6909   55.0039 O   0  0  0  0  0  0  0  0  0  0  0  0
   25.4433   11.4248   56.4121 O   0  0  0  0  0  0  0  0  0  0  0  0
   25.9891   10.1616   56.5631 C   0  0  0  0  0  0  0  0  0  0  0  0
   26.8561    9.7085   55.3881 C   0  0  0  0  0  0  0  0  0  0  0  0
   26.9894    8.2793   55.4535 N   0  0  0  0  0  0  0  0  0  0  0  0
   27.2058    7.3970   54.3717 C   0  0  0  0  0  0  0  0  0  0  0  0
   28.0947    6.4796   54.4509 O   0  0  0  0  0  0  0  0  0  0  0  0
   26.4526    7.4421   53.0810 C   0  0  0  0  0  0  0  0  0  0  0  0
   25.0037    7.7399   53.2893 C   0  0  0  0  0  0  0  0  0  0  0  0
   24.1151    6.5315   53.4948 C   0  0  0  0  0  0  0  0  0  0  0  0
   22.7630    6.9918   53.6226 N   0  0  0  0  0  0  0  0  0  0  0  0
   22.1319    7.6504   52.5655 C   0  0  0  0  0  0  0  0  0  0  0  0
   21.8358    9.0983   52.7513 C   0  0  0  0  0  0  0  0  0  0  0  0
   22.3227    9.8615   51.8442 O   0  0  0  0  0  0  0  0  0  0  0  0
   21.1167    9.7325   53.7484 N   0  0  0  0  0  0  0  0  0  0  0  0
   26.9226    7.8287   56.4127 H   0  0  0  0  0  0  0  0  0  0  0  0
   22.2395    6.3620   54.2261 H   0  0  0  0  0  0  0  0  0  0  0  0
   20.3165   10.3785   53.4349 H   0  0  0  0  0  0  0  0  0  0  0  0
   18.4258   10.8194   57.5227 C   0  0  0  0  0  0  0  0  0  0  0  0
   19.3851   10.0005   56.8261 N   0  0  0  0  0  0  0  0  0  0  0  0
   20.2849   10.5378   55.8948 C   0  0  0  0  0  0  0  0  0  0  0  0
   20.2594   11.7564   55.6576 O   0  0  0  0  0  0  0  0  0  0  0  0
   19.4087    8.9780   57.0217 H   0  0  0  0  0  0  0  0  0  0  0  0
   24.3552    5.4717   52.5179 C   0  0  0  0  0  0  0  0  0  0  0  0
   24.9274    4.3767   52.7222 O   0  0  0  0  0  0  0  0  0  0  0  0
   23.8980    5.7077   51.2083 O   0  0  0  0  0  0  0  0  0  0  0  0
   24.5958    6.0605   50.5670 H   0  0  0  0  0  0  0  0  0  0  0  0
   20.8716    6.9356   52.0642 C   0  0  0  0  0  0  0  0  0  0  0  0
   19.7462    7.0592   53.0337 C   0  0  0  0  0  0  0  0  0  0  0  0
   19.1595    5.7245   53.3750 C   0  0  0  0  0  0  0  0  0  0  0  0
   19.8596    4.5610   53.2796 C   0  0  0  0  0  0  0  0  0  0  0  0
   19.2054    3.3854   53.6280 C   0  0  0  0  0  0  0  0  0  0  0  0
   17.8925    3.3750   54.0580 C   0  0  0  0  0  0  0  0  0  0  0  0
   17.1973    4.5581   54.1495 C   0  0  0  0  0  0  0  0  0  0  0  0
   17.8509    5.7179   53.8031 C   0  0  0  0  0  0  0  0  0  0  0  0
 23 24  1  0  0  0
 24 25  1  0  0  0
 25 26  2  0  0  0
 25  1  1  0  0  0
  1  2  1  0  0  0
  2  3  1  0  0  0
  3  4  1  0  0  0
  4  5  2  0  0  0
  4  6  1  0  0  0
  6  7  1  0  0  0
  7  8  1  0  0  0
  8  9  1  0  0  0
  9 10  1  0  0  0
 10 11  2  0  0  0
 10 12  1  0  0  0
 12 13  1  0  0  0
 13 14  1  0  0  0
 14 28  1  0  0  0
 28 29  2  0  0  0
 28 30  1  0  0  0
 14 15  1  0  0  0
 15 16  1  0  0  0
 16 32  1  0  0  0
 32 33  1  0  0  0
 33 34  1  0  0  0
 34 35  2  0  0  0
 35 36  1  0  0  0
 36 37  2  0  0  0
 37 38  1  0  0  0
 38 39  2  0  0  0
 16 17  1  0  0  0
 17 18  2  0  0  0
 17 19  1  0  0  0
 19  1  1  0  0  0
 39 34  1  0  0  0
 24 27  1  0  0  0
  9 20  1  0  0  0
 30 31  1  0  0  0
 15 21  1  0  0  0
 19 22  1  0  0  0
M  END
> <minimizedAffinity>
61.77338

> <CNNscore>
0.0817980468

> <CNNaffinity>
4.9174470901

> <CNN_VS>
0.4022375643

> <CNNaffinity_variance>
3.0585215092

$$$$
[H]OC(=O)[C@]1([H])N([H])[C@@]([H])(C([H])([H])C([H])([H])c2c([H])c([H])c([H])c([H])c2[H])C(=O)N([H])[C@]([H])(C(=O)N([H])C([H])([H])[H])C([H])([H])C([H])([H])C(=O)OC([H])([H])C([H])([H])N([H])C(=O)C([H])([H])C1([H])[H]


 39 40  0  0  0  0  0  0  0  0999 V2000
   20.5690    8.3897   55.3094 C   0  0  0  0  0  0  0  0  0  0  0  0
   21.8961    9.0089   55.6013 C   0  0  0  0  0  0  0  0  0  0  0  0
   21.8984   10.4055   56.1159 C   0  0  0  0  0  0  0  0  0  0  0  0
   23.0090   11.1922   55.4642 C   0  0  0  0  0  0  0  0  0  0  0  0
   22.6736   11.9083   54.4596 O   0  0  0  0  0  0  0  0  0  0  0  0
   24.3075   11.1739   55.8835 O   0  0  0  0  0  0  0  0  0  0  0  0
   25.1405   10.0979   56.1376 C   0  0  0  0  0  0  0  0  0  0  0  0
   26.0091    9.6831   54.9498 C   0  0  0  0  0  0  0  0  0  0  0  0
   26.4747    8.3434   55.1804 N   0  0  0  0  0  0  0  0  0  0  0  0
   26.8180    7.3843   54.2017 C   0  0  0  0  0  0  0  0  0  0  0  0
   27.8988    6.7072   54.3082 O   0  0  0  0  0  0  0  0  0  0  0  0
   25.9911    7.0752   52.9951 C   0  0  0  0  0  0  0  0  0  0  0  0
   24.5298    7.0723   53.3046 C   0  0  0  0  0  0  0  0  0  0  0  0
   23.9617    5.7399   53.7454 C   0  0  0  0  0  0  0  0  0  0  0  0
   22.5512    5.9035   53.9456 N   0  0  0  0  0  0  0  0  0  0  0  0
   21.7157    6.2470   52.8808 C   0  0  0  0  0  0  0  0  0  0  0  0
   21.1044    7.6048   52.9118 C   0  0  0  0  0  0  0  0  0  0  0  0
   21.3395    8.3178   51.8732 O   0  0  0  0  0  0  0  0  0  0  0  0
   20.3254    8.2014   53.8869 N   0  0  0  0  0  0  0  0  0  0  0  0
   26.5782    8.0323   56.1904 H   0  0  0  0  0  0  0  0  0  0  0  0
   22.2294    5.2673   54.6713 H   0  0  0  0  0  0  0  0  0  0  0  0
   19.3781    8.6025   53.5744 H   0  0  0  0  0  0  0  0  0  0  0  0
   18.5228   11.1887   56.9531 C   0  0  0  0  0  0  0  0  0  0  0  0
   19.5806   10.4679   56.2917 N   0  0  0  0  0  0  0  0  0  0  0  0
   19.4735    9.1038   55.9863 C   0  0  0  0  0  0  0  0  0  0  0  0
   18.4377    8.4914   56.2929 O   0  0  0  0  0  0  0  0  0  0  0  0
   20.4511   10.9779   56.0339 H   0  0  0  0  0  0  0  0  0  0  0  0
   24.3760    4.6300   52.8902 C   0  0  0  0  0  0  0  0  0  0  0  0
   24.5071    3.4307   53.2260 O   0  0  0  0  0  0  0  0  0  0  0  0
   24.6610    4.9420   51.5481 O   0  0  0  0  0  0  0  0  0  0  0  0
   25.6396    5.0891   51.3400 H   0  0  0  0  0  0  0  0  0  0  0  0
   20.6255    5.2067   52.5982 C   0  0  0  0  0  0  0  0  0  0  0  0
   20.0691    4.6363   53.8578 C   0  0  0  0  0  0  0  0  0  0  0  0
   18.7551    3.9568   53.6257 C   0  0  0  0  0  0  0  0  0  0  0  0
   18.5986    2.9251   52.7516 C   0  0  0  0  0  0  0  0  0  0  0  0
   17.3288    2.3746   52.6259 C   0  0  0  0  0  0  0  0  0  0  0  0
   16.2503    2.8421   53.3518 C   0  0  0  0  0  0  0  0  0  0  0  0
   16.4230    3.8852   54.2313 C   0  0  0  0  0  0  0  0  0  0  0  0
   17.6825    4.4253   54.3508 C   0  0  0  0  0  0  0  0  0  0  0  0
 23 24  1  0  0  0
 24 25  1  0  0  0
 25 26  2  0  0  0
 25  1  1  0  0  0
  1  2  1  0  0  0
  2  3  1  0  0  0
  3  4  1  0  0  0
  4  5  2  0  0  0
  4  6  1  0  0  0
  6  7  1  0  0  0
  7  8  1  0  0  0
  8  9  1  0  0  0
  9 10  1  0  0  0
 10 11  2  0  0  0
 10 12  1  0  0  0
 12 13  1  0  0  0
 13 14  1  0  0  0
 14 28  1  0  0  0
 28 29  2  0  0  0
 28 30  1  0  0  0
 14 15  1  0  0  0
 15 16  1  0  0  0
 16 32  1  0  0  0
 32 33  1  0  0  0
 33 34  1  0  0  0
 34 35  2  0  0  0
 35 36  1  0  0  0
 36 37  2  0  0  0
 37 38  1  0  0  0
 38 39  2  0  0  0
 16 17  1  0  0  0
 17 18  2  0  0  0
 17 19  1  0  0  0
 19  1  1  0  0  0
 39 34  1  0  0  0
 24 27  1  0  0  0
  9 20  1  0  0  0
 30 31  1  0  0  0
 15 21  1  0  0  0
 19 22  1  0  0  0
M  END
> <minimizedAffinity>
61.76147

> <CNNscore>
0.0781620443

> <CNNaffinity>
4.9610843658

> <CNN_VS>
0.3877685070

> <CNNaffinity_variance>
2.5271058083

$$$$
[H]OC(=O)[C@]1([H])N([H])[C@@]([H])(C([H])([H])C([H])([H])c2c([H])c([H])c([H])c([H])c2[H])C(=O)N([H])[C@]([H])(C(=O)N([H])C([H])([H])[H])C([H])([H])C([H])([H])C(=O)OC([H])([H])C([H])([H])N([H])C(=O)C([H])([H])C1([H])[H]


 39 40  0  0  0  0  0  0  0  0999 V2000
   21.5683    7.6204   53.5879 C   0  0  0  0  0  0  0  0  0  0  0  0
   22.9256    7.0539   53.3299 C   0  0  0  0  0  0  0  0  0  0  0  0
   22.9962    5.6543   52.8285 C   0  0  0  0  0  0  0  0  0  0  0  0
   24.1238    4.9196   53.5109 C   0  0  0  0  0  0  0  0  0  0  0  0
   23.7965    4.1988   54.5147 O   0  0  0  0  0  0  0  0  0  0  0  0
   25.4292    4.9877   53.1190 O   0  0  0  0  0  0  0  0  0  0  0  0
   26.2227    6.0950   52.8725 C   0  0  0  0  0  0  0  0  0  0  0  0
   27.0479    6.5552   54.0746 C   0  0  0  0  0  0  0  0  0  0  0  0
   27.4631    7.9109   53.8414 N   0  0  0  0  0  0  0  0  0  0  0  0
   27.7456    8.8916   54.8181 C   0  0  0  0  0  0  0  0  0  0  0  0
   28.7998    9.6116   54.7283 O   0  0  0  0  0  0  0  0  0  0  0  0
   26.8809    9.1765   56.0041 C   0  0  0  0  0  0  0  0  0  0  0  0
   25.4277    9.1167   55.6637 C   0  0  0  0  0  0  0  0  0  0  0  0
   24.8151   10.4207   55.1986 C   0  0  0  0  0  0  0  0  0  0  0  0
   23.4172   10.1975   54.9701 N   0  0  0  0  0  0  0  0  0  0  0  0
   22.5737    9.8290   56.0201 C   0  0  0  0  0  0  0  0  0  0  0  0
   22.0194    8.4469   55.9888 C   0  0  0  0  0  0  0  0  0  0  0  0
   22.2611    7.7530   57.0388 O   0  0  0  0  0  0  0  0  0  0  0  0
   21.2867    7.8105   55.0030 N   0  0  0  0  0  0  0  0  0  0  0  0
   27.5754    8.2175   52.8310 H   0  0  0  0  0  0  0  0  0  0  0  0
   23.0853   10.8138   54.2319 H   0  0  0  0  0  0  0  0  0  0  0  0
   20.3501    7.3734   55.2992 H   0  0  0  0  0  0  0  0  0  0  0  0
   19.0071    4.8849   52.7633 C   0  0  0  0  0  0  0  0  0  0  0  0
   20.0343    5.6506   53.4224 N   0  0  0  0  0  0  0  0  0  0  0  0
   20.5178    6.8562   52.8947 C   0  0  0  0  0  0  0  0  0  0  0  0
   20.0510    7.2829   51.8261 O   0  0  0  0  0  0  0  0  0  0  0  0
   20.4289    5.2953   54.3181 H   0  0  0  0  0  0  0  0  0  0  0  0
   25.1651   11.5539   56.0520 C   0  0  0  0  0  0  0  0  0  0  0  0
   24.7390   12.7275   55.9554 O   0  0  0  0  0  0  0  0  0  0  0  0
   26.0803   11.3007   57.0904 O   0  0  0  0  0  0  0  0  0  0  0  0
   27.0421   11.5322   56.8809 H   0  0  0  0  0  0  0  0  0  0  0  0
   21.4360   10.8258   56.2699 C   0  0  0  0  0  0  0  0  0  0  0  0
   20.3873   10.7401   55.2142 C   0  0  0  0  0  0  0  0  0  0  0  0
   20.9228   11.1209   53.8687 C   0  0  0  0  0  0  0  0  0  0  0  0
   21.2703   12.3962   53.5433 C   0  0  0  0  0  0  0  0  0  0  0  0
   21.7585   12.6237   52.2622 C   0  0  0  0  0  0  0  0  0  0  0  0
   21.8943   11.6071   51.3366 C   0  0  0  0  0  0  0  0  0  0  0  0
   21.5391   10.3233   51.6790 C   0  0  0  0  0  0  0  0  0  0  0  0
   21.0567   10.1054   52.9487 C   0  0  0  0  0  0  0  0  0  0  0  0
 23 24  1  0  0  0
 24 25  1  0  0  0
 25 26  2  0  0  0
 25  1  1  0  0  0
  1  2  1  0  0  0
  2  3  1  0  0  0
  3  4  1  0  0  0
  4  5  2  0  0  0
  4  6  1  0  0  0
  6  7  1  0  0  0
  7  8  1  0  0  0
  8  9  1  0  0  0
  9 10  1  0  0  0
 10 11  2  0  0  0
 10 12  1  0  0  0
 12 13  1  0  0  0
 13 14  1  0  0  0
 14 28  1  0  0  0
 28 29  2  0  0  0
 28 30  1  0  0  0
 14 15  1  0  0  0
 15 16  1  0  0  0
 16 32  1  0  0  0
 32 33  1  0  0  0
 33 34  1  0  0  0
 34 35  2  0  0  0
 35 36  1  0  0  0
 36 37  2  0  0  0
 37 38  1  0  0  0
 38 39  2  0  0  0
 16 17  1  0  0  0
 17 18  2  0  0  0
 17 19  1  0  0  0
 19  1  1  0  0  0
 39 34  1  0  0  0
 24 27  1  0  0  0
  9 20  1  0  0  0
 30 31  1  0  0  0
 15 21  1  0  0  0
 19 22  1  0  0  0
M  END
> <minimizedAffinity>
49.90313

> <CNNscore>
0.0712947473

> <CNNaffinity>
5.4857721329

> <CNN_VS>
0.3911067247

> <CNNaffinity_variance>
2.3561036587

$$$$
[H]OC(=O)[C@]1([H])N([H])[C@@]([H])(C([H])([H])C([H])([H])c2c([H])c([H])c([H])c([H])c2[H])C(=O)N([H])[C@]([H])(C(=O)N([H])C([H])([H])[H])C([H])([H])C([H])([H])C(=O)OC([H])([H])C([H])([H])N([H])C(=O)C([H])([H])C1([H])[H]


 39 40  0  0  0  0  0  0  0  0999 V2000
   26.0921    7.0250   53.6083 C   0  0  0  0  0  0  0  0  0  0  0  0
   25.8590    8.3185   54.3169 C   0  0  0  0  0  0  0  0  0  0  0  0
   26.9573    8.8296   55.1817 C   0  0  0  0  0  0  0  0  0  0  0  0
   26.3858    9.3962   56.4581 C   0  0  0  0  0  0  0  0  0  0  0  0
   26.3919    8.6150   57.4700 O   0  0  0  0  0  0  0  0  0  0  0  0
   25.8812   10.6586   56.5763 O   0  0  0  0  0  0  0  0  0  0  0  0
   24.9424   11.3131   55.7974 C   0  0  0  0  0  0  0  0  0  0  0  0
   23.5080   11.1964   56.3136 C   0  0  0  0  0  0  0  0  0  0  0  0
   22.6151   11.5154   55.2339 N   0  0  0  0  0  0  0  0  0  0  0  0
   21.2944   11.0458   55.0583 C   0  0  0  0  0  0  0  0  0  0  0  0
   20.3541   11.8560   54.7465 O   0  0  0  0  0  0  0  0  0  0  0  0
   20.8780    9.6181   55.2117 C   0  0  0  0  0  0  0  0  0  0  0  0
   21.8941    8.6762   54.6535 C   0  0  0  0  0  0  0  0  0  0  0  0
   21.7202    8.3249   53.1911 C   0  0  0  0  0  0  0  0  0  0  0  0
   22.7376    7.3780   52.8384 N   0  0  0  0  0  0  0  0  0  0  0  0
   22.7816    6.1208   53.4445 C   0  0  0  0  0  0  0  0  0  0  0  0
   23.9226    5.8528   54.3635 C   0  0  0  0  0  0  0  0  0  0  0  0
   23.5808    5.4922   55.5448 O   0  0  0  0  0  0  0  0  0  0  0  0
   25.2837    5.9327   54.1294 N   0  0  0  0  0  0  0  0  0  0  0  0
   22.9755   12.1759   54.4847 H   0  0  0  0  0  0  0  0  0  0  0  0
   22.9878    7.4889   51.8586 H   0  0  0  0  0  0  0  0  0  0  0  0
   25.8688    5.0610   54.3609 H   0  0  0  0  0  0  0  0  0  0  0  0
   29.3788    5.2904   52.6533 C   0  0  0  0  0  0  0  0  0  0  0  0
   27.9826    5.6358   52.7382 N   0  0  0  0  0  0  0  0  0  0  0  0
   27.5247    6.6917   53.5389 C   0  0  0  0  0  0  0  0  0  0  0  0
   28.3424    7.3537   54.1984 O   0  0  0  0  0  0  0  0  0  0  0  0
   27.2939    5.0823   52.1873 H   0  0  0  0  0  0  0  0  0  0  0  0
   20.3459    7.9659   52.8483 C   0  0  0  0  0  0  0  0  0  0  0  0
   19.3841    7.8332   53.6393 O   0  0  0  0  0  0  0  0  0  0  0  0
   20.0751    7.7426   51.4857 O   0  0  0  0  0  0  0  0  0  0  0  0
   20.0944    6.7735   51.1975 H   0  0  0  0  0  0  0  0  0  0  0  0
   22.6449    4.9587   52.4538 C   0  0  0  0  0  0  0  0  0  0  0  0
   22.1114    3.7331   53.1133 C   0  0  0  0  0  0  0  0  0  0  0  0
   20.6248    3.7962   53.2811 C   0  0  0  0  0  0  0  0  0  0  0  0
   19.9801    4.8912   53.7694 C   0  0  0  0  0  0  0  0  0  0  0  0
   18.5958    4.8295   53.8754 C   0  0  0  0  0  0  0  0  0  0  0  0
   17.8800    3.7075   53.5046 C   0  0  0  0  0  0  0  0  0  0  0  0
   18.5445    2.6084   53.0129 C   0  0  0  0  0  0  0  0  0  0  0  0
   19.9146    2.6764   52.9107 C   0  0  0  0  0  0  0  0  0  0  0  0
 23 24  1  0  0  0
 24 25  1  0  0  0
 25 26  2  0  0  0
 25  1  1  0  0  0
  1  2  1  0  0  0
  2  3  1  0  0  0
  3  4  1  0  0  0
  4  5  2  0  0  0
  4  6  1  0  0  0
  6  7  1  0  0  0
  7  8  1  0  0  0
  8  9  1  0  0  0
  9 10  1  0  0  0
 10 11  2  0  0  0
 10 12  1  0  0  0
 12 13  1  0  0  0
 13 14  1  0  0  0
 14 28  1  0  0  0
 28 29  2  0  0  0
 28 30  1  0  0  0
 14 15  1  0  0  0
 15 16  1  0  0  0
 16 32  1  0  0  0
 32 33  1  0  0  0
 33 34  1  0  0  0
 34 35  2  0  0  0
 35 36  1  0  0  0
 36 37  2  0  0  0
 37 38  1  0  0  0
 38 39  2  0  0  0
 16 17  1  0  0  0
 17 18  2  0  0  0
 17 19  1  0  0  0
 19  1  1  0  0  0
 39 34  1  0  0  0
 24 27  1  0  0  0
  9 20  1  0  0  0
 30 31  1  0  0  0
 15 21  1  0  0  0
 19 22  1  0  0  0
M  END
> <minimizedAffinity>
59.72863

> <CNNscore>
0.0555502847

> <CNNaffinity>
5.0212326050

> <CNN_VS>
0.2789309025

> <CNNaffinity_variance>
1.7101138830

$$$$
[H]OC(=O)[C@]1([H])N([H])[C@@]([H])(C([H])([H])C([H])([H])c2c([H])c([H])c([H])c([H])c2[H])C(=O)N([H])[C@]([H])(C(=O)N([H])C([H])([H])[H])C([H])([H])C([H])([H])C(=O)OC([H])([H])C([H])([H])N([H])C(=O)C([H])([H])C1([H])[H]


 39 40  0  0  0  0  0  0  0  0999 V2000
   22.3864    9.7504   52.8568 C   0  0  0  0  0  0  0  0  0  0  0  0
   21.2299    8.8163   52.9968 C   0  0  0  0  0  0  0  0  0  0  0  0
   19.9339    9.3976   53.4417 C   0  0  0  0  0  0  0  0  0  0  0  0
   19.2688    8.4739   54.4323 C   0  0  0  0  0  0  0  0  0  0  0  0
   19.4463    8.7547   55.6668 O   0  0  0  0  0  0  0  0  0  0  0  0
   18.5143    7.3920   54.0825 O   0  0  0  0  0  0  0  0  0  0  0  0
   18.8080    6.3497   53.2201 C   0  0  0  0  0  0  0  0  0  0  0  0
   19.4084    5.1208   53.9032 C   0  0  0  0  0  0  0  0  0  0  0  0
   20.0572    4.3219   52.9005 N   0  0  0  0  0  0  0  0  0  0  0  0
   21.1517    3.4489   53.0884 C   0  0  0  0  0  0  0  0  0  0  0  0
   21.1367    2.2722   52.5853 O   0  0  0  0  0  0  0  0  0  0  0  0
   22.3851    3.7942   53.8597 C   0  0  0  0  0  0  0  0  0  0  0  0
   22.8179    5.2036   53.6203 C   0  0  0  0  0  0  0  0  0  0  0  0
   23.7709    5.4025   52.4608 C   0  0  0  0  0  0  0  0  0  0  0  0
   24.1229    6.7917   52.4093 N   0  0  0  0  0  0  0  0  0  0  0  0
   24.8094    7.3922   53.4666 C   0  0  0  0  0  0  0  0  0  0  0  0
   24.0625    8.3965   54.2740 C   0  0  0  0  0  0  0  0  0  0  0  0
   24.0261    8.1479   55.5307 O   0  0  0  0  0  0  0  0  0  0  0  0
   23.4116    9.5483   53.8698 N   0  0  0  0  0  0  0  0  0  0  0  0
   19.6794    4.3848   51.9101 H   0  0  0  0  0  0  0  0  0  0  0  0
   24.3131    7.0642   51.4478 H   0  0  0  0  0  0  0  0  0  0  0  0
   23.6854   10.4613   54.3671 H   0  0  0  0  0  0  0  0  0  0  0  0
   21.4257   13.1687   51.4023 C   0  0  0  0  0  0  0  0  0  0  0  0
   21.8536   11.7980   51.5211 N   0  0  0  0  0  0  0  0  0  0  0  0
   21.9464   11.1525   52.7622 C   0  0  0  0  0  0  0  0  0  0  0  0
   21.6527   11.7756   53.7953 O   0  0  0  0  0  0  0  0  0  0  0  0
   22.1018   11.2726   50.6570 H   0  0  0  0  0  0  0  0  0  0  0  0
   24.8767    4.4475   52.4585 C   0  0  0  0  0  0  0  0  0  0  0  0
   25.0585    3.5061   53.2641 O   0  0  0  0  0  0  0  0  0  0  0  0
   25.8412    4.6038   51.4460 O   0  0  0  0  0  0  0  0  0  0  0  0
   26.6676    5.1201   51.7164 H   0  0  0  0  0  0  0  0  0  0  0  0
   26.1676    7.9766   53.0611 C   0  0  0  0  0  0  0  0  0  0  0  0
   27.2600    7.5048   53.9587 C   0  0  0  0  0  0  0  0  0  0  0  0
   27.6876    8.5710   54.9193 C   0  0  0  0  0  0  0  0  0  0  0  0
   28.7241    9.4183   54.6726 C   0  0  0  0  0  0  0  0  0  0  0  0
   29.0232   10.3689   55.6411 C   0  0  0  0  0  0  0  0  0  0  0  0
   28.3078   10.4681   56.8188 C   0  0  0  0  0  0  0  0  0  0  0  0
   27.2630    9.6054   57.0548 C   0  0  0  0  0  0  0  0  0  0  0  0
   26.9724    8.6669   56.0919 C   0  0  0  0  0  0  0  0  0  0  0  0
 23 24  1  0  0  0
 24 25  1  0  0  0
 25 26  2  0  0  0
 25  1  1  0  0  0
  1  2  1  0  0  0
  2  3  1  0  0  0
  3  4  1  0  0  0
  4  5  2  0  0  0
  4  6  1  0  0  0
  6  7  1  0  0  0
  7  8  1  0  0  0
  8  9  1  0  0  0
  9 10  1  0  0  0
 10 11  2  0  0  0
 10 12  1  0  0  0
 12 13  1  0  0  0
 13 14  1  0  0  0
 14 28  1  0  0  0
 28 29  2  0  0  0
 28 30  1  0  0  0
 14 15  1  0  0  0
 15 16  1  0  0  0
 16 32  1  0  0  0
 32 33  1  0  0  0
 33 34  1  0  0  0
 34 35  2  0  0  0
 35 36  1  0  0  0
 36 37  2  0  0  0
 37 38  1  0  0  0
 38 39  2  0  0  0
 16 17  1  0  0  0
 17 18  2  0  0  0
 17 19  1  0  0  0
 19  1  1  0  0  0
 39 34  1  0  0  0
 24 27  1  0  0  0
  9 20  1  0  0  0
 30 31  1  0  0  0
 15 21  1  0  0  0
 19 22  1  0  0  0
M  END
> <minimizedAffinity>
60.41306

> <CNNscore>
0.0427395180

> <CNNaffinity>
5.2299528122

> <CNN_VS>
0.2235256582

> <CNNaffinity_variance>
2.5149638653

$$$$
[H]OC(=O)[C@]1([H])N([H])[C@@]([H])(C([H])([H])C([H])([H])c2c([H])c([H])c([H])c([H])c2[H])C(=O)N([H])[C@]([H])(C(=O)N([H])C([H])([H])[H])C([H])([H])C([H])([H])C(=O)OC([H])([H])C([H])([H])N([H])C(=O)C([H])([H])C1([H])[H]


 39 40  0  0  0  0  0  0  0  0999 V2000
   21.9808    8.2035   50.9185 C   0  0  0  0  0  0  0  0  0  0  0  0
   22.0782    6.9208   50.1603 C   0  0  0  0  0  0  0  0  0  0  0  0
   20.8379    6.1079   50.0337 C   0  0  0  0  0  0  0  0  0  0  0  0
   21.1608    4.6450   50.2146 C   0  0  0  0  0  0  0  0  0  0  0  0
   20.9648    4.1684   51.3846 O   0  0  0  0  0  0  0  0  0  0  0  0
   21.6354    3.8378   49.2219 O   0  0  0  0  0  0  0  0  0  0  0  0
   22.7039    4.0268   48.3623 C   0  0  0  0  0  0  0  0  0  0  0  0
   24.0162    3.4110   48.8483 C   0  0  0  0  0  0  0  0  0  0  0  0
   25.0957    4.0301   48.1299 N   0  0  0  0  0  0  0  0  0  0  0  0
   26.4255    4.1979   48.5759 C   0  0  0  0  0  0  0  0  0  0  0  0
   27.4082    3.9108   47.8080 O   0  0  0  0  0  0  0  0  0  0  0  0
   26.8047    4.7055   49.9301 C   0  0  0  0  0  0  0  0  0  0  0  0
   25.9103    5.8129   50.3827 C   0  0  0  0  0  0  0  0  0  0  0  0
   26.3546    7.2071   49.9939 C   0  0  0  0  0  0  0  0  0  0  0  0
   25.4205    8.1418   50.5506 N   0  0  0  0  0  0  0  0  0  0  0  0
   25.2628    8.2533   51.9336 C   0  0  0  0  0  0  0  0  0  0  0  0
   23.9697    7.7864   52.5065 C   0  0  0  0  0  0  0  0  0  0  0  0
   24.0841    6.9007   53.4256 O   0  0  0  0  0  0  0  0  0  0  0  0
   22.6766    8.1676   52.1963 N   0  0  0  0  0  0  0  0  0  0  0  0
   24.8824    4.4015   47.1582 H   0  0  0  0  0  0  0  0  0  0  0  0
   25.3582    8.9641   49.9549 H   0  0  0  0  0  0  0  0  0  0  0  0
   22.0578    8.4961   53.0119 H   0  0  0  0  0  0  0  0  0  0  0  0
   18.2547    8.3024   51.8289 C   0  0  0  0  0  0  0  0  0  0  0  0
   19.6250    7.8776   51.6960 N   0  0  0  0  0  0  0  0  0  0  0  0
   20.5863    8.6601   51.0408 C   0  0  0  0  0  0  0  0  0  0  0  0
   20.2531    9.7541   50.5571 O   0  0  0  0  0  0  0  0  0  0  0  0
   19.9078    6.9603   52.0995 H   0  0  0  0  0  0  0  0  0  0  0  0
   27.7685    7.4543   50.2676 C   0  0  0  0  0  0  0  0  0  0  0  0
   28.7227    6.6705   50.0593 O   0  0  0  0  0  0  0  0  0  0  0  0
   28.0919    8.7041   50.8273 O   0  0  0  0  0  0  0  0  0  0  0  0
   28.1932    8.7105   51.8334 H   0  0  0  0  0  0  0  0  0  0  0  0
   25.5816    9.6517   52.4751 C   0  0  0  0  0  0  0  0  0  0  0  0
   25.3031   10.7104   51.4635 C   0  0  0  0  0  0  0  0  0  0  0  0
   24.0269   10.4494   50.7249 C   0  0  0  0  0  0  0  0  0  0  0  0
   23.8476   10.7783   49.4162 C   0  0  0  0  0  0  0  0  0  0  0  0
   22.6179   10.4822   48.8404 C   0  0  0  0  0  0  0  0  0  0  0  0
   21.6004    9.8765   49.5521 C   0  0  0  0  0  0  0  0  0  0  0  0
   21.7955    9.5499   50.8737 C   0  0  0  0  0  0  0  0  0  0  0  0
   23.0150    9.8458   51.4372 C   0  0  0  0  0  0  0  0  0  0  0  0
 23 24  1  0  0  0
 24 25  1  0  0  0
 25 26  2  0  0  0
 25  1  1  0  0  0
  1  2  1  0  0  0
  2  3  1  0  0  0
  3  4  1  0  0  0
  4  5  2  0  0  0
  4  6  1  0  0  0
  6  7  1  0  0  0
  7  8  1  0  0  0
  8  9  1  0  0  0
  9 10  1  0  0  0
 10 11  2  0  0  0
 10 12  1  0  0  0
 12 13  1  0  0  0
 13 14  1  0  0  0
 14 28  1  0  0  0
 28 29  2  0  0  0
 28 30  1  0  0  0
 14 15  1  0  0  0
 15 16  1  0  0  0
 16 32  1  0  0  0
 32 33  1  0  0  0
 33 34  1  0  0  0
 34 35  2  0  0  0
 35 36  1  0  0  0
 36 37  2  0  0  0
 37 38  1  0  0  0
 38 39  2  0  0  0
 16 17  1  0  0  0
 17 18  2  0  0  0
 17 19  1  0  0  0
 19  1  1  0  0  0
 39 34  1  0  0  0
 24 27  1  0  0  0
  9 20  1  0  0  0
 30 31  1  0  0  0
 15 21  1  0  0  0
 19 22  1  0  0  0
M  END
> <minimizedAffinity>
299.06531

> <CNNscore>
0.0342743471

> <CNNaffinity>
3.7700409889

> <CNN_VS>
0.1292156875

> <CNNaffinity_variance>
4.3438463211

$$$$
[H]OC(=O)[C@]1([H])N([H])[C@@]([H])(C([H])([H])C([H])([H])c2c([H])c([H])c([H])c([H])c2[H])C(=O)N([H])[C@]([H])(C(=O)N([H])C([H])([H])[H])C([H])([H])C([H])([H])C(=O)OC([H])([H])C([H])([H])N([H])C(=O)C([H])([H])C1([H])[H]


 39 40  0  0  0  0  0  0  0  0999 V2000
   22.5641    6.1700   56.3049 C   0  0  0  0  0  0  0  0  0  0  0  0
   21.5599    6.0566   55.2056 C   0  0  0  0  0  0  0  0  0  0  0  0
   21.0157    4.7018   54.9164 C   0  0  0  0  0  0  0  0  0  0  0  0
   20.9080    4.4982   53.4251 C   0  0  0  0  0  0  0  0  0  0  0  0
   21.8760    3.8710   52.8739 O   0  0  0  0  0  0  0  0  0  0  0  0
   19.8622    4.9376   52.6665 O   0  0  0  0  0  0  0  0  0  0  0  0
   19.2877    6.1950   52.5946 C   0  0  0  0  0  0  0  0  0  0  0  0
   19.8551    7.0812   51.4854 C   0  0  0  0  0  0  0  0  0  0  0  0
   19.5176    8.4456   51.7841 N   0  0  0  0  0  0  0  0  0  0  0  0
   20.2330    9.6007   51.3974 C   0  0  0  0  0  0  0  0  0  0  0  0
   19.6187   10.6087   50.9028 O   0  0  0  0  0  0  0  0  0  0  0  0
   21.7147    9.7575   51.5205 C   0  0  0  0  0  0  0  0  0  0  0  0
   22.2361    9.1653   52.7888 C   0  0  0  0  0  0  0  0  0  0  0  0
   22.2741   10.1035   53.9764 C   0  0  0  0  0  0  0  0  0  0  0  0
   22.8471    9.3946   55.0834 N   0  0  0  0  0  0  0  0  0  0  0  0
   24.1627    8.9299   55.0276 C   0  0  0  0  0  0  0  0  0  0  0  0
   24.3566    7.4544   54.9676 C   0  0  0  0  0  0  0  0  0  0  0  0
   25.0484    7.0490   53.9679 O   0  0  0  0  0  0  0  0  0  0  0  0
   23.9058    6.4680   55.8264 N   0  0  0  0  0  0  0  0  0  0  0  0
   18.6372    8.6147   52.3531 H   0  0  0  0  0  0  0  0  0  0  0  0
   22.4589    9.7451   55.9560 H   0  0  0  0  0  0  0  0  0  0  0  0
   24.6438    5.7939   56.2225 H   0  0  0  0  0  0  0  0  0  0  0  0
   23.5756    2.9455   58.1221 C   0  0  0  0  0  0  0  0  0  0  0  0
   23.5907    4.0943   57.2527 N   0  0  0  0  0  0  0  0  0  0  0  0
   22.5243    5.0032   57.2022 C   0  0  0  0  0  0  0  0  0  0  0  0
   21.5327    4.8181   57.9262 O   0  0  0  0  0  0  0  0  0  0  0  0
   24.4201    4.2522   56.6433 H   0  0  0  0  0  0  0  0  0  0  0  0
   22.8594   11.4043   53.6597 C   0  0  0  0  0  0  0  0  0  0  0  0
   22.7173   12.0542   52.5987 O   0  0  0  0  0  0  0  0  0  0  0  0
   23.6712   11.9871   54.6503 O   0  0  0  0  0  0  0  0  0  0  0  0
   24.6643   11.8352   54.5354 H   0  0  0  0  0  0  0  0  0  0  0  0
   25.0656    9.5157   56.1195 C   0  0  0  0  0  0  0  0  0  0  0  0
   26.4975    9.1682   55.8948 C   0  0  0  0  0  0  0  0  0  0  0  0
   27.3586    9.5964   57.0427 C   0  0  0  0  0  0  0  0  0  0  0  0
   27.8190    8.7306   57.9868 C   0  0  0  0  0  0  0  0  0  0  0  0
   28.6133    9.2485   59.0028 C   0  0  0  0  0  0  0  0  0  0  0  0
   28.9359   10.5901   59.0715 C   0  0  0  0  0  0  0  0  0  0  0  0
   28.4635   11.4534   58.1108 C   0  0  0  0  0  0  0  0  0  0  0  0
   27.6781   10.9340   57.1080 C   0  0  0  0  0  0  0  0  0  0  0  0
 23 24  1  0  0  0
 24 25  1  0  0  0
 25 26  2  0  0  0
 25  1  1  0  0  0
  1  2  1  0  0  0
  2  3  1  0  0  0
  3  4  1  0  0  0
  4  5  2  0  0  0
  4  6  1  0  0  0
  6  7  1  0  0  0
  7  8  1  0  0  0
  8  9  1  0  0  0
  9 10  1  0  0  0
 10 11  2  0  0  0
 10 12  1  0  0  0
 12 13  1  0  0  0
 13 14  1  0  0  0
 14 28  1  0  0  0
 28 29  2  0  0  0
 28 30  1  0  0  0
 14 15  1  0  0  0
 15 16  1  0  0  0
 16 32  1  0  0  0
 32 33  1  0  0  0
 33 34  1  0  0  0
 34 35  2  0  0  0
 35 36  1  0  0  0
 36 37  2  0  0  0
 37 38  1  0  0  0
 38 39  2  0  0  0
 16 17  1  0  0  0
 17 18  2  0  0  0
 17 19  1  0  0  0
 19  1  1  0  0  0
 39 34  1  0  0  0
 24 27  1  0  0  0
  9 20  1  0  0  0
 30 31  1  0  0  0
 15 21  1  0  0  0
 19 22  1  0  0  0
M  END
> <minimizedAffinity>
59.01624

> <CNNscore>
0.0334247053

> <CNNaffinity>
5.0940756798

> <CNN_VS>
0.1702679843

> <CNNaffinity_variance>
1.6489114761

$$$$
[H]OC(=O)[C@]1([H])N([H])[C@@]([H])(C([H])([H])C([H])([H])c2c([H])c([H])c([H])c([H])c2[H])C(=O)N([H])[C@]([H])(C(=O)N([H])C([H])([H])[H])C([H])([H])C([H])([H])C(=O)OC([H])([H])C([H])([H])N([H])C(=O)C([H])([H])C1([H])[H]


 39 40  0  0  0  0  0  0  0  0999 V2000
   22.0044    5.4313   56.6889 C   0  0  0  0  0  0  0  0  0  0  0  0
   20.6637    5.1200   56.1097 C   0  0  0  0  0  0  0  0  0  0  0  0
   20.0716    3.7939   56.4353 C   0  0  0  0  0  0  0  0  0  0  0  0
   19.4168    3.2076   55.2088 C   0  0  0  0  0  0  0  0  0  0  0  0
   20.1177    2.3683   54.5465 O   0  0  0  0  0  0  0  0  0  0  0  0
   18.1566    3.5218   54.7901 O   0  0  0  0  0  0  0  0  0  0  0  0
   17.5777    4.7612   54.5775 C   0  0  0  0  0  0  0  0  0  0  0  0
   17.6753    5.2598   53.1355 C   0  0  0  0  0  0  0  0  0  0  0  0
   17.4533    6.6795   53.1355 N   0  0  0  0  0  0  0  0  0  0  0  0
   17.9542    7.6165   52.2046 C   0  0  0  0  0  0  0  0  0  0  0  0
   17.1842    8.5068   51.7021 O   0  0  0  0  0  0  0  0  0  0  0  0
   19.3718    7.6626   51.7317 C   0  0  0  0  0  0  0  0  0  0  0  0
   20.3389    7.3875   52.8363 C   0  0  0  0  0  0  0  0  0  0  0  0
   20.8042    8.6029   53.6101 C   0  0  0  0  0  0  0  0  0  0  0  0
   21.7605    8.1679   54.5861 N   0  0  0  0  0  0  0  0  0  0  0  0
   22.9666    7.5854   54.1912 C   0  0  0  0  0  0  0  0  0  0  0  0
   23.1464    6.1367   54.4868 C   0  0  0  0  0  0  0  0  0  0  0  0
   23.4201    5.4151   53.4637 O   0  0  0  0  0  0  0  0  0  0  0  0
   23.0649    5.4639   55.6927 N   0  0  0  0  0  0  0  0  0  0  0  0
   16.8472    7.0762   53.9118 H   0  0  0  0  0  0  0  0  0  0  0  0
   21.7217    8.7745   55.4018 H   0  0  0  0  0  0  0  0  0  0  0  0
   23.9077    4.8557   55.9680 H   0  0  0  0  0  0  0  0  0  0  0  0
   23.6700    2.7333   58.8499 C   0  0  0  0  0  0  0  0  0  0  0  0
   23.3411    3.5995   57.7464 N   0  0  0  0  0  0  0  0  0  0  0  0
   22.3210    4.5576   57.8311 C   0  0  0  0  0  0  0  0  0  0  0  0
   21.6767    4.6683   58.8867 O   0  0  0  0  0  0  0  0  0  0  0  0
   23.8786    3.5089   56.8592 H   0  0  0  0  0  0  0  0  0  0  0  0
   21.2085    9.7104   52.7471 C   0  0  0  0  0  0  0  0  0  0  0  0
   21.3251    9.6881   51.5005 O   0  0  0  0  0  0  0  0  0  0  0  0
   21.5008   10.9304   53.3844 O   0  0  0  0  0  0  0  0  0  0  0  0
   22.4816   11.0947   53.5678 H   0  0  0  0  0  0  0  0  0  0  0  0
   24.2033    8.3569   54.6663 C   0  0  0  0  0  0  0  0  0  0  0  0
   25.4185    7.9816   53.8889 C   0  0  0  0  0  0  0  0  0  0  0  0
   26.6744    8.4139   54.5804 C   0  0  0  0  0  0  0  0  0  0  0  0
   27.9073    8.3048   54.0139 C   0  0  0  0  0  0  0  0  0  0  0  0
   28.9978    8.7438   54.7551 C   0  0  0  0  0  0  0  0  0  0  0  0
   28.8583    9.2748   56.0229 C   0  0  0  0  0  0  0  0  0  0  0  0
   27.6065    9.3790   56.5830 C   0  0  0  0  0  0  0  0  0  0  0  0
   26.5317    8.9426   55.8436 C   0  0  0  0  0  0  0  0  0  0  0  0
 23 24  1  0  0  0
 24 25  1  0  0  0
 25 26  2  0  0  0
 25  1  1  0  0  0
  1  2  1  0  0  0
  2  3  1  0  0  0
  3  4  1  0  0  0
  4  5  2  0  0  0
  4  6  1  0  0  0
  6  7  1  0  0  0
  7  8  1  0  0  0
  8  9  1  0  0  0
  9 10  1  0  0  0
 10 11  2  0  0  0
 10 12  1  0  0  0
 12 13  1  0  0  0
 13 14  1  0  0  0
 14 28  1  0  0  0
 28 29  2  0  0  0
 28 30  1  0  0  0
 14 15  1  0  0  0
 15 16  1  0  0  0
 16 32  1  0  0  0
 32 33  1  0  0  0
 33 34  1  0  0  0
 34 35  2  0  0  0
 35 36  1  0  0  0
 36 37  2  0  0  0
 37 38  1  0  0  0
 38 39  2  0  0  0
 16 17  1  0  0  0
 17 18  2  0  0  0
 17 19  1  0  0  0
 19  1  1  0  0  0
 39 34  1  0  0  0
 24 27  1  0  0  0
  9 20  1  0  0  0
 30 31  1  0  0  0
 15 21  1  0  0  0
 19 22  1  0  0  0
M  END
> <minimizedAffinity>
57.03997

> <CNNscore>
0.0322503671

> <CNNaffinity>
5.3741393089

> <CNN_VS>
0.1733179688

> <CNNaffinity_variance>
1.5677807331

$$$$
[H]c1nc2n(n1)C([H])(c1sc([H])c([H])c1[H])C([H])([H])C([H])(c1c([H])c([H])c(Cl)c(Cl)c1[H])N2[H]


 23 26  0  0  0  0  0  0  0  0999 V2000
   20.7858    6.6136   53.8431 C   0  0  0  0  0  0  0  0  0  0  0  0
   21.5282    7.1227   52.6567 C   0  0  0  0  0  0  0  0  0  0  0  0
   22.3743    8.2986   52.9812 C   0  0  0  0  0  0  0  0  0  0  0  0
   21.8051    9.2073   53.9251 N   0  0  0  0  0  0  0  0  0  0  0  0
   22.2174   10.3916   54.3281 N   0  0  0  0  0  0  0  0  0  0  0  0
   21.3753   10.9070   55.2326 C   0  0  0  0  0  0  0  0  0  0  0  0
   20.4085    9.9845   55.3794 N   0  0  0  0  0  0  0  0  0  0  0  0
   20.6441    8.9271   54.5888 C   0  0  0  0  0  0  0  0  0  0  0  0
   19.9688    7.6990   54.3490 N   0  0  0  0  0  0  0  0  0  0  0  0
   18.9558    7.6581   54.5470 H   0  0  0  0  0  0  0  0  0  0  0  0
   17.4730    1.7250   52.8065 Cl  0  0  0  0  0  0  0  0  0  0  0  0
   18.4533    3.1413   53.1010 C   0  0  0  0  0  0  0  0  0  0  0  0
   19.7798    3.1396   52.7381 C   0  0  0  0  0  0  0  0  0  0  0  0
   20.5412    4.2889   52.9863 C   0  0  0  0  0  0  0  0  0  0  0  0
   20.0009    5.3990   53.5747 C   0  0  0  0  0  0  0  0  0  0  0  0
   18.6705    5.3773   53.9293 C   0  0  0  0  0  0  0  0  0  0  0  0
   17.8794    4.2444   53.6957 C   0  0  0  0  0  0  0  0  0  0  0  0
   16.1871    4.2022   54.1412 Cl  0  0  0  0  0  0  0  0  0  0  0  0
   23.7495    7.9022   53.4637 C   0  0  0  0  0  0  0  0  0  0  0  0
   24.6379    8.6680   54.1631 C   0  0  0  0  0  0  0  0  0  0  0  0
   25.8110    8.1146   54.4909 C   0  0  0  0  0  0  0  0  0  0  0  0
   26.0255    6.8190   54.0961 C   0  0  0  0  0  0  0  0  0  0  0  0
   24.5810    6.4233   53.2825 S   0  0  0  0  0  0  0  0  0  0  0  0
 11 12  1  0  0  0
 12 13  2  0  0  0
 13 14  1  0  0  0
 14 15  2  0  0  0
 15  1  1  0  0  0
  1  2  1  0  0  0
  2  3  1  0  0  0
  3 19  1  0  0  0
 19 20  2  0  0  0
 20 21  1  0  0  0
 21 22  2  0  0  0
 22 23  1  0  0  0
  3  4  1  0  0  0
  4  5  1  0  0  0
  5  6  2  0  0  0
  6  7  1  0  0  0
  7  8  2  0  0  0
  8  9  1  0  0  0
 15 16  1  0  0  0
 16 17  2  0  0  0
 17 18  1  0  0  0
 17 12  1  0  0  0
  9  1  1  0  0  0
 23 19  1  0  0  0
  8  4  1  0  0  0
  9 10  1  0  0  0
M  END
> <minimizedAffinity>
21.72355

> <CNNscore>
0.4756763577

> <CNNaffinity>
6.2777566910

> <CNN_VS>
2.9861805439

> <CNNaffinity_variance>
0.2412697822

$$$$
[H]c1nc2n(n1)C([H])(c1sc([H])c([H])c1[H])C([H])([H])C([H])(c1c([H])c([H])c(Cl)c(Cl)c1[H])N2[H]


 23 26  0  0  0  0  0  0  0  0999 V2000
   23.1014    8.1667   53.7603 C   0  0  0  0  0  0  0  0  0  0  0  0
   21.9076    7.9922   54.6334 C   0  0  0  0  0  0  0  0  0  0  0  0
   20.6976    7.6048   53.8654 C   0  0  0  0  0  0  0  0  0  0  0  0
   20.5744    8.2238   52.5839 N   0  0  0  0  0  0  0  0  0  0  0  0
   19.5824    8.2067   51.7175 N   0  0  0  0  0  0  0  0  0  0  0  0
   19.8855    8.9291   50.6317 C   0  0  0  0  0  0  0  0  0  0  0  0
   21.1227    9.4037   50.8586 N   0  0  0  0  0  0  0  0  0  0  0  0
   21.5742    8.9877   52.0510 C   0  0  0  0  0  0  0  0  0  0  0  0
   22.7815    9.1821   52.7763 N   0  0  0  0  0  0  0  0  0  0  0  0
   23.3452   10.0203   52.5602 H   0  0  0  0  0  0  0  0  0  0  0  0
   28.2094    9.3344   56.6746 Cl  0  0  0  0  0  0  0  0  0  0  0  0
   26.7112    9.0036   55.8382 C   0  0  0  0  0  0  0  0  0  0  0  0
   25.5266    9.4833   56.3462 C   0  0  0  0  0  0  0  0  0  0  0  0
   24.3414    9.2027   55.6544 C   0  0  0  0  0  0  0  0  0  0  0  0
   24.3364    8.4710   54.4989 C   0  0  0  0  0  0  0  0  0  0  0  0
   25.5347    8.0013   54.0094 C   0  0  0  0  0  0  0  0  0  0  0  0
   26.7394    8.2633   54.6758 C   0  0  0  0  0  0  0  0  0  0  0  0
   28.2700    7.6728   54.0656 Cl  0  0  0  0  0  0  0  0  0  0  0  0
   20.5816    6.1091   53.6907 C   0  0  0  0  0  0  0  0  0  0  0  0
   19.4379    5.3714   53.5788 C   0  0  0  0  0  0  0  0  0  0  0  0
   19.5650    4.0477   53.4314 C   0  0  0  0  0  0  0  0  0  0  0  0
   20.8380    3.5389   53.4048 C   0  0  0  0  0  0  0  0  0  0  0  0
   21.8087    4.9281   53.5865 S   0  0  0  0  0  0  0  0  0  0  0  0
 11 12  1  0  0  0
 12 13  2  0  0  0
 13 14  1  0  0  0
 14 15  2  0  0  0
 15  1  1  0  0  0
  1  2  1  0  0  0
  2  3  1  0  0  0
  3 19  1  0  0  0
 19 20  2  0  0  0
 20 21  1  0  0  0
 21 22  2  0  0  0
 22 23  1  0  0  0
  3  4  1  0  0  0
  4  5  1  0  0  0
  5  6  2  0  0  0
  6  7  1  0  0  0
  7  8  2  0  0  0
  8  9  1  0  0  0
 15 16  1  0  0  0
 16 17  2  0  0  0
 17 18  1  0  0  0
 17 12  1  0  0  0
  9  1  1  0  0  0
 23 19  1  0  0  0
  8  4  1  0  0  0
  9 10  1  0  0  0
M  END
> <minimizedAffinity>
19.68550

> <CNNscore>
0.4650132060

> <CNNaffinity>
5.9397706985

> <CNN_VS>
2.7620718479

> <CNNaffinity_variance>
0.4399975836

$$$$
[H]c1nc2n(n1)C([H])(c1sc([H])c([H])c1[H])C([H])([H])C([H])(c1c([H])c([H])c(Cl)c(Cl)c1[H])N2[H]


 23 26  0  0  0  0  0  0  0  0999 V2000
   23.0442    9.0133   53.8560 C   0  0  0  0  0  0  0  0  0  0  0  0
   23.5979    8.6376   55.1865 C   0  0  0  0  0  0  0  0  0  0  0  0
   24.5972    7.5436   55.0943 C   0  0  0  0  0  0  0  0  0  0  0  0
   24.3023    6.5396   54.1219 N   0  0  0  0  0  0  0  0  0  0  0  0
   24.8928    5.3884   53.8749 N   0  0  0  0  0  0  0  0  0  0  0  0
   24.2864    4.7482   52.8673 C   0  0  0  0  0  0  0  0  0  0  0  0
   23.2807    5.5570   52.4908 N   0  0  0  0  0  0  0  0  0  0  0  0
   23.2637    6.6671   53.2432 C   0  0  0  0  0  0  0  0  0  0  0  0
   22.4422    7.8270   53.2798 N   0  0  0  0  0  0  0  0  0  0  0  0
   21.4845    7.7528   52.8999 H   0  0  0  0  0  0  0  0  0  0  0  0
   19.2899   13.6877   53.9159 Cl  0  0  0  0  0  0  0  0  0  0  0  0
   20.3776   12.3200   53.9151 C   0  0  0  0  0  0  0  0  0  0  0  0
   20.3893   11.4578   54.9865 C   0  0  0  0  0  0  0  0  0  0  0  0
   21.2715   10.3702   54.9583 C   0  0  0  0  0  0  0  0  0  0  0  0
   22.1114   10.1497   53.9017 C   0  0  0  0  0  0  0  0  0  0  0  0
   22.0818   11.0264   52.8402 C   0  0  0  0  0  0  0  0  0  0  0  0
   21.2117   12.1249   52.8352 C   0  0  0  0  0  0  0  0  0  0  0  0
   21.1630   13.2478   51.4933 Cl  0  0  0  0  0  0  0  0  0  0  0  0
   25.9942    8.0603   54.8442 C   0  0  0  0  0  0  0  0  0  0  0  0
   26.7059    8.0027   53.6801 C   0  0  0  0  0  0  0  0  0  0  0  0
   27.9379    8.5243   53.6794 C   0  0  0  0  0  0  0  0  0  0  0  0
   28.3862    9.0759   54.8520 C   0  0  0  0  0  0  0  0  0  0  0  0
   27.0704    8.8451   55.9105 S   0  0  0  0  0  0  0  0  0  0  0  0
 11 12  1  0  0  0
 12 13  2  0  0  0
 13 14  1  0  0  0
 14 15  2  0  0  0
 15  1  1  0  0  0
  1  2  1  0  0  0
  2  3  1  0  0  0
  3 19  1  0  0  0
 19 20  2  0  0  0
 20 21  1  0  0  0
 21 22  2  0  0  0
 22 23  1  0  0  0
  3  4  1  0  0  0
  4  5  1  0  0  0
  5  6  2  0  0  0
  6  7  1  0  0  0
  7  8  2  0  0  0
  8  9  1  0  0  0
 15 16  1  0  0  0
 16 17  2  0  0  0
 17 18  1  0  0  0
 17 12  1  0  0  0
  9  1  1  0  0  0
 23 19  1  0  0  0
  8  4  1  0  0  0
  9 10  1  0  0  0
M  END
> <minimizedAffinity>
25.61748

> <CNNscore>
0.4459176660

> <CNNaffinity>
5.9257688522

> <CNN_VS>
2.6424050331

> <CNNaffinity_variance>
0.3948024809

$$$$
[H]c1nc2n(n1)C([H])(c1sc([H])c([H])c1[H])C([H])([H])C([H])(c1c([H])c([H])c(Cl)c(Cl)c1[H])N2[H]


 23 26  0  0  0  0  0  0  0  0999 V2000
   20.5793    6.9640   53.0604 C   0  0  0  0  0  0  0  0  0  0  0  0
   22.0375    6.7897   52.8132 C   0  0  0  0  0  0  0  0  0  0  0  0
   22.7580    8.0859   52.7447 C   0  0  0  0  0  0  0  0  0  0  0  0
   22.0362    9.1428   52.1101 N   0  0  0  0  0  0  0  0  0  0  0  0
   22.4192   10.3564   51.7703 N   0  0  0  0  0  0  0  0  0  0  0  0
   21.4163   11.0276   51.1900 C   0  0  0  0  0  0  0  0  0  0  0  0
   20.3790   10.1726   51.1815 N   0  0  0  0  0  0  0  0  0  0  0  0
   20.7281    9.0046   51.7403 C   0  0  0  0  0  0  0  0  0  0  0  0
   20.0465    7.7816   51.9883 N   0  0  0  0  0  0  0  0  0  0  0  0
   19.2285    7.5564   51.3990 H   0  0  0  0  0  0  0  0  0  0  0  0
   17.4868    1.8714   53.7312 Cl  0  0  0  0  0  0  0  0  0  0  0  0
   18.4030    3.3458   53.5306 C   0  0  0  0  0  0  0  0  0  0  0  0
   19.7181    3.2823   53.1331 C   0  0  0  0  0  0  0  0  0  0  0  0
   20.4278    4.4803   52.9804 C   0  0  0  0  0  0  0  0  0  0  0  0
   19.8487    5.6968   53.2152 C   0  0  0  0  0  0  0  0  0  0  0  0
   18.5308    5.7354   53.6123 C   0  0  0  0  0  0  0  0  0  0  0  0
   17.7909    4.5564   53.7749 C   0  0  0  0  0  0  0  0  0  0  0  0
   16.1150    4.5897   54.2791 Cl  0  0  0  0  0  0  0  0  0  0  0  0
   23.2145    8.5627   54.1031 C   0  0  0  0  0  0  0  0  0  0  0  0
   22.4739    9.2144   55.0475 C   0  0  0  0  0  0  0  0  0  0  0  0
   23.0825    9.5498   56.1908 C   0  0  0  0  0  0  0  0  0  0  0  0
   24.4047    9.2104   56.3206 C   0  0  0  0  0  0  0  0  0  0  0  0
   24.7474    8.4359   54.8415 S   0  0  0  0  0  0  0  0  0  0  0  0
 11 12  1  0  0  0
 12 13  2  0  0  0
 13 14  1  0  0  0
 14 15  2  0  0  0
 15  1  1  0  0  0
  1  2  1  0  0  0
  2  3  1  0  0  0
  3 19  1  0  0  0
 19 20  2  0  0  0
 20 21  1  0  0  0
 21 22  2  0  0  0
 22 23  1  0  0  0
  3  4  1  0  0  0
  4  5  1  0  0  0
  5  6  2  0  0  0
  6  7  1  0  0  0
  7  8  2  0  0  0
  8  9  1  0  0  0
 15 16  1  0  0  0
 16 17  2  0  0  0
 17 18  1  0  0  0
 17 12  1  0  0  0
  9  1  1  0  0  0
 23 19  1  0  0  0
  8  4  1  0  0  0
  9 10  1  0  0  0
M  END
> <minimizedAffinity>
29.13871

> <CNNscore>
0.4453677237

> <CNNaffinity>
6.0745744705

> <CNN_VS>
2.7054193020

> <CNNaffinity_variance>
0.5674505830

$$$$
[H]c1nc2n(n1)C([H])(c1sc([H])c([H])c1[H])C([H])([H])C([H])(c1c([H])c([H])c(Cl)c(Cl)c1[H])N2[H]


 23 26  0  0  0  0  0  0  0  0999 V2000
   23.4354    8.9125   54.6639 C   0  0  0  0  0  0  0  0  0  0  0  0
   22.6566    7.6442   54.7152 C   0  0  0  0  0  0  0  0  0  0  0  0
   21.1945    7.8737   54.5984 C   0  0  0  0  0  0  0  0  0  0  0  0
   20.7148    9.0464   55.2582 N   0  0  0  0  0  0  0  0  0  0  0  0
   19.4845    9.4704   55.4620 N   0  0  0  0  0  0  0  0  0  0  0  0
   19.4849   10.6295   56.1324 C   0  0  0  0  0  0  0  0  0  0  0  0
   20.7818   10.9150   56.3413 N   0  0  0  0  0  0  0  0  0  0  0  0
   21.5637    9.9606   55.8156 C   0  0  0  0  0  0  0  0  0  0  0  0
   22.9693    9.7584   55.7450 N   0  0  0  0  0  0  0  0  0  0  0  0
   23.5599   10.2192   56.4563 H   0  0  0  0  0  0  0  0  0  0  0  0
   29.3789    8.1654   54.9193 Cl  0  0  0  0  0  0  0  0  0  0  0  0
   27.6465    8.3755   54.8279 C   0  0  0  0  0  0  0  0  0  0  0  0
   26.9694    7.9713   53.7011 C   0  0  0  0  0  0  0  0  0  0  0  0
   25.5811    8.1520   53.6559 C   0  0  0  0  0  0  0  0  0  0  0  0
   24.8926    8.7148   54.6950 C   0  0  0  0  0  0  0  0  0  0  0  0
   25.5920    9.1117   55.8128 C   0  0  0  0  0  0  0  0  0  0  0  0
   26.9813    8.9459   55.8919 C   0  0  0  0  0  0  0  0  0  0  0  0
   27.8836    9.4456   57.3061 Cl  0  0  0  0  0  0  0  0  0  0  0  0
   20.7304    7.9059   53.1616 C   0  0  0  0  0  0  0  0  0  0  0  0
   21.1025    8.7876   52.1873 C   0  0  0  0  0  0  0  0  0  0  0  0
   20.5634    8.6342   50.9725 C   0  0  0  0  0  0  0  0  0  0  0  0
   19.6782    7.6004   50.8051 C   0  0  0  0  0  0  0  0  0  0  0  0
   19.6327    6.8822   52.3501 S   0  0  0  0  0  0  0  0  0  0  0  0
 11 12  1  0  0  0
 12 13  2  0  0  0
 13 14  1  0  0  0
 14 15  2  0  0  0
 15  1  1  0  0  0
  1  2  1  0  0  0
  2  3  1  0  0  0
  3 19  1  0  0  0
 19 20  2  0  0  0
 20 21  1  0  0  0
 21 22  2  0  0  0
 22 23  1  0  0  0
  3  4  1  0  0  0
  4  5  1  0  0  0
  5  6  2  0  0  0
  6  7  1  0  0  0
  7  8  2  0  0  0
  8  9  1  0  0  0
 15 16  1  0  0  0
 16 17  2  0  0  0
 17 18  1  0  0  0
 17 12  1  0  0  0
  9  1  1  0  0  0
 23 19  1  0  0  0
  8  4  1  0  0  0
  9 10  1  0  0  0
M  END
> <minimizedAffinity>
19.89611

> <CNNscore>
0.4381273985

> <CNNaffinity>
5.8244981766

> <CNN_VS>
2.5518722534

> <CNNaffinity_variance>
0.2588851750

$$$$
[H]c1nc2n(n1)C([H])(c1sc([H])c([H])c1[H])C([H])([H])C([H])(c1c([H])c([H])c(Cl)c(Cl)c1[H])N2[H]


 23 26  0  0  0  0  0  0  0  0999 V2000
   23.6725    8.0943   53.3912 C   0  0  0  0  0  0  0  0  0  0  0  0
   22.7030    7.9350   54.5104 C   0  0  0  0  0  0  0  0  0  0  0  0
   21.3215    7.6813   54.0297 C   0  0  0  0  0  0  0  0  0  0  0  0
   20.9545    8.3963   52.8487 N   0  0  0  0  0  0  0  0  0  0  0  0
   19.7908    8.5042   52.2411 N   0  0  0  0  0  0  0  0  0  0  0  0
   19.8906    9.2811   51.1551 C   0  0  0  0  0  0  0  0  0  0  0  0
   21.1801    9.6583   51.1092 N   0  0  0  0  0  0  0  0  0  0  0  0
   21.8608    9.1306   52.1372 C   0  0  0  0  0  0  0  0  0  0  0  0
   23.2147    9.1954   52.5668 N   0  0  0  0  0  0  0  0  0  0  0  0
   23.7774   10.0091   52.2695 H   0  0  0  0  0  0  0  0  0  0  0  0
   29.3015    8.8245   55.3223 Cl  0  0  0  0  0  0  0  0  0  0  0  0
   27.6674    8.6077   54.7425 C   0  0  0  0  0  0  0  0  0  0  0  0
   27.4497    8.2768   53.4254 C   0  0  0  0  0  0  0  0  0  0  0  0
   26.1293    8.1093   52.9888 C   0  0  0  0  0  0  0  0  0  0  0  0
   25.0649    8.2658   53.8331 C   0  0  0  0  0  0  0  0  0  0  0  0
   25.3075    8.5972   55.1474 C   0  0  0  0  0  0  0  0  0  0  0  0
   26.6158    8.7724   55.6182 C   0  0  0  0  0  0  0  0  0  0  0  0
   26.9395    9.1938   57.2860 Cl  0  0  0  0  0  0  0  0  0  0  0  0
   21.0508    6.2123   53.8067 C   0  0  0  0  0  0  0  0  0  0  0  0
   19.8440    5.6141   53.5817 C   0  0  0  0  0  0  0  0  0  0  0  0
   19.8312    4.2873   53.4104 C   0  0  0  0  0  0  0  0  0  0  0  0
   21.0355    3.6348   53.4752 C   0  0  0  0  0  0  0  0  0  0  0  0
   22.1395    4.8989   53.7726 S   0  0  0  0  0  0  0  0  0  0  0  0
 11 12  1  0  0  0
 12 13  2  0  0  0
 13 14  1  0  0  0
 14 15  2  0  0  0
 15  1  1  0  0  0
  1  2  1  0  0  0
  2  3  1  0  0  0
  3 19  1  0  0  0
 19 20  2  0  0  0
 20 21  1  0  0  0
 21 22  2  0  0  0
 22 23  1  0  0  0
  3  4  1  0  0  0
  4  5  1  0  0  0
  5  6  2  0  0  0
  6  7  1  0  0  0
  7  8  2  0  0  0
  8  9  1  0  0  0
 15 16  1  0  0  0
 16 17  2  0  0  0
 17 18  1  0  0  0
 17 12  1  0  0  0
  9  1  1  0  0  0
 23 19  1  0  0  0
  8  4  1  0  0  0
  9 10  1  0  0  0
M  END
> <minimizedAffinity>
20.98958

> <CNNscore>
0.3379094005

> <CNNaffinity>
5.7449731827

> <CNN_VS>
1.9412804842

> <CNNaffinity_variance>
0.4021846354

$$$$
[H]c1nc2n(n1)C([H])(c1sc([H])c([H])c1[H])C([H])([H])C([H])(c1c([H])c([H])c(Cl)c(Cl)c1[H])N2[H]


 23 26  0  0  0  0  0  0  0  0999 V2000
   23.4619    7.8454   54.0458 C   0  0  0  0  0  0  0  0  0  0  0  0
   22.7282    8.8146   53.1856 C   0  0  0  0  0  0  0  0  0  0  0  0
   21.2588    8.6067   53.2262 C   0  0  0  0  0  0  0  0  0  0  0  0
   20.8460    7.2408   53.2946 N   0  0  0  0  0  0  0  0  0  0  0  0
   19.6454    6.7051   53.2142 N   0  0  0  0  0  0  0  0  0  0  0  0
   19.7097    5.3724   53.3269 C   0  0  0  0  0  0  0  0  0  0  0  0
   21.0158    5.0949   53.4830 N   0  0  0  0  0  0  0  0  0  0  0  0
   21.7410    6.2229   53.4675 C   0  0  0  0  0  0  0  0  0  0  0  0
   23.1281    6.5110   53.5878 N   0  0  0  0  0  0  0  0  0  0  0  0
   23.7994    5.7642   53.3454 H   0  0  0  0  0  0  0  0  0  0  0  0
   29.3790    8.8118   54.0973 Cl  0  0  0  0  0  0  0  0  0  0  0  0
   27.6550    8.5262   54.1005 C   0  0  0  0  0  0  0  0  0  0  0  0
   27.0270    8.1597   55.2678 C   0  0  0  0  0  0  0  0  0  0  0  0
   25.6442    7.9375   55.2405 C   0  0  0  0  0  0  0  0  0  0  0  0
   24.9140    8.0753   54.0924 C   0  0  0  0  0  0  0  0  0  0  0  0
   25.5646    8.4432   52.9359 C   0  0  0  0  0  0  0  0  0  0  0  0
   26.9469    8.6735   52.9271 C   0  0  0  0  0  0  0  0  0  0  0  0
   27.7875    9.1414   51.4648 Cl  0  0  0  0  0  0  0  0  0  0  0  0
   20.6015    9.3653   54.3547 C   0  0  0  0  0  0  0  0  0  0  0  0
   20.7651   10.6822   54.6772 C   0  0  0  0  0  0  0  0  0  0  0  0
   20.0818   11.1537   55.7264 C   0  0  0  0  0  0  0  0  0  0  0  0
   19.2704   10.2726   56.3939 C   0  0  0  0  0  0  0  0  0  0  0  0
   19.4927    8.8196   55.5310 S   0  0  0  0  0  0  0  0  0  0  0  0
 11 12  1  0  0  0
 12 13  2  0  0  0
 13 14  1  0  0  0
 14 15  2  0  0  0
 15  1  1  0  0  0
  1  2  1  0  0  0
  2  3  1  0  0  0
  3 19  1  0  0  0
 19 20  2  0  0  0
 20 21  1  0  0  0
 21 22  2  0  0  0
 22 23  1  0  0  0
  3  4  1  0  0  0
  4  5  1  0  0  0
  5  6  2  0  0  0
  6  7  1  0  0  0
  7  8  2  0  0  0
  8  9  1  0  0  0
 15 16  1  0  0  0
 16 17  2  0  0  0
 17 18  1  0  0  0
 17 12  1  0  0  0
  9  1  1  0  0  0
 23 19  1  0  0  0
  8  4  1  0  0  0
  9 10  1  0  0  0
M  END
> <minimizedAffinity>
27.33409

> <CNNscore>
0.3373664320

> <CNNaffinity>
5.7341241837

> <CNN_VS>
1.9345010519

> <CNNaffinity_variance>
0.3149068654

$$$$
[H]c1nc2n(n1)C([H])(c1sc([H])c([H])c1[H])C([H])([H])C([H])(c1c([H])c([H])c(Cl)c(Cl)c1[H])N2[H]


 23 26  0  0  0  0  0  0  0  0999 V2000
   25.0926    8.9300   54.9055 C   0  0  0  0  0  0  0  0  0  0  0  0
   25.7013    8.2332   56.0725 C   0  0  0  0  0  0  0  0  0  0  0  0
   27.1563    8.5016   56.1951 C   0  0  0  0  0  0  0  0  0  0  0  0
   27.8591    8.5873   54.9543 N   0  0  0  0  0  0  0  0  0  0  0  0
   29.1493    8.6817   54.7069 N   0  0  0  0  0  0  0  0  0  0  0  0
   29.3791    8.7357   53.3889 C   0  0  0  0  0  0  0  0  0  0  0  0
   28.1643    8.6704   52.8168 N   0  0  0  0  0  0  0  0  0  0  0  0
   27.2084    8.5785   53.7529 C   0  0  0  0  0  0  0  0  0  0  0  0
   25.7901    8.4848   53.7152 N   0  0  0  0  0  0  0  0  0  0  0  0
   25.3533    8.1118   52.8566 H   0  0  0  0  0  0  0  0  0  0  0  0
   19.1780    8.0794   54.4144 Cl  0  0  0  0  0  0  0  0  0  0  0  0
   20.8987    8.3433   54.5666 C   0  0  0  0  0  0  0  0  0  0  0  0
   21.3617    9.4756   55.1951 C   0  0  0  0  0  0  0  0  0  0  0  0
   22.7460    9.6607   55.3024 C   0  0  0  0  0  0  0  0  0  0  0  0
   23.6364    8.7512   54.8020 C   0  0  0  0  0  0  0  0  0  0  0  0
   23.1493    7.6250   54.1769 C   0  0  0  0  0  0  0  0  0  0  0  0
   21.7705    7.4080   54.0519 C   0  0  0  0  0  0  0  0  0  0  0  0
   21.1367    5.9815   53.2598 Cl  0  0  0  0  0  0  0  0  0  0  0  0
   27.4457    9.7469   56.9992 C   0  0  0  0  0  0  0  0  0  0  0  0
   27.1167   11.0346   56.6849 C   0  0  0  0  0  0  0  0  0  0  0  0
   27.4741   11.9943   57.5458 C   0  0  0  0  0  0  0  0  0  0  0  0
   28.1438   11.6045   58.6771 C   0  0  0  0  0  0  0  0  0  0  0  0
   28.2487    9.9130   58.4954 S   0  0  0  0  0  0  0  0  0  0  0  0
 11 12  1  0  0  0
 12 13  2  0  0  0
 13 14  1  0  0  0
 14 15  2  0  0  0
 15  1  1  0  0  0
  1  2  1  0  0  0
  2  3  1  0  0  0
  3 19  1  0  0  0
 19 20  2  0  0  0
 20 21  1  0  0  0
 21 22  2  0  0  0
 22 23  1  0  0  0
  3  4  1  0  0  0
  4  5  1  0  0  0
  5  6  2  0  0  0
  6  7  1  0  0  0
  7  8  2  0  0  0
  8  9  1  0  0  0
 15 16  1  0  0  0
 16 17  2  0  0  0
 17 18  1  0  0  0
 17 12  1  0  0  0
  9  1  1  0  0  0
 23 19  1  0  0  0
  8  4  1  0  0  0
  9 10  1  0  0  0
M  END
> <minimizedAffinity>
24.45332

> <CNNscore>
0.2622505724

> <CNNaffinity>
5.3283648491

> <CNN_VS>
1.3973667622

> <CNNaffinity_variance>
0.1350844800

$$$$
[H]c1nc2n(n1)C([H])(c1sc([H])c([H])c1[H])C([H])([H])C([H])(c1c([H])c([H])c(Cl)c(Cl)c1[H])N2[H]


 23 26  0  0  0  0  0  0  0  0999 V2000
   21.3793    7.7220   53.1345 C   0  0  0  0  0  0  0  0  0  0  0  0
   22.1211    7.2075   54.3189 C   0  0  0  0  0  0  0  0  0  0  0  0
   22.1666    5.7241   54.3566 C   0  0  0  0  0  0  0  0  0  0  0  0
   20.9764    5.0739   53.9078 N   0  0  0  0  0  0  0  0  0  0  0  0
   20.6352    3.8019   53.9326 N   0  0  0  0  0  0  0  0  0  0  0  0
   19.4167    3.6250   53.4066 C   0  0  0  0  0  0  0  0  0  0  0  0
   19.0062    4.8539   53.0480 N   0  0  0  0  0  0  0  0  0  0  0  0
   19.9431    5.7670   53.3430 C   0  0  0  0  0  0  0  0  0  0  0  0
   20.0370    7.1770   53.1859 N   0  0  0  0  0  0  0  0  0  0  0  0
   19.1578    7.7152   53.1194 H   0  0  0  0  0  0  0  0  0  0  0  0
   21.3919   13.6880   52.5387 Cl  0  0  0  0  0  0  0  0  0  0  0  0
   21.3897   11.9512   52.7308 C   0  0  0  0  0  0  0  0  0  0  0  0
   21.4955   11.4043   53.9883 C   0  0  0  0  0  0  0  0  0  0  0  0
   21.4910   10.0090   54.1119 C   0  0  0  0  0  0  0  0  0  0  0  0
   21.3851    9.1886   53.0228 C   0  0  0  0  0  0  0  0  0  0  0  0
   21.2803    9.7590   51.7739 C   0  0  0  0  0  0  0  0  0  0  0  0
   21.2814   11.1512   51.6135 C   0  0  0  0  0  0  0  0  0  0  0  0
   21.1490   11.8905   50.0325 Cl  0  0  0  0  0  0  0  0  0  0  0  0
   23.3398    5.1649   53.5873 C   0  0  0  0  0  0  0  0  0  0  0  0
   24.2343    5.8536   52.8188 C   0  0  0  0  0  0  0  0  0  0  0  0
   25.2046    5.1546   52.2188 C   0  0  0  0  0  0  0  0  0  0  0  0
   25.2211    3.7992   52.4258 C   0  0  0  0  0  0  0  0  0  0  0  0
   23.8813    3.5527   53.4501 S   0  0  0  0  0  0  0  0  0  0  0  0
 11 12  1  0  0  0
 12 13  2  0  0  0
 13 14  1  0  0  0
 14 15  2  0  0  0
 15  1  1  0  0  0
  1  2  1  0  0  0
  2  3  1  0  0  0
  3 19  1  0  0  0
 19 20  2  0  0  0
 20 21  1  0  0  0
 21 22  2  0  0  0
 22 23  1  0  0  0
  3  4  1  0  0  0
  4  5  1  0  0  0
  5  6  2  0  0  0
  6  7  1  0  0  0
  7  8  2  0  0  0
  8  9  1  0  0  0
 15 16  1  0  0  0
 16 17  2  0  0  0
 17 18  1  0  0  0
 17 12  1  0  0  0
  9  1  1  0  0  0
 23 19  1  0  0  0
  8  4  1  0  0  0
  9 10  1  0  0  0
M  END
> <minimizedAffinity>
36.87498

> <CNNscore>
0.2586005628

> <CNNaffinity>
5.7653250694

> <CNN_VS>
1.4909162521

> <CNNaffinity_variance>
0.4997658134

$$$$
[H]c1nc([H])c2c(c1[H])c1c([H])nc(N([H])c3nnc(N([H])C([H])([H])C4([H])C([H])([H])N([H])C4([H])[H])c([H])c3[H])nc1n2C1([H])C([H])([H])C([H])([H])C([H])([H])C1([H])[H]


 34 39  0  0  0  0  0  0  0  0999 V2000
   21.2332    5.4079   53.0588 C   0  0  0  0  0  0  0  0  0  0  0  0
   22.5840    5.5451   53.3235 C   0  0  0  0  0  0  0  0  0  0  0  0
   23.0719    6.7519   53.7761 C   0  0  0  0  0  0  0  0  0  0  0  0
   24.3379    7.1469   54.1063 C   0  0  0  0  0  0  0  0  0  0  0  0
   25.5876    6.5317   54.1223 C   0  0  0  0  0  0  0  0  0  0  0  0
   26.6562    7.2412   54.5171 N   0  0  0  0  0  0  0  0  0  0  0  0
   26.5944    8.5328   54.9053 C   0  0  0  0  0  0  0  0  0  0  0  0
   25.4019    9.1489   54.8990 N   0  0  0  0  0  0  0  0  0  0  0  0
   24.3009    8.4645   54.5067 C   0  0  0  0  0  0  0  0  0  0  0  0
   22.9978    8.8600   54.4140 N   0  0  0  0  0  0  0  0  0  0  0  0
   22.2518    7.8399   53.9765 C   0  0  0  0  0  0  0  0  0  0  0  0
   20.9102    7.6678   53.7026 C   0  0  0  0  0  0  0  0  0  0  0  0
   20.4546    6.4937   53.2655 N   0  0  0  0  0  0  0  0  0  0  0  0
   22.4864   10.1732   54.7348 C   0  0  0  0  0  0  0  0  0  0  0  0
   21.3928   10.1416   55.7711 C   0  0  0  0  0  0  0  0  0  0  0  0
   20.4084   11.2135   55.3981 C   0  0  0  0  0  0  0  0  0  0  0  0
   20.7473   11.6949   54.0226 C   0  0  0  0  0  0  0  0  0  0  0  0
   21.9517   10.9145   53.5509 C   0  0  0  0  0  0  0  0  0  0  0  0
   27.7908    9.2194   55.3140 N   0  0  0  0  0  0  0  0  0  0  0  0
   28.4798    9.4983   54.5826 H   0  0  0  0  0  0  0  0  0  0  0  0
   28.0496    9.5208   56.6717 C   0  0  0  0  0  0  0  0  0  0  0  0
   28.0697    8.5723   57.6684 C   0  0  0  0  0  0  0  0  0  0  0  0
   28.3269    8.9020   58.9907 C   0  0  0  0  0  0  0  0  0  0  0  0
   28.5707   10.2173   59.3246 C   0  0  0  0  0  0  0  0  0  0  0  0
   28.5406   11.1158   58.3097 N   0  0  0  0  0  0  0  0  0  0  0  0
   28.2936   10.7841   57.0539 N   0  0  0  0  0  0  0  0  0  0  0  0
   28.8415   10.6261   60.6595 N   0  0  0  0  0  0  0  0  0  0  0  0
   28.2634   10.2686   61.4325 H   0  0  0  0  0  0  0  0  0  0  0  0
   29.9264   11.5417   60.9319 C   0  0  0  0  0  0  0  0  0  0  0  0
   29.4175   12.9097   61.3313 C   0  0  0  0  0  0  0  0  0  0  0  0
   30.4665   13.9820   61.1384 C   0  0  0  0  0  0  0  0  0  0  0  0
   29.4500   14.8549   60.5554 N   0  0  0  0  0  0  0  0  0  0  0  0
   28.6888   13.6467   60.2360 C   0  0  0  0  0  0  0  0  0  0  0  0
   29.7990   15.2818   59.6585 H   0  0  0  0  0  0  0  0  0  0  0  0
  1  2  2  0  0  0
  2  3  1  0  0  0
  3  4  1  0  0  0
  4  5  2  0  0  0
  5  6  1  0  0  0
  6  7  2  0  0  0
  7 19  1  0  0  0
 19 21  1  0  0  0
 21 22  2  0  0  0
 22 23  1  0  0  0
 23 24  2  0  0  0
 24 27  1  0  0  0
 27 29  1  0  0  0
 29 30  1  0  0  0
 30 31  1  0  0  0
 31 32  1  0  0  0
 32 33  1  0  0  0
 24 25  1  0  0  0
 25 26  2  0  0  0
  7  8  1  0  0  0
  8  9  2  0  0  0
  9 10  1  0  0  0
 10 14  1  0  0  0
 14 15  1  0  0  0
 15 16  1  0  0  0
 16 17  1  0  0  0
 17 18  1  0  0  0
 10 11  1  0  0  0
 11 12  1  0  0  0
 12 13  2  0  0  0
 13  1  1  0  0  0
 11  3  2  0  0  0
  9  4  1  0  0  0
 18 14  1  0  0  0
 26 21  1  0  0  0
 33 30  1  0  0  0
 19 20  1  0  0  0
 27 28  1  0  0  0
 32 34  1  0  0  0
M  END
> <minimizedAffinity>
7.42287

> <CNNscore>
0.4900911152

> <CNNaffinity>
6.7175011635

> <CNN_VS>
3.2921876907

> <CNNaffinity_variance>
0.1293253005

$$$$
[H]c1nc([H])c2c(c1[H])c1c([H])nc(N([H])c3nnc(N([H])C([H])([H])C4([H])C([H])([H])N([H])C4([H])[H])c([H])c3[H])nc1n2C1([H])C([H])([H])C([H])([H])C([H])([H])C1([H])[H]


 34 39  0  0  0  0  0  0  0  0999 V2000
   29.4354    8.2428   45.4989 C   0  0  0  0  0  0  0  0  0  0  0  0
   29.2071    7.7889   46.7856 C   0  0  0  0  0  0  0  0  0  0  0  0
   28.8109    8.6765   47.7625 C   0  0  0  0  0  0  0  0  0  0  0  0
   28.5248    8.4932   49.0863 C   0  0  0  0  0  0  0  0  0  0  0  0
   28.5148    7.3989   49.9482 C   0  0  0  0  0  0  0  0  0  0  0  0
   28.1714    7.5859   51.2320 N   0  0  0  0  0  0  0  0  0  0  0  0
   27.8300    8.7861   51.7475 C   0  0  0  0  0  0  0  0  0  0  0  0
   27.8316    9.8567   50.9379 N   0  0  0  0  0  0  0  0  0  0  0  0
   28.1728    9.7063   49.6359 C   0  0  0  0  0  0  0  0  0  0  0  0
   28.2500   10.6240   48.6282 N   0  0  0  0  0  0  0  0  0  0  0  0
   28.6320   10.0165   47.4997 C   0  0  0  0  0  0  0  0  0  0  0  0
   28.8684   10.4347   46.2060 C   0  0  0  0  0  0  0  0  0  0  0  0
   29.2511    9.5629   45.2729 N   0  0  0  0  0  0  0  0  0  0  0  0
   27.9663   12.0363   48.7453 C   0  0  0  0  0  0  0  0  0  0  0  0
   26.5388   12.3192   49.1363 C   0  0  0  0  0  0  0  0  0  0  0  0
   26.1258   13.5652   48.4055 C   0  0  0  0  0  0  0  0  0  0  0  0
   27.1762   13.8731   47.3855 C   0  0  0  0  0  0  0  0  0  0  0  0
   28.2433   12.8095   47.4953 C   0  0  0  0  0  0  0  0  0  0  0  0
   27.4747    8.8975   53.1372 N   0  0  0  0  0  0  0  0  0  0  0  0
   28.1936    9.2423   53.8092 H   0  0  0  0  0  0  0  0  0  0  0  0
   26.1852    8.5532   53.6062 C   0  0  0  0  0  0  0  0  0  0  0  0
   25.7425    8.8305   54.8792 C   0  0  0  0  0  0  0  0  0  0  0  0
   24.4710    8.4786   55.3072 C   0  0  0  0  0  0  0  0  0  0  0  0
   23.6195    7.8315   54.4372 C   0  0  0  0  0  0  0  0  0  0  0  0
   24.0993    7.5796   53.1944 N   0  0  0  0  0  0  0  0  0  0  0  0
   25.3148    7.9222   52.8027 N   0  0  0  0  0  0  0  0  0  0  0  0
   22.3032    7.4419   54.8091 N   0  0  0  0  0  0  0  0  0  0  0  0
   22.1239    6.4796   55.1271 H   0  0  0  0  0  0  0  0  0  0  0  0
   21.2184    8.3947   54.7413 C   0  0  0  0  0  0  0  0  0  0  0  0
   20.5654    8.4035   53.3762 C   0  0  0  0  0  0  0  0  0  0  0  0
   21.4110    9.1232   52.3493 C   0  0  0  0  0  0  0  0  0  0  0  0
   21.1355    8.0550   51.3911 N   0  0  0  0  0  0  0  0  0  0  0  0
   20.8623    7.1865   52.5367 C   0  0  0  0  0  0  0  0  0  0  0  0
   22.0253    7.7345   50.9283 H   0  0  0  0  0  0  0  0  0  0  0  0
  1  2  2  0  0  0
  2  3  1  0  0  0
  3  4  1  0  0  0
  4  5  2  0  0  0
  5  6  1  0  0  0
  6  7  2  0  0  0
  7 19  1  0  0  0
 19 21  1  0  0  0
 21 22  2  0  0  0
 22 23  1  0  0  0
 23 24  2  0  0  0
 24 27  1  0  0  0
 27 29  1  0  0  0
 29 30  1  0  0  0
 30 31  1  0  0  0
 31 32  1  0  0  0
 32 33  1  0  0  0
 24 25  1  0  0  0
 25 26  2  0  0  0
  7  8  1  0  0  0
  8  9  2  0  0  0
  9 10  1  0  0  0
 10 14  1  0  0  0
 14 15  1  0  0  0
 15 16  1  0  0  0
 16 17  1  0  0  0
 17 18  1  0  0  0
 10 11  1  0  0  0
 11 12  1  0  0  0
 12 13  2  0  0  0
 13  1  1  0  0  0
 11  3  2  0  0  0
  9  4  1  0  0  0
 18 14  1  0  0  0
 26 21  1  0  0  0
 33 30  1  0  0  0
 19 20  1  0  0  0
 27 28  1  0  0  0
 32 34  1  0  0  0
M  END
> <minimizedAffinity>
38.85506

> <CNNscore>
0.4756409824

> <CNNaffinity>
6.3896231651

> <CNN_VS>
3.0391666889

> <CNNaffinity_variance>
0.1177706718

$$$$
[H]c1nc([H])c2c(c1[H])c1c([H])nc(N([H])c3nnc(N([H])C([H])([H])C4([H])C([H])([H])N([H])C4([H])[H])c([H])c3[H])nc1n2C1([H])C([H])([H])C([H])([H])C([H])([H])C1([H])[H]


 34 39  0  0  0  0  0  0  0  0999 V2000
   30.3146    7.5827   53.7624 C   0  0  0  0  0  0  0  0  0  0  0  0
   28.9754    7.5259   53.4202 C   0  0  0  0  0  0  0  0  0  0  0  0
   28.0303    8.0583   54.2702 C   0  0  0  0  0  0  0  0  0  0  0  0
   26.6690    8.1322   54.1736 C   0  0  0  0  0  0  0  0  0  0  0  0
   25.7261    7.7251   53.2327 C   0  0  0  0  0  0  0  0  0  0  0  0
   24.4271    7.9672   53.4676 N   0  0  0  0  0  0  0  0  0  0  0  0
   23.9709    8.5900   54.5752 C   0  0  0  0  0  0  0  0  0  0  0  0
   24.8591    8.9925   55.4975 N   0  0  0  0  0  0  0  0  0  0  0  0
   26.1789    8.7653   55.2947 C   0  0  0  0  0  0  0  0  0  0  0  0
   27.2603    9.0723   56.0690 N   0  0  0  0  0  0  0  0  0  0  0  0
   28.3764    8.6525   55.4634 C   0  0  0  0  0  0  0  0  0  0  0  0
   29.7206    8.6918   55.7731 C   0  0  0  0  0  0  0  0  0  0  0  0
   30.6219    8.1721   54.9396 N   0  0  0  0  0  0  0  0  0  0  0  0
   27.2230    9.7461   57.3470 C   0  0  0  0  0  0  0  0  0  0  0  0
   27.8479   11.1168   57.3078 C   0  0  0  0  0  0  0  0  0  0  0  0
   28.5432   11.3161   58.6247 C   0  0  0  0  0  0  0  0  0  0  0  0
   28.5780    9.9991   59.3338 C   0  0  0  0  0  0  0  0  0  0  0  0
   27.8947    8.9858   58.4460 C   0  0  0  0  0  0  0  0  0  0  0  0
   22.5595    8.8096   54.7475 N   0  0  0  0  0  0  0  0  0  0  0  0
   22.2442    9.6985   55.1923 H   0  0  0  0  0  0  0  0  0  0  0  0
   21.6011    7.8561   54.3310 C   0  0  0  0  0  0  0  0  0  0  0  0
   20.4908    8.1741   53.5830 C   0  0  0  0  0  0  0  0  0  0  0  0
   19.5700    7.2139   53.1910 C   0  0  0  0  0  0  0  0  0  0  0  0
   19.7658    5.8994   53.5580 C   0  0  0  0  0  0  0  0  0  0  0  0
   20.8730    5.6342   54.2942 N   0  0  0  0  0  0  0  0  0  0  0  0
   21.7410    6.5622   54.6594 N   0  0  0  0  0  0  0  0  0  0  0  0
   18.8626    4.8641   53.1910 N   0  0  0  0  0  0  0  0  0  0  0  0
   18.3822    4.9013   52.2814 H   0  0  0  0  0  0  0  0  0  0  0  0
   18.6187    3.7608   54.0924 C   0  0  0  0  0  0  0  0  0  0  0  0
   17.1512    3.6353   54.4395 C   0  0  0  0  0  0  0  0  0  0  0  0
   16.3897    4.9088   54.1467 C   0  0  0  0  0  0  0  0  0  0  0  0
   15.3115    4.1154   53.5609 N   0  0  0  0  0  0  0  0  0  0  0  0
   16.2984    3.0583   53.3378 C   0  0  0  0  0  0  0  0  0  0  0  0
   15.0244    4.5122   52.6289 H   0  0  0  0  0  0  0  0  0  0  0  0
  1  2  2  0  0  0
  2  3  1  0  0  0
  3  4  1  0  0  0
  4  5  2  0  0  0
  5  6  1  0  0  0
  6  7  2  0  0  0
  7 19  1  0  0  0
 19 21  1  0  0  0
 21 22  2  0  0  0
 22 23  1  0  0  0
 23 24  2  0  0  0
 24 27  1  0  0  0
 27 29  1  0  0  0
 29 30  1  0  0  0
 30 31  1  0  0  0
 31 32  1  0  0  0
 32 33  1  0  0  0
 24 25  1  0  0  0
 25 26  2  0  0  0
  7  8  1  0  0  0
  8  9  2  0  0  0
  9 10  1  0  0  0
 10 14  1  0  0  0
 14 15  1  0  0  0
 15 16  1  0  0  0
 16 17  1  0  0  0
 17 18  1  0  0  0
 10 11  1  0  0  0
 11 12  1  0  0  0
 12 13  2  0  0  0
 13  1  1  0  0  0
 11  3  2  0  0  0
  9  4  1  0  0  0
 18 14  1  0  0  0
 26 21  1  0  0  0
 33 30  1  0  0  0
 19 20  1  0  0  0
 27 28  1  0  0  0
 32 34  1  0  0  0
M  END
> <minimizedAffinity>
26.76060

> <CNNscore>
0.4443303347

> <CNNaffinity>
6.6096963882

> <CNN_VS>
2.9368886948

> <CNNaffinity_variance>
0.5153817534

$$$$
[H]c1nc([H])c2c(c1[H])c1c([H])nc(N([H])c3nnc(N([H])C([H])([H])C4([H])C([H])([H])N([H])C4([H])[H])c([H])c3[H])nc1n2C1([H])C([H])([H])C([H])([H])C([H])([H])C1([H])[H]


 34 39  0  0  0  0  0  0  0  0999 V2000
   19.3021    4.4303   53.5164 C   0  0  0  0  0  0  0  0  0  0  0  0
   20.6790    4.5518   53.5723 C   0  0  0  0  0  0  0  0  0  0  0  0
   21.2581    5.7997   53.4920 C   0  0  0  0  0  0  0  0  0  0  0  0
   22.5674    6.1907   53.5212 C   0  0  0  0  0  0  0  0  0  0  0  0
   23.7887    5.5309   53.6374 C   0  0  0  0  0  0  0  0  0  0  0  0
   24.9204    6.2522   53.6294 N   0  0  0  0  0  0  0  0  0  0  0  0
   24.9492    7.5971   53.5141 C   0  0  0  0  0  0  0  0  0  0  0  0
   23.7859    8.2569   53.4009 N   0  0  0  0  0  0  0  0  0  0  0  0
   22.6232    7.5622   53.4050 C   0  0  0  0  0  0  0  0  0  0  0  0
   21.3322    7.9943   53.3052 N   0  0  0  0  0  0  0  0  0  0  0  0
   20.5050    6.9447   53.3563 C   0  0  0  0  0  0  0  0  0  0  0  0
   19.1351    6.7868   53.3039 C   0  0  0  0  0  0  0  0  0  0  0  0
   18.5910    5.5724   53.3831 N   0  0  0  0  0  0  0  0  0  0  0  0
   20.9075    9.3687   53.1656 C   0  0  0  0  0  0  0  0  0  0  0  0
   21.2548    9.9583   51.8229 C   0  0  0  0  0  0  0  0  0  0  0  0
   21.6160   11.3973   52.0595 C   0  0  0  0  0  0  0  0  0  0  0  0
   21.7553   11.6030   53.5349 C   0  0  0  0  0  0  0  0  0  0  0  0
   21.4730   10.2803   54.2078 C   0  0  0  0  0  0  0  0  0  0  0  0
   26.2086    8.2925   53.5146 N   0  0  0  0  0  0  0  0  0  0  0  0
   26.6817    8.4673   52.6018 H   0  0  0  0  0  0  0  0  0  0  0  0
   26.8123    8.7394   54.7134 C   0  0  0  0  0  0  0  0  0  0  0  0
   28.1652    8.6670   54.9537 C   0  0  0  0  0  0  0  0  0  0  0  0
   28.7250    9.1145   56.1411 C   0  0  0  0  0  0  0  0  0  0  0  0
   27.9081    9.6491   57.1146 C   0  0  0  0  0  0  0  0  0  0  0  0
   26.5828    9.6998   56.8330 N   0  0  0  0  0  0  0  0  0  0  0  0
   26.0656    9.2684   55.6952 N   0  0  0  0  0  0  0  0  0  0  0  0
   28.4141   10.1270   58.3548 N   0  0  0  0  0  0  0  0  0  0  0  0
   28.3606   11.1304   58.5780 H   0  0  0  0  0  0  0  0  0  0  0  0
   29.0026    9.2065   59.3012 C   0  0  0  0  0  0  0  0  0  0  0  0
   29.4504    9.9112   60.5632 C   0  0  0  0  0  0  0  0  0  0  0  0
   30.8789   10.3980   60.4628 C   0  0  0  0  0  0  0  0  0  0  0  0
   30.4772   11.6653   61.0693 N   0  0  0  0  0  0  0  0  0  0  0  0
   29.1184   11.3815   60.6060 C   0  0  0  0  0  0  0  0  0  0  0  0
   30.8597   12.4769   60.5183 H   0  0  0  0  0  0  0  0  0  0  0  0
  1  2  2  0  0  0
  2  3  1  0  0  0
  3  4  1  0  0  0
  4  5  2  0  0  0
  5  6  1  0  0  0
  6  7  2  0  0  0
  7 19  1  0  0  0
 19 21  1  0  0  0
 21 22  2  0  0  0
 22 23  1  0  0  0
 23 24  2  0  0  0
 24 27  1  0  0  0
 27 29  1  0  0  0
 29 30  1  0  0  0
 30 31  1  0  0  0
 31 32  1  0  0  0
 32 33  1  0  0  0
 24 25  1  0  0  0
 25 26  2  0  0  0
  7  8  1  0  0  0
  8  9  2  0  0  0
  9 10  1  0  0  0
 10 14  1  0  0  0
 14 15  1  0  0  0
 15 16  1  0  0  0
 16 17  1  0  0  0
 17 18  1  0  0  0
 10 11  1  0  0  0
 11 12  1  0  0  0
 12 13  2  0  0  0
 13  1  1  0  0  0
 11  3  2  0  0  0
  9  4  1  0  0  0
 18 14  1  0  0  0
 26 21  1  0  0  0
 33 30  1  0  0  0
 19 20  1  0  0  0
 27 28  1  0  0  0
 32 34  1  0  0  0
M  END
> <minimizedAffinity>
6.05256

> <CNNscore>
0.4361802638

> <CNNaffinity>
6.7995872498

> <CNN_VS>
2.9658458233

> <CNNaffinity_variance>
0.5587202311

$$$$
[H]c1nc([H])c2c(c1[H])c1c([H])nc(N([H])c3nnc(N([H])C([H])([H])C4([H])C([H])([H])N([H])C4([H])[H])c([H])c3[H])nc1n2C1([H])C([H])([H])C([H])([H])C([H])([H])C1([H])[H]


 34 39  0  0  0  0  0  0  0  0999 V2000
   30.8457    8.1061   60.8154 C   0  0  0  0  0  0  0  0  0  0  0  0
   29.9923    7.8872   59.7489 C   0  0  0  0  0  0  0  0  0  0  0  0
   29.2246    8.9242   59.2647 C   0  0  0  0  0  0  0  0  0  0  0  0
   28.3190    8.9758   58.2423 C   0  0  0  0  0  0  0  0  0  0  0  0
   27.8243    8.0575   57.3191 C   0  0  0  0  0  0  0  0  0  0  0  0
   26.9106    8.4639   56.4240 N   0  0  0  0  0  0  0  0  0  0  0  0
   26.4343    9.7256   56.3619 C   0  0  0  0  0  0  0  0  0  0  0  0
   26.8949   10.6299   57.2403 N   0  0  0  0  0  0  0  0  0  0  0  0
   27.8178   10.2562   58.1585 C   0  0  0  0  0  0  0  0  0  0  0  0
   28.4314   10.9766   59.1423 N   0  0  0  0  0  0  0  0  0  0  0  0
   29.2776   10.1867   59.8121 C   0  0  0  0  0  0  0  0  0  0  0  0
   30.1393   10.3696   60.8743 C   0  0  0  0  0  0  0  0  0  0  0  0
   30.8750    9.3558   61.3305 N   0  0  0  0  0  0  0  0  0  0  0  0
   28.2124   12.3760   59.4293 C   0  0  0  0  0  0  0  0  0  0  0  0
   29.4926   13.1665   59.5138 C   0  0  0  0  0  0  0  0  0  0  0  0
   29.2988   14.1952   60.5916 C   0  0  0  0  0  0  0  0  0  0  0  0
   28.0424   13.8595   61.3313 C   0  0  0  0  0  0  0  0  0  0  0  0
   27.4596   12.6175   60.6990 C   0  0  0  0  0  0  0  0  0  0  0  0
   25.4541   10.0766   55.3689 N   0  0  0  0  0  0  0  0  0  0  0  0
   25.3875   11.0717   55.0644 H   0  0  0  0  0  0  0  0  0  0  0  0
   24.5884    9.1114   54.8032 C   0  0  0  0  0  0  0  0  0  0  0  0
   24.9781    8.2228   53.8274 C   0  0  0  0  0  0  0  0  0  0  0  0
   24.1032    7.2883   53.2937 C   0  0  0  0  0  0  0  0  0  0  0  0
   22.8027    7.2420   53.7491 C   0  0  0  0  0  0  0  0  0  0  0  0
   22.4650    8.1364   54.7104 N   0  0  0  0  0  0  0  0  0  0  0  0
   23.3121    9.0211   55.2084 N   0  0  0  0  0  0  0  0  0  0  0  0
   21.8530    6.3102   53.2467 N   0  0  0  0  0  0  0  0  0  0  0  0
   22.1725    5.4152   52.8512 H   0  0  0  0  0  0  0  0  0  0  0  0
   20.4414    6.6179   53.2909 C   0  0  0  0  0  0  0  0  0  0  0  0
   20.0882    7.7605   52.3638 C   0  0  0  0  0  0  0  0  0  0  0  0
   20.6635    9.0752   52.8415 C   0  0  0  0  0  0  0  0  0  0  0  0
   21.0679    9.3826   51.4714 N   0  0  0  0  0  0  0  0  0  0  0  0
   21.0417    7.9430   51.2099 C   0  0  0  0  0  0  0  0  0  0  0  0
   22.0673    9.7128   51.4458 H   0  0  0  0  0  0  0  0  0  0  0  0
  1  2  2  0  0  0
  2  3  1  0  0  0
  3  4  1  0  0  0
  4  5  2  0  0  0
  5  6  1  0  0  0
  6  7  2  0  0  0
  7 19  1  0  0  0
 19 21  1  0  0  0
 21 22  2  0  0  0
 22 23  1  0  0  0
 23 24  2  0  0  0
 24 27  1  0  0  0
 27 29  1  0  0  0
 29 30  1  0  0  0
 30 31  1  0  0  0
 31 32  1  0  0  0
 32 33  1  0  0  0
 24 25  1  0  0  0
 25 26  2  0  0  0
  7  8  1  0  0  0
  8  9  2  0  0  0
  9 10  1  0  0  0
 10 14  1  0  0  0
 14 15  1  0  0  0
 15 16  1  0  0  0
 16 17  1  0  0  0
 17 18  1  0  0  0
 10 11  1  0  0  0
 11 12  1  0  0  0
 12 13  2  0  0  0
 13  1  1  0  0  0
 11  3  2  0  0  0
  9  4  1  0  0  0
 18 14  1  0  0  0
 26 21  1  0  0  0
 33 30  1  0  0  0
 19 20  1  0  0  0
 27 28  1  0  0  0
 32 34  1  0  0  0
M  END
> <minimizedAffinity>
11.79677

> <CNNscore>
0.4291800261

> <CNNaffinity>
6.5926561356

> <CNN_VS>
2.8294363022

> <CNNaffinity_variance>
0.4182712436

$$$$
[H]c1nc([H])c2c(c1[H])c1c([H])nc(N([H])c3nnc(N([H])C([H])([H])C4([H])C([H])([H])N([H])C4([H])[H])c([H])c3[H])nc1n2C1([H])C([H])([H])C([H])([H])C([H])([H])C1([H])[H]


 34 39  0  0  0  0  0  0  0  0999 V2000
   30.7778    8.3544   60.8274 C   0  0  0  0  0  0  0  0  0  0  0  0
   29.9069    8.1288   59.7765 C   0  0  0  0  0  0  0  0  0  0  0  0
   29.1358    9.1642   59.2944 C   0  0  0  0  0  0  0  0  0  0  0  0
   28.2145    9.2097   58.2859 C   0  0  0  0  0  0  0  0  0  0  0  0
   27.7016    8.2847   57.3796 C   0  0  0  0  0  0  0  0  0  0  0  0
   26.7756    8.6862   56.4950 N   0  0  0  0  0  0  0  0  0  0  0  0
   26.3035    9.9492   56.4281 C   0  0  0  0  0  0  0  0  0  0  0  0
   26.7815   10.8600   57.2903 N   0  0  0  0  0  0  0  0  0  0  0  0
   27.7171   10.4914   58.1975 C   0  0  0  0  0  0  0  0  0  0  0  0
   28.3490   11.2186   59.1646 N   0  0  0  0  0  0  0  0  0  0  0  0
   29.2025   10.4318   59.8286 C   0  0  0  0  0  0  0  0  0  0  0  0
   30.0815   10.6213   60.8754 C   0  0  0  0  0  0  0  0  0  0  0  0
   30.8202    9.6089   61.3298 N   0  0  0  0  0  0  0  0  0  0  0  0
   28.1402   12.6217   59.4413 C   0  0  0  0  0  0  0  0  0  0  0  0
   29.4214   13.4149   59.4588 C   0  0  0  0  0  0  0  0  0  0  0  0
   29.2729   14.4583   60.5295 C   0  0  0  0  0  0  0  0  0  0  0  0
   28.0507   14.1314   61.3282 C   0  0  0  0  0  0  0  0  0  0  0  0
   27.4431   12.8799   60.7392 C   0  0  0  0  0  0  0  0  0  0  0  0
   25.3092   10.2947   55.4472 N   0  0  0  0  0  0  0  0  0  0  0  0
   25.4347   11.1723   54.8981 H   0  0  0  0  0  0  0  0  0  0  0  0
   24.1776    9.4784   55.2144 C   0  0  0  0  0  0  0  0  0  0  0  0
   22.9030    9.8204   55.6042 C   0  0  0  0  0  0  0  0  0  0  0  0
   21.8146    8.9962   55.3601 C   0  0  0  0  0  0  0  0  0  0  0  0
   22.0072    7.7967   54.7081 C   0  0  0  0  0  0  0  0  0  0  0  0
   23.2796    7.5027   54.3435 N   0  0  0  0  0  0  0  0  0  0  0  0
   24.3062    8.3004   54.5842 N   0  0  0  0  0  0  0  0  0  0  0  0
   20.9372    6.9036   54.4253 N   0  0  0  0  0  0  0  0  0  0  0  0
   20.2832    6.6339   55.1730 H   0  0  0  0  0  0  0  0  0  0  0  0
   20.7670    6.3750   53.0908 C   0  0  0  0  0  0  0  0  0  0  0  0
   20.3548    7.4517   52.1106 C   0  0  0  0  0  0  0  0  0  0  0  0
   20.5402    8.8392   52.6833 C   0  0  0  0  0  0  0  0  0  0  0  0
   21.1139    9.2746   51.4119 N   0  0  0  0  0  0  0  0  0  0  0  0
   21.4425    7.8720   51.1544 C   0  0  0  0  0  0  0  0  0  0  0  0
   22.0077    9.8074   51.5723 H   0  0  0  0  0  0  0  0  0  0  0  0
  1  2  2  0  0  0
  2  3  1  0  0  0
  3  4  1  0  0  0
  4  5  2  0  0  0
  5  6  1  0  0  0
  6  7  2  0  0  0
  7 19  1  0  0  0
 19 21  1  0  0  0
 21 22  2  0  0  0
 22 23  1  0  0  0
 23 24  2  0  0  0
 24 27  1  0  0  0
 27 29  1  0  0  0
 29 30  1  0  0  0
 30 31  1  0  0  0
 31 32  1  0  0  0
 32 33  1  0  0  0
 24 25  1  0  0  0
 25 26  2  0  0  0
  7  8  1  0  0  0
  8  9  2  0  0  0
  9 10  1  0  0  0
 10 14  1  0  0  0
 14 15  1  0  0  0
 15 16  1  0  0  0
 16 17  1  0  0  0
 17 18  1  0  0  0
 10 11  1  0  0  0
 11 12  1  0  0  0
 12 13  2  0  0  0
 13  1  1  0  0  0
 11  3  2  0  0  0
  9  4  1  0  0  0
 18 14  1  0  0  0
 26 21  1  0  0  0
 33 30  1  0  0  0
 19 20  1  0  0  0
 27 28  1  0  0  0
 32 34  1  0  0  0
M  END
> <minimizedAffinity>
13.61530

> <CNNscore>
0.4226627052

> <CNNaffinity>
6.7180075645

> <CNN_VS>
2.8394513130

> <CNNaffinity_variance>
0.4644287527

$$$$
[H]c1nc([H])c2c(c1[H])c1c([H])nc(N([H])c3nnc(N([H])C([H])([H])C4([H])C([H])([H])N([H])C4([H])[H])c([H])c3[H])nc1n2C1([H])C([H])([H])C([H])([H])C([H])([H])C1([H])[H]


 34 39  0  0  0  0  0  0  0  0999 V2000
   30.7191    8.2378   60.8867 C   0  0  0  0  0  0  0  0  0  0  0  0
   30.2817    7.8684   59.6274 C   0  0  0  0  0  0  0  0  0  0  0  0
   29.5088    8.7393   58.8903 C   0  0  0  0  0  0  0  0  0  0  0  0
   28.9573    8.6242   57.6451 C   0  0  0  0  0  0  0  0  0  0  0  0
   28.9469    7.6383   56.6611 C   0  0  0  0  0  0  0  0  0  0  0  0
   28.2815    7.8676   55.5184 N   0  0  0  0  0  0  0  0  0  0  0  0
   27.6120    9.0110   55.2595 C   0  0  0  0  0  0  0  0  0  0  0  0
   27.6065    9.9770   56.1913 N   0  0  0  0  0  0  0  0  0  0  0  0
   28.2673    9.7812   57.3573 C   0  0  0  0  0  0  0  0  0  0  0  0
   28.4088   10.5959   58.4434 N   0  0  0  0  0  0  0  0  0  0  0  0
   29.1521    9.9803   59.3692 C   0  0  0  0  0  0  0  0  0  0  0  0
   29.6056   10.3161   60.6286 C   0  0  0  0  0  0  0  0  0  0  0  0
   30.3524    9.4618   61.3283 N   0  0  0  0  0  0  0  0  0  0  0  0
   27.8491   11.9206   58.5872 C   0  0  0  0  0  0  0  0  0  0  0  0
   28.2565   12.8550   57.4773 C   0  0  0  0  0  0  0  0  0  0  0  0
   28.4307   14.2138   58.0941 C   0  0  0  0  0  0  0  0  0  0  0  0
   28.4032   14.0541   59.5814 C   0  0  0  0  0  0  0  0  0  0  0  0
   28.2064   12.5860   59.8782 C   0  0  0  0  0  0  0  0  0  0  0  0
   26.9243    9.1741   54.0064 N   0  0  0  0  0  0  0  0  0  0  0  0
   27.2884    9.8752   53.3257 H   0  0  0  0  0  0  0  0  0  0  0  0
   25.7775    8.4123   53.6815 C   0  0  0  0  0  0  0  0  0  0  0  0
   25.4668    7.2151   54.2846 C   0  0  0  0  0  0  0  0  0  0  0  0
   24.3334    6.4928   53.9421 C   0  0  0  0  0  0  0  0  0  0  0  0
   23.4880    6.9821   52.9692 C   0  0  0  0  0  0  0  0  0  0  0  0
   23.8349    8.1644   52.4035 N   0  0  0  0  0  0  0  0  0  0  0  0
   24.9197    8.8403   52.7421 N   0  0  0  0  0  0  0  0  0  0  0  0
   22.3093    6.2943   52.5688 N   0  0  0  0  0  0  0  0  0  0  0  0
   22.3708    5.5256   51.8870 H   0  0  0  0  0  0  0  0  0  0  0  0
   21.0268    6.6727   53.1177 C   0  0  0  0  0  0  0  0  0  0  0  0
   21.1775    7.5902   54.3116 C   0  0  0  0  0  0  0  0  0  0  0  0
   20.8670    9.0287   53.9623 C   0  0  0  0  0  0  0  0  0  0  0  0
   20.1035    9.1525   55.2020 N   0  0  0  0  0  0  0  0  0  0  0  0
   19.9445    7.6981   55.1729 C   0  0  0  0  0  0  0  0  0  0  0  0
   19.1679    9.5987   55.0174 H   0  0  0  0  0  0  0  0  0  0  0  0
  1  2  2  0  0  0
  2  3  1  0  0  0
  3  4  1  0  0  0
  4  5  2  0  0  0
  5  6  1  0  0  0
  6  7  2  0  0  0
  7 19  1  0  0  0
 19 21  1  0  0  0
 21 22  2  0  0  0
 22 23  1  0  0  0
 23 24  2  0  0  0
 24 27  1  0  0  0
 27 29  1  0  0  0
 29 30  1  0  0  0
 30 31  1  0  0  0
 31 32  1  0  0  0
 32 33  1  0  0  0
 24 25  1  0  0  0
 25 26  2  0  0  0
  7  8  1  0  0  0
  8  9  2  0  0  0
  9 10  1  0  0  0
 10 14  1  0  0  0
 14 15  1  0  0  0
 15 16  1  0  0  0
 16 17  1  0  0  0
 17 18  1  0  0  0
 10 11  1  0  0  0
 11 12  1  0  0  0
 12 13  2  0  0  0
 13  1  1  0  0  0
 11  3  2  0  0  0
  9  4  1  0  0  0
 18 14  1  0  0  0
 26 21  1  0  0  0
 33 30  1  0  0  0
 19 20  1  0  0  0
 27 28  1  0  0  0
 32 34  1  0  0  0
M  END
> <minimizedAffinity>
25.84803

> <CNNscore>
0.4163583219

> <CNNaffinity>
6.0708479881

> <CNN_VS>
2.5276479721

> <CNNaffinity_variance>
0.7394350767

$$$$
[H]c1nc([H])c2c(c1[H])c1c([H])nc(N([H])c3nnc(N([H])C([H])([H])C4([H])C([H])([H])N([H])C4([H])[H])c([H])c3[H])nc1n2C1([H])C([H])([H])C([H])([H])C([H])([H])C1([H])[H]


 34 39  0  0  0  0  0  0  0  0999 V2000
   20.8068    7.7963   51.6163 C   0  0  0  0  0  0  0  0  0  0  0  0
   22.1482    8.1263   51.6896 C   0  0  0  0  0  0  0  0  0  0  0  0
   22.8639    7.8261   52.8284 C   0  0  0  0  0  0  0  0  0  0  0  0
   24.1744    8.0389   53.1531 C   0  0  0  0  0  0  0  0  0  0  0  0
   25.2671    8.6131   52.5076 C   0  0  0  0  0  0  0  0  0  0  0  0
   26.4483    8.6563   53.1433 N   0  0  0  0  0  0  0  0  0  0  0  0
   26.6462    8.1709   54.3874 C   0  0  0  0  0  0  0  0  0  0  0  0
   25.6093    7.6124   55.0313 N   0  0  0  0  0  0  0  0  0  0  0  0
   24.4016    7.5509   54.4212 C   0  0  0  0  0  0  0  0  0  0  0  0
   23.2130    7.0413   54.8579 N   0  0  0  0  0  0  0  0  0  0  0  0
   22.2835    7.2013   53.9098 C   0  0  0  0  0  0  0  0  0  0  0  0
   20.9441    6.8866   53.8025 C   0  0  0  0  0  0  0  0  0  0  0  0
   20.2665    7.1840   52.6938 N   0  0  0  0  0  0  0  0  0  0  0  0
   22.9779    6.4217   56.1423 C   0  0  0  0  0  0  0  0  0  0  0  0
   23.4252    4.9835   56.1923 C   0  0  0  0  0  0  0  0  0  0  0  0
   22.4354    4.2493   57.0516 C   0  0  0  0  0  0  0  0  0  0  0  0
   21.2670    5.1535   57.2877 C   0  0  0  0  0  0  0  0  0  0  0  0
   21.5452    6.4537   56.5707 C   0  0  0  0  0  0  0  0  0  0  0  0
   27.9472    8.2584   54.9954 N   0  0  0  0  0  0  0  0  0  0  0  0
   28.7383    7.7402   54.5562 H   0  0  0  0  0  0  0  0  0  0  0  0
   28.1735    9.0239   56.1633 C   0  0  0  0  0  0  0  0  0  0  0  0
   28.2216    8.4823   57.4273 C   0  0  0  0  0  0  0  0  0  0  0  0
   28.4456    9.2620   58.5522 C   0  0  0  0  0  0  0  0  0  0  0  0
   28.6263   10.6212   58.4079 C   0  0  0  0  0  0  0  0  0  0  0  0
   28.5704   11.1093   57.1442 N   0  0  0  0  0  0  0  0  0  0  0  0
   28.3558   10.3512   56.0823 N   0  0  0  0  0  0  0  0  0  0  0  0
   28.8601   11.4800   59.5171 N   0  0  0  0  0  0  0  0  0  0  0  0
   29.7670   11.4542   60.0033 H   0  0  0  0  0  0  0  0  0  0  0  0
   27.8272   12.3881   59.9618 C   0  0  0  0  0  0  0  0  0  0  0  0
   28.3481   13.3677   60.9909 C   0  0  0  0  0  0  0  0  0  0  0  0
   29.8005   13.1147   61.3283 C   0  0  0  0  0  0  0  0  0  0  0  0
   30.0527   14.5528   61.2686 N   0  0  0  0  0  0  0  0  0  0  0  0
   28.8706   14.6586   60.4125 C   0  0  0  0  0  0  0  0  0  0  0  0
   30.9086   14.7547   60.6898 H   0  0  0  0  0  0  0  0  0  0  0  0
  1  2  2  0  0  0
  2  3  1  0  0  0
  3  4  1  0  0  0
  4  5  2  0  0  0
  5  6  1  0  0  0
  6  7  2  0  0  0
  7 19  1  0  0  0
 19 21  1  0  0  0
 21 22  2  0  0  0
 22 23  1  0  0  0
 23 24  2  0  0  0
 24 27  1  0  0  0
 27 29  1  0  0  0
 29 30  1  0  0  0
 30 31  1  0  0  0
 31 32  1  0  0  0
 32 33  1  0  0  0
 24 25  1  0  0  0
 25 26  2  0  0  0
  7  8  1  0  0  0
  8  9  2  0  0  0
  9 10  1  0  0  0
 10 14  1  0  0  0
 14 15  1  0  0  0
 15 16  1  0  0  0
 16 17  1  0  0  0
 17 18  1  0  0  0
 10 11  1  0  0  0
 11 12  1  0  0  0
 12 13  2  0  0  0
 13  1  1  0  0  0
 11  3  2  0  0  0
  9  4  1  0  0  0
 18 14  1  0  0  0
 26 21  1  0  0  0
 33 30  1  0  0  0
 19 20  1  0  0  0
 27 28  1  0  0  0
 32 34  1  0  0  0
M  END
> <minimizedAffinity>
16.89454

> <CNNscore>
0.4010986984

> <CNNaffinity>
6.4851608276

> <CNN_VS>
2.6011896133

> <CNNaffinity_variance>
0.3523262441

$$$$
[H]c1nc([H])c2c(c1[H])c1c([H])nc(N([H])c3nnc(N([H])C([H])([H])C4([H])C([H])([H])N([H])C4([H])[H])c([H])c3[H])nc1n2C1([H])C([H])([H])C([H])([H])C([H])([H])C1([H])[H]


 34 39  0  0  0  0  0  0  0  0999 V2000
   30.8787    8.3054   60.8307 C   0  0  0  0  0  0  0  0  0  0  0  0
   30.0277    8.0405   59.7727 C   0  0  0  0  0  0  0  0  0  0  0  0
   29.2159    9.0405   59.2825 C   0  0  0  0  0  0  0  0  0  0  0  0
   28.3022    9.0444   58.2662 C   0  0  0  0  0  0  0  0  0  0  0  0
   27.8383    8.0967   57.3568 C   0  0  0  0  0  0  0  0  0  0  0  0
   26.9032    8.4561   56.4638 N   0  0  0  0  0  0  0  0  0  0  0  0
   26.3765    9.6971   56.3910 C   0  0  0  0  0  0  0  0  0  0  0  0
   26.8065   10.6290   57.2559 N   0  0  0  0  0  0  0  0  0  0  0  0
   27.7497   10.3028   58.1716 C   0  0  0  0  0  0  0  0  0  0  0  0
   28.3406   11.0582   59.1430 N   0  0  0  0  0  0  0  0  0  0  0  0
   29.2222   10.3104   59.8154 C   0  0  0  0  0  0  0  0  0  0  0  0
   30.0830   10.5396   60.8694 C   0  0  0  0  0  0  0  0  0  0  0  0
   30.8615    9.5611   61.3315 N   0  0  0  0  0  0  0  0  0  0  0  0
   28.0679   12.4510   59.4160 C   0  0  0  0  0  0  0  0  0  0  0  0
   29.2812   13.3304   59.2559 C   0  0  0  0  0  0  0  0  0  0  0  0
   29.1927   14.3915   60.3159 C   0  0  0  0  0  0  0  0  0  0  0  0
   28.1059   14.0045   61.2686 C   0  0  0  0  0  0  0  0  0  0  0  0
   27.5211   12.6980   60.7860 C   0  0  0  0  0  0  0  0  0  0  0  0
   25.3765    9.9974   55.4012 N   0  0  0  0  0  0  0  0  0  0  0  0
   25.3868   10.9384   54.9519 H   0  0  0  0  0  0  0  0  0  0  0  0
   24.3905    9.0539   55.0286 C   0  0  0  0  0  0  0  0  0  0  0  0
   23.0717    9.1445   55.4109 C   0  0  0  0  0  0  0  0  0  0  0  0
   22.1298    8.2013   55.0278 C   0  0  0  0  0  0  0  0  0  0  0  0
   22.5186    7.1384   54.2404 C   0  0  0  0  0  0  0  0  0  0  0  0
   23.8272    7.0913   53.8888 N   0  0  0  0  0  0  0  0  0  0  0  0
   24.7122    7.9994   54.2631 N   0  0  0  0  0  0  0  0  0  0  0  0
   21.6063    6.1355   53.8110 N   0  0  0  0  0  0  0  0  0  0  0  0
   21.6395    5.1974   54.2334 H   0  0  0  0  0  0  0  0  0  0  0  0
   20.6335    6.4315   52.7837 C   0  0  0  0  0  0  0  0  0  0  0  0
   19.4047    5.5571   52.9076 C   0  0  0  0  0  0  0  0  0  0  0  0
   19.6463    4.1630   52.3732 C   0  0  0  0  0  0  0  0  0  0  0  0
   18.9534    3.6103   53.5350 N   0  0  0  0  0  0  0  0  0  0  0  0
   19.2720    4.8550   54.2355 C   0  0  0  0  0  0  0  0  0  0  0  0
   19.5138    2.8284   53.9628 H   0  0  0  0  0  0  0  0  0  0  0  0
  1  2  2  0  0  0
  2  3  1  0  0  0
  3  4  1  0  0  0
  4  5  2  0  0  0
  5  6  1  0  0  0
  6  7  2  0  0  0
  7 19  1  0  0  0
 19 21  1  0  0  0
 21 22  2  0  0  0
 22 23  1  0  0  0
 23 24  2  0  0  0
 24 27  1  0  0  0
 27 29  1  0  0  0
 29 30  1  0  0  0
 30 31  1  0  0  0
 31 32  1  0  0  0
 32 33  1  0  0  0
 24 25  1  0  0  0
 25 26  2  0  0  0
  7  8  1  0  0  0
  8  9  2  0  0  0
  9 10  1  0  0  0
 10 14  1  0  0  0
 14 15  1  0  0  0
 15 16  1  0  0  0
 16 17  1  0  0  0
 17 18  1  0  0  0
 10 11  1  0  0  0
 11 12  1  0  0  0
 12 13  2  0  0  0
 13  1  1  0  0  0
 11  3  2  0  0  0
  9  4  1  0  0  0
 18 14  1  0  0  0
 26 21  1  0  0  0
 33 30  1  0  0  0
 19 20  1  0  0  0
 27 28  1  0  0  0
 32 34  1  0  0  0
M  END
> <minimizedAffinity>
21.64335

> <CNNscore>
0.3781108558

> <CNNaffinity>
6.3191595078

> <CNN_VS>
2.3893427849

> <CNNaffinity_variance>
0.3780171573

$$$$
[H]Oc1c([H])c([H])c(C([H])([H])[C@@]2([H])C(=O)N(C([H])([H])c3c([H])c([H])c([H])c4c(C(=O)N([H])c5c([H])nc(N6C([H])([H])C([H])([H])C([H])(N7C([H])([H])C([H])([H])C7([H])[H])C([H])([H])C6([H])[H])c([H])c5[H])c([H])n(C([H])([H])[H])c34)C([H])([H])[C@]3([H])N(C(=O)N([H])C([H])([H])c4c([H])c([H])c([H])c([H])c4[H])N(C([H])([H])C([H])=C([H])[H])C([H])([H])C(=O)N23)c([H])c1[H]


 66 74  0  0  0  0  0  0  0  0999 V2000
   28.6829   10.5725   61.1225 N   0  0  0  0  0  0  0  0  0  0  0  0
   27.6040   11.4925   60.8101 C   0  0  0  0  0  0  0  0  0  0  0  0
   27.9267   11.8927   59.3802 C   0  0  0  0  0  0  0  0  0  0  0  0
   27.9689   13.1113   59.1321 O   0  0  0  0  0  0  0  0  0  0  0  0
   28.1515   10.8972   58.4294 N   0  0  0  0  0  0  0  0  0  0  0  0
   27.9255   11.1512   57.0352 C   0  0  0  0  0  0  0  0  0  0  0  0
   26.6418   10.3991   56.7732 C   0  0  0  0  0  0  0  0  0  0  0  0
   25.7534   10.8846   56.0940 O   0  0  0  0  0  0  0  0  0  0  0  0
   26.5205    9.1174   57.3457 N   0  0  0  0  0  0  0  0  0  0  0  0
   27.5576    8.5525   58.2430 C   0  0  0  0  0  0  0  0  0  0  0  0
   28.5077    9.5554   58.8078 C   0  0  0  0  0  0  0  0  0  0  0  0
   28.7714    9.4842   60.2267 N   0  0  0  0  0  0  0  0  0  0  0  0
   29.1835    8.2595   60.8380 C   0  0  0  0  0  0  0  0  0  0  0  0
   29.3350    8.2745   62.1060 O   0  0  0  0  0  0  0  0  0  0  0  0
   29.4455    7.0384   60.2048 N   0  0  0  0  0  0  0  0  0  0  0  0
   29.3581    6.9362   59.1935 H   0  0  0  0  0  0  0  0  0  0  0  0
   29.8746   11.4073   61.1021 C   0  0  0  0  0  0  0  0  0  0  0  0
   31.9053   10.9388   59.8574 C   0  0  0  0  0  0  0  0  0  0  0  0
   31.1098   10.6993   60.8650 C   0  0  0  0  0  0  0  0  0  0  0  0
   28.9678   10.7915   56.0632 C   0  0  0  0  0  0  0  0  0  0  0  0
   28.8546    9.5405   55.3092 C   0  0  0  0  0  0  0  0  0  0  0  0
   29.8870    8.6011   55.3386 C   0  0  0  0  0  0  0  0  0  0  0  0
   29.8167    7.4524   54.5799 C   0  0  0  0  0  0  0  0  0  0  0  0
   28.7437    7.1672   53.7594 C   0  0  0  0  0  0  0  0  0  0  0  0
   28.7345    5.9956   53.0264 O   0  0  0  0  0  0  0  0  0  0  0  0
   27.7312    8.0849   53.7264 C   0  0  0  0  0  0  0  0  0  0  0  0
   27.7877    9.2518   54.4884 C   0  0  0  0  0  0  0  0  0  0  0  0
   29.4909    5.3209   53.0609 H   0  0  0  0  0  0  0  0  0  0  0  0
   25.3653    8.2401   57.1484 C   0  0  0  0  0  0  0  0  0  0  0  0
   24.3204    8.9724   56.4262 C   0  0  0  0  0  0  0  0  0  0  0  0
   23.7209   10.0844   56.9571 C   0  0  0  0  0  0  0  0  0  0  0  0
   22.6944   10.7484   56.3076 C   0  0  0  0  0  0  0  0  0  0  0  0
   22.2459   10.2915   55.0819 C   0  0  0  0  0  0  0  0  0  0  0  0
   22.8527    9.1567   54.5288 C   0  0  0  0  0  0  0  0  0  0  0  0
   22.6463    8.5042   53.3597 C   0  0  0  0  0  0  0  0  0  0  0  0
   23.5416    7.4740   53.3203 C   0  0  0  0  0  0  0  0  0  0  0  0
   24.3041    7.4534   54.4276 N   0  0  0  0  0  0  0  0  0  0  0  0
   25.3526    6.5109   54.7300 C   0  0  0  0  0  0  0  0  0  0  0  0
   23.8816    8.4999   55.1931 C   0  0  0  0  0  0  0  0  0  0  0  0
   21.6338    8.7691   52.2805 C   0  0  0  0  0  0  0  0  0  0  0  0
   20.9394    7.8239   51.8497 O   0  0  0  0  0  0  0  0  0  0  0  0
   21.5402   10.1005   51.8351 N   0  0  0  0  0  0  0  0  0  0  0  0
   20.3719    9.7402   51.1942 H   0  0  0  0  0  0  0  0  0  0  0  0
   21.4394   11.3297   51.4101 C   0  0  0  0  0  0  0  0  0  0  0  0
   21.9359   12.3918   52.1939 C   0  0  0  0  0  0  0  0  0  0  0  0
   21.8680   13.6874   51.8381 C   0  0  0  0  0  0  0  0  0  0  0  0
   21.2737   14.0091   50.6393 C   0  0  0  0  0  0  0  0  0  0  0  0
   20.7723   13.0470   49.8319 N   0  0  0  0  0  0  0  0  0  0  0  0
   20.8515   11.7462   50.1961 C   0  0  0  0  0  0  0  0  0  0  0  0
   21.1194   15.3697   50.2247 N   0  0  0  0  0  0  0  0  0  0  0  0
   21.4084   16.4207   51.1689 C   0  0  0  0  0  0  0  0  0  0  0  0
   22.0664   17.6310   50.6167 C   0  0  0  0  0  0  0  0  0  0  0  0
   22.1272   17.7149   49.1323 C   0  0  0  0  0  0  0  0  0  0  0  0
   20.9397   17.0467   48.4470 C   0  0  0  0  0  0  0  0  0  0  0  0
   20.6552   15.6684   48.8989 C   0  0  0  0  0  0  0  0  0  0  0  0
   22.2293   19.0225   48.5886 N   0  0  0  0  0  0  0  0  0  0  0  0
   21.4854   20.0600   49.2276 C   0  0  0  0  0  0  0  0  0  0  0  0
   21.4286   20.7615   47.8855 C   0  0  0  0  0  0  0  0  0  0  0  0
   21.6680   19.3573   47.3343 C   0  0  0  0  0  0  0  0  0  0  0  0
   29.8670    5.8643   60.9639 C   0  0  0  0  0  0  0  0  0  0  0  0
   28.6678    5.0458   61.3757 C   0  0  0  0  0  0  0  0  0  0  0  0
   27.7125    4.7404   60.4637 C   0  0  0  0  0  0  0  0  0  0  0  0
   26.5721    4.0061   60.8757 C   0  0  0  0  0  0  0  0  0  0  0  0
   26.4502    3.6115   62.2075 C   0  0  0  0  0  0  0  0  0  0  0  0
   27.5025    3.9869   63.0665 C   0  0  0  0  0  0  0  0  0  0  0  0
   28.5763    4.6705   62.6913 C   0  0  0  0  0  0  0  0  0  0  0  0
 18 19  2  0  0  0
 19 17  1  0  0  0
 17  1  1  0  0  0
  1  2  1  0  0  0
  2  3  1  0  0  0
  3  4  2  0  0  0
  3  5  1  0  0  0
  5  6  1  0  0  0
  6 20  1  0  0  0
 20 21  1  0  0  0
 21 22  2  0  0  0
 22 23  1  0  0  0
 23 24  2  0  0  0
 24 25  1  0  0  0
 24 26  1  0  0  0
 26 27  2  0  0  0
  6  7  1  0  0  0
  7  8  2  0  0  0
  7  9  1  0  0  0
  9 29  1  0  0  0
 29 30  1  0  0  0
 30 31  2  0  0  0
 31 32  1  0  0  0
 32 33  2  0  0  0
 33 34  1  0  0  0
 34 35  1  0  0  0
 35 40  1  0  0  0
 40 41  2  0  0  0
 40 42  1  0  0  0
 42 44  1  0  0  0
 44 45  2  0  0  0
 45 46  1  0  0  0
 46 47  2  0  0  0
 47 50  1  0  0  0
 50 51  1  0  0  0
 51 52  1  0  0  0
 52 53  1  0  0  0
 53 56  1  0  0  0
 56 57  1  0  0  0
 57 58  1  0  0  0
 58 59  1  0  0  0
 53 54  1  0  0  0
 54 55  1  0  0  0
 47 48  1  0  0  0
 48 49  2  0  0  0
 35 36  2  0  0  0
 36 37  1  0  0  0
 37 38  1  0  0  0
 37 39  1  0  0  0
  9 10  1  0  0  0
 10 11  1  0  0  0
 11 12  1  0  0  0
 12 13  1  0  0  0
 13 14  2  0  0  0
 13 15  1  0  0  0
 15 60  1  0  0  0
 60 61  1  0  0  0
 61 62  2  0  0  0
 62 63  1  0  0  0
 63 64  2  0  0  0
 64 65  1  0  0  0
 65 66  2  0  0  0
 12  1  1  0  0  0
 66 61  1  0  0  0
 11  5  1  0  0  0
 27 21  1  0  0  0
 39 30  1  0  0  0
 39 34  2  0  0  0
 49 44  1  0  0  0
 55 50  1  0  0  0
 59 56  1  0  0  0
 25 28  1  0  0  0
 42 43  1  0  0  0
 15 16  1  0  0  0
M  END
> <minimizedAffinity>
54.63086

> <CNNscore>
0.4545766413

> <CNNaffinity>
7.1603021622

> <CNN_VS>
3.2549061775

> <CNNaffinity_variance>
0.9082679749

$$$$
[H]Oc1c([H])c([H])c(C([H])([H])[C@@]2([H])C(=O)N(C([H])([H])c3c([H])c([H])c([H])c4c(C(=O)N([H])c5c([H])nc(N6C([H])([H])C([H])([H])C([H])(N7C([H])([H])C([H])([H])C7([H])[H])C([H])([H])C6([H])[H])c([H])c5[H])c([H])n(C([H])([H])[H])c34)C([H])([H])[C@]3([H])N(C(=O)N([H])C([H])([H])c4c([H])c([H])c([H])c([H])c4[H])N(C([H])([H])C([H])=C([H])[H])C([H])([H])C(=O)N23)c([H])c1[H]


 66 74  0  0  0  0  0  0  0  0999 V2000
   20.6222   -2.0187   61.9953 N   0  0  0  0  0  0  0  0  0  0  0  0
   20.3513   -0.6030   61.8212 C   0  0  0  0  0  0  0  0  0  0  0  0
   20.7037   -0.0379   63.1869 C   0  0  0  0  0  0  0  0  0  0  0  0
   19.8496    0.6808   63.7367 O   0  0  0  0  0  0  0  0  0  0  0  0
   21.9442   -0.3399   63.7486 N   0  0  0  0  0  0  0  0  0  0  0  0
   22.5464    0.5387   64.7104 C   0  0  0  0  0  0  0  0  0  0  0  0
   23.6426    1.1967   63.9058 C   0  0  0  0  0  0  0  0  0  0  0  0
   23.8619    2.3924   63.9979 O   0  0  0  0  0  0  0  0  0  0  0  0
   24.3962    0.3690   63.0503 N   0  0  0  0  0  0  0  0  0  0  0  0
   24.0831   -1.0691   62.8662 C   0  0  0  0  0  0  0  0  0  0  0  0
   22.7173   -1.4725   63.3126 C   0  0  0  0  0  0  0  0  0  0  0  0
   21.9454   -2.2920   62.4068 N   0  0  0  0  0  0  0  0  0  0  0  0
   22.4851   -3.5000   61.8658 C   0  0  0  0  0  0  0  0  0  0  0  0
   21.7557   -4.1283   61.0267 O   0  0  0  0  0  0  0  0  0  0  0  0
   23.7266   -4.0806   62.1527 N   0  0  0  0  0  0  0  0  0  0  0  0
   24.3713   -3.6521   62.8173 H   0  0  0  0  0  0  0  0  0  0  0  0
   19.6357   -2.4481   62.9751 C   0  0  0  0  0  0  0  0  0  0  0  0
   19.2999   -4.1034   64.7186 C   0  0  0  0  0  0  0  0  0  0  0  0
   19.9831   -3.6439   63.7049 C   0  0  0  0  0  0  0  0  0  0  0  0
   23.0635   -0.0214   65.9672 C   0  0  0  0  0  0  0  0  0  0  0  0
   23.4754   -1.4264   66.0188 C   0  0  0  0  0  0  0  0  0  0  0  0
   24.8288   -1.7680   65.9955 C   0  0  0  0  0  0  0  0  0  0  0  0
   25.2224   -3.0889   65.9770 C   0  0  0  0  0  0  0  0  0  0  0  0
   24.3203   -4.1341   65.9781 C   0  0  0  0  0  0  0  0  0  0  0  0
   24.7814   -5.4368   65.9614 O   0  0  0  0  0  0  0  0  0  0  0  0
   22.9939   -3.8042   65.9994 C   0  0  0  0  0  0  0  0  0  0  0  0
   22.5802   -2.4723   66.0184 C   0  0  0  0  0  0  0  0  0  0  0  0
   25.7685   -5.6692   65.9480 H   0  0  0  0  0  0  0  0  0  0  0  0
   25.5226    0.8388   62.2417 C   0  0  0  0  0  0  0  0  0  0  0  0
   26.6258    1.2233   63.1276 C   0  0  0  0  0  0  0  0  0  0  0  0
   27.1338    0.3603   64.0631 C   0  0  0  0  0  0  0  0  0  0  0  0
   28.1365    0.7337   64.9415 C   0  0  0  0  0  0  0  0  0  0  0  0
   28.6565    2.0139   64.8888 C   0  0  0  0  0  0  0  0  0  0  0  0
   28.1460    2.9039   63.9352 C   0  0  0  0  0  0  0  0  0  0  0  0
   28.4658    4.1862   63.6376 C   0  0  0  0  0  0  0  0  0  0  0  0
   27.6658    4.5601   62.5961 C   0  0  0  0  0  0  0  0  0  0  0  0
   26.8497    3.5565   62.2289 N   0  0  0  0  0  0  0  0  0  0  0  0
   25.8733    3.5890   61.1685 C   0  0  0  0  0  0  0  0  0  0  0  0
   27.1386    2.5151   63.0605 C   0  0  0  0  0  0  0  0  0  0  0  0
   29.4619    5.1020   64.2929 C   0  0  0  0  0  0  0  0  0  0  0  0
   29.9419    4.7876   65.4028 O   0  0  0  0  0  0  0  0  0  0  0  0
   29.7900    6.2693   63.5792 N   0  0  0  0  0  0  0  0  0  0  0  0
   30.8378    6.4413   64.4613 H   0  0  0  0  0  0  0  0  0  0  0  0
   30.1064    7.3565   62.9315 C   0  0  0  0  0  0  0  0  0  0  0  0
   31.4153    7.8746   63.0167 C   0  0  0  0  0  0  0  0  0  0  0  0
   31.8264    8.9917   62.3900 C   0  0  0  0  0  0  0  0  0  0  0  0
   30.9204    9.6840   61.6194 C   0  0  0  0  0  0  0  0  0  0  0  0
   29.6456    9.2515   61.4888 N   0  0  0  0  0  0  0  0  0  0  0  0
   29.2439    8.1231   62.1182 C   0  0  0  0  0  0  0  0  0  0  0  0
   31.2753   10.9082   60.9696 N   0  0  0  0  0  0  0  0  0  0  0  0
   30.2235   11.7872   60.5218 C   0  0  0  0  0  0  0  0  0  0  0  0
   30.4806   13.2412   60.6714 C   0  0  0  0  0  0  0  0  0  0  0  0
   31.8733   13.6188   61.0348 C   0  0  0  0  0  0  0  0  0  0  0  0
   32.9179   12.6582   60.4756 C   0  0  0  0  0  0  0  0  0  0  0  0
   32.6573   11.2288   60.7469 C   0  0  0  0  0  0  0  0  0  0  0  0
   32.2793   14.9266   60.6599 N   0  0  0  0  0  0  0  0  0  0  0  0
   32.8901   15.7381   61.6632 C   0  0  0  0  0  0  0  0  0  0  0  0
   32.3539   16.9476   60.9240 C   0  0  0  0  0  0  0  0  0  0  0  0
   31.3431   15.9461   60.3687 C   0  0  0  0  0  0  0  0  0  0  0  0
   24.1446   -5.3298   61.5226 C   0  0  0  0  0  0  0  0  0  0  0  0
   24.9930   -5.0475   60.3068 C   0  0  0  0  0  0  0  0  0  0  0  0
   26.1763   -4.4006   60.4437 C   0  0  0  0  0  0  0  0  0  0  0  0
   26.9418   -4.1064   59.2874 C   0  0  0  0  0  0  0  0  0  0  0  0
   26.4676   -4.4844   58.0318 C   0  0  0  0  0  0  0  0  0  0  0  0
   25.2248   -5.1486   58.0103 C   0  0  0  0  0  0  0  0  0  0  0  0
   24.5015   -5.4328   59.0860 C   0  0  0  0  0  0  0  0  0  0  0  0
 18 19  2  0  0  0
 19 17  1  0  0  0
 17  1  1  0  0  0
  1  2  1  0  0  0
  2  3  1  0  0  0
  3  4  2  0  0  0
  3  5  1  0  0  0
  5  6  1  0  0  0
  6 20  1  0  0  0
 20 21  1  0  0  0
 21 22  2  0  0  0
 22 23  1  0  0  0
 23 24  2  0  0  0
 24 25  1  0  0  0
 24 26  1  0  0  0
 26 27  2  0  0  0
  6  7  1  0  0  0
  7  8  2  0  0  0
  7  9  1  0  0  0
  9 29  1  0  0  0
 29 30  1  0  0  0
 30 31  2  0  0  0
 31 32  1  0  0  0
 32 33  2  0  0  0
 33 34  1  0  0  0
 34 35  1  0  0  0
 35 40  1  0  0  0
 40 41  2  0  0  0
 40 42  1  0  0  0
 42 44  1  0  0  0
 44 45  2  0  0  0
 45 46  1  0  0  0
 46 47  2  0  0  0
 47 50  1  0  0  0
 50 51  1  0  0  0
 51 52  1  0  0  0
 52 53  1  0  0  0
 53 56  1  0  0  0
 56 57  1  0  0  0
 57 58  1  0  0  0
 58 59  1  0  0  0
 53 54  1  0  0  0
 54 55  1  0  0  0
 47 48  1  0  0  0
 48 49  2  0  0  0
 35 36  2  0  0  0
 36 37  1  0  0  0
 37 38  1  0  0  0
 37 39  1  0  0  0
  9 10  1  0  0  0
 10 11  1  0  0  0
 11 12  1  0  0  0
 12 13  1  0  0  0
 13 14  2  0  0  0
 13 15  1  0  0  0
 15 60  1  0  0  0
 60 61  1  0  0  0
 61 62  2  0  0  0
 62 63  1  0  0  0
 63 64  2  0  0  0
 64 65  1  0  0  0
 65 66  2  0  0  0
 12  1  1  0  0  0
 66 61  1  0  0  0
 11  5  1  0  0  0
 27 21  1  0  0  0
 39 30  1  0  0  0
 39 34  2  0  0  0
 49 44  1  0  0  0
 55 50  1  0  0  0
 59 56  1  0  0  0
 25 28  1  0  0  0
 42 43  1  0  0  0
 15 16  1  0  0  0
M  END
> <minimizedAffinity>
10.88402

> <CNNscore>
0.4271238148

> <CNNaffinity>
6.9715561867

> <CNN_VS>
2.9777176380

> <CNNaffinity_variance>
0.2592683434

$$$$
[H]Oc1c([H])c([H])c(C([H])([H])[C@@]2([H])C(=O)N(C([H])([H])c3c([H])c([H])c([H])c4c(C(=O)N([H])c5c([H])nc(N6C([H])([H])C([H])([H])C([H])(N7C([H])([H])C([H])([H])C7([H])[H])C([H])([H])C6([H])[H])c([H])c5[H])c([H])n(C([H])([H])[H])c34)C([H])([H])[C@]3([H])N(C(=O)N([H])C([H])([H])c4c([H])c([H])c([H])c([H])c4[H])N(C([H])([H])C([H])=C([H])[H])C([H])([H])C(=O)N23)c([H])c1[H]


 66 74  0  0  0  0  0  0  0  0999 V2000
   28.9373    8.0085   60.7440 N   0  0  0  0  0  0  0  0  0  0  0  0
   29.1364    7.9706   62.1817 C   0  0  0  0  0  0  0  0  0  0  0  0
   30.6156    8.2930   62.3100 C   0  0  0  0  0  0  0  0  0  0  0  0
   31.3041    7.5162   62.9963 O   0  0  0  0  0  0  0  0  0  0  0  0
   31.1235    9.4236   61.6704 N   0  0  0  0  0  0  0  0  0  0  0  0
   32.3068   10.0723   62.1588 C   0  0  0  0  0  0  0  0  0  0  0  0
   31.7489   11.3173   62.8077 C   0  0  0  0  0  0  0  0  0  0  0  0
   32.1645   11.7073   63.8854 O   0  0  0  0  0  0  0  0  0  0  0  0
   30.7332   12.0033   62.1129 N   0  0  0  0  0  0  0  0  0  0  0  0
   30.1610   11.4914   60.8438 C   0  0  0  0  0  0  0  0  0  0  0  0
   30.4314   10.0486   60.5745 C   0  0  0  0  0  0  0  0  0  0  0  0
   29.3113    9.2371   60.1564 N   0  0  0  0  0  0  0  0  0  0  0  0
   28.4891    9.6293   59.0548 C   0  0  0  0  0  0  0  0  0  0  0  0
   27.4858    8.8833   58.7944 O   0  0  0  0  0  0  0  0  0  0  0  0
   28.6581   10.7409   58.2202 N   0  0  0  0  0  0  0  0  0  0  0  0
   29.4369   11.3872   58.3494 H   0  0  0  0  0  0  0  0  0  0  0  0
   29.7290    6.8922   60.2494 C   0  0  0  0  0  0  0  0  0  0  0  0
   28.1652    5.0382   60.3472 C   0  0  0  0  0  0  0  0  0  0  0  0
   29.2946    5.5913   60.6991 C   0  0  0  0  0  0  0  0  0  0  0  0
   33.3878   10.3950   61.2165 C   0  0  0  0  0  0  0  0  0  0  0  0
   33.4930   11.7508   60.6715 C   0  0  0  0  0  0  0  0  0  0  0  0
   33.2520   11.9894   59.3172 C   0  0  0  0  0  0  0  0  0  0  0  0
   33.4135   13.2501   58.7837 C   0  0  0  0  0  0  0  0  0  0  0  0
   33.8174   14.3320   59.5404 C   0  0  0  0  0  0  0  0  0  0  0  0
   33.9576   15.5708   58.9439 O   0  0  0  0  0  0  0  0  0  0  0  0
   34.0559   14.1027   60.8667 C   0  0  0  0  0  0  0  0  0  0  0  0
   33.8968   12.8327   61.4210 C   0  0  0  0  0  0  0  0  0  0  0  0
   33.7753   15.7292   57.9589 H   0  0  0  0  0  0  0  0  0  0  0  0
   30.1226   13.2496   62.5786 C   0  0  0  0  0  0  0  0  0  0  0  0
   30.8381   14.3868   61.9916 C   0  0  0  0  0  0  0  0  0  0  0  0
   32.0838   14.7572   62.4263 C   0  0  0  0  0  0  0  0  0  0  0  0
   32.7423   15.8633   61.9173 C   0  0  0  0  0  0  0  0  0  0  0  0
   32.1415   16.6318   60.9371 C   0  0  0  0  0  0  0  0  0  0  0  0
   30.8690   16.2613   60.4839 C   0  0  0  0  0  0  0  0  0  0  0  0
   30.0586   16.7954   59.5389 C   0  0  0  0  0  0  0  0  0  0  0  0
   28.9413   16.0119   59.4896 C   0  0  0  0  0  0  0  0  0  0  0  0
   29.0192   15.0027   60.3748 N   0  0  0  0  0  0  0  0  0  0  0  0
   28.0275   13.9806   60.5999 C   0  0  0  0  0  0  0  0  0  0  0  0
   30.2197   15.1487   61.0050 C   0  0  0  0  0  0  0  0  0  0  0  0
   30.2531   18.0222   58.6920 C   0  0  0  0  0  0  0  0  0  0  0  0
   31.2807   18.7155   58.8490 O   0  0  0  0  0  0  0  0  0  0  0  0
   29.2374   18.2946   57.7573 N   0  0  0  0  0  0  0  0  0  0  0  0
   30.0933   19.2151   57.1864 H   0  0  0  0  0  0  0  0  0  0  0  0
   28.3056   18.5626   56.8846 C   0  0  0  0  0  0  0  0  0  0  0  0
   28.3116   17.9265   55.6259 C   0  0  0  0  0  0  0  0  0  0  0  0
   27.3966   18.1475   54.6649 C   0  0  0  0  0  0  0  0  0  0  0  0
   26.3903   19.0533   54.9118 C   0  0  0  0  0  0  0  0  0  0  0  0
   26.3168   19.7051   56.0945 N   0  0  0  0  0  0  0  0  0  0  0  0
   27.2385   19.4707   57.0569 C   0  0  0  0  0  0  0  0  0  0  0  0
   25.4163   19.3763   53.9149 N   0  0  0  0  0  0  0  0  0  0  0  0
   25.4266   20.6969   53.3357 C   0  0  0  0  0  0  0  0  0  0  0  0
   25.1144   20.7764   51.8870 C   0  0  0  0  0  0  0  0  0  0  0  0
   24.5955   19.5273   51.2667 C   0  0  0  0  0  0  0  0  0  0  0  0
   23.7781   18.6756   52.2325 C   0  0  0  0  0  0  0  0  0  0  0  0
   24.4331   18.4031   53.5293 C   0  0  0  0  0  0  0  0  0  0  0  0
   23.8031   19.6965   50.1008 N   0  0  0  0  0  0  0  0  0  0  0  0
   22.3887   19.7829   50.2742 C   0  0  0  0  0  0  0  0  0  0  0  0
   22.2445   19.2050   48.8806 C   0  0  0  0  0  0  0  0  0  0  0  0
   23.6489   18.6655   49.1448 C   0  0  0  0  0  0  0  0  0  0  0  0
   27.7344   11.0141   57.1227 C   0  0  0  0  0  0  0  0  0  0  0  0
   27.7232    9.8638   56.1459 C   0  0  0  0  0  0  0  0  0  0  0  0
   28.8831    9.4416   55.5855 C   0  0  0  0  0  0  0  0  0  0  0  0
   28.8504    8.3872   54.6386 C   0  0  0  0  0  0  0  0  0  0  0  0
   27.6307    7.8032   54.2986 C   0  0  0  0  0  0  0  0  0  0  0  0
   26.4904    8.3247   54.9420 C   0  0  0  0  0  0  0  0  0  0  0  0
   26.5093    9.3084   55.8325 C   0  0  0  0  0  0  0  0  0  0  0  0
 18 19  2  0  0  0
 19 17  1  0  0  0
 17  1  1  0  0  0
  1  2  1  0  0  0
  2  3  1  0  0  0
  3  4  2  0  0  0
  3  5  1  0  0  0
  5  6  1  0  0  0
  6 20  1  0  0  0
 20 21  1  0  0  0
 21 22  2  0  0  0
 22 23  1  0  0  0
 23 24  2  0  0  0
 24 25  1  0  0  0
 24 26  1  0  0  0
 26 27  2  0  0  0
  6  7  1  0  0  0
  7  8  2  0  0  0
  7  9  1  0  0  0
  9 29  1  0  0  0
 29 30  1  0  0  0
 30 31  2  0  0  0
 31 32  1  0  0  0
 32 33  2  0  0  0
 33 34  1  0  0  0
 34 35  1  0  0  0
 35 40  1  0  0  0
 40 41  2  0  0  0
 40 42  1  0  0  0
 42 44  1  0  0  0
 44 45  2  0  0  0
 45 46  1  0  0  0
 46 47  2  0  0  0
 47 50  1  0  0  0
 50 51  1  0  0  0
 51 52  1  0  0  0
 52 53  1  0  0  0
 53 56  1  0  0  0
 56 57  1  0  0  0
 57 58  1  0  0  0
 58 59  1  0  0  0
 53 54  1  0  0  0
 54 55  1  0  0  0
 47 48  1  0  0  0
 48 49  2  0  0  0
 35 36  2  0  0  0
 36 37  1  0  0  0
 37 38  1  0  0  0
 37 39  1  0  0  0
  9 10  1  0  0  0
 10 11  1  0  0  0
 11 12  1  0  0  0
 12 13  1  0  0  0
 13 14  2  0  0  0
 13 15  1  0  0  0
 15 60  1  0  0  0
 60 61  1  0  0  0
 61 62  2  0  0  0
 62 63  1  0  0  0
 63 64  2  0  0  0
 64 65  1  0  0  0
 65 66  2  0  0  0
 12  1  1  0  0  0
 66 61  1  0  0  0
 11  5  1  0  0  0
 27 21  1  0  0  0
 39 30  1  0  0  0
 39 34  2  0  0  0
 49 44  1  0  0  0
 55 50  1  0  0  0
 59 56  1  0  0  0
 25 28  1  0  0  0
 42 43  1  0  0  0
 15 16  1  0  0  0
M  END
> <minimizedAffinity>
18.15825

> <CNNscore>
0.3984684646

> <CNNaffinity>
7.3828926086

> <CNN_VS>
2.9418499470

> <CNNaffinity_variance>
1.3257339001

$$$$
[H]Oc1c([H])c([H])c(C([H])([H])[C@@]2([H])C(=O)N(C([H])([H])c3c([H])c([H])c([H])c4c(C(=O)N([H])c5c([H])nc(N6C([H])([H])C([H])([H])C([H])(N7C([H])([H])C([H])([H])C7([H])[H])C([H])([H])C6([H])[H])c([H])c5[H])c([H])n(C([H])([H])[H])c34)C([H])([H])[C@]3([H])N(C(=O)N([H])C([H])([H])c4c([H])c([H])c([H])c([H])c4[H])N(C([H])([H])C([H])=C([H])[H])C([H])([H])C(=O)N23)c([H])c1[H]


 66 74  0  0  0  0  0  0  0  0999 V2000
   24.8334    3.9844   60.9219 N   0  0  0  0  0  0  0  0  0  0  0  0
   23.7781    3.9393   61.9180 C   0  0  0  0  0  0  0  0  0  0  0  0
   23.8100    2.4842   62.3543 C   0  0  0  0  0  0  0  0  0  0  0  0
   22.7292    1.8677   62.3391 O   0  0  0  0  0  0  0  0  0  0  0  0
   25.0225    1.9186   62.7485 N   0  0  0  0  0  0  0  0  0  0  0  0
   25.0513    0.7982   63.6450 C   0  0  0  0  0  0  0  0  0  0  0  0
   25.5106    1.4301   64.9380 C   0  0  0  0  0  0  0  0  0  0  0  0
   24.9957    1.1342   66.0026 O   0  0  0  0  0  0  0  0  0  0  0  0
   26.5566    2.3705   64.8568 N   0  0  0  0  0  0  0  0  0  0  0  0
   27.1318    2.8011   63.5592 C   0  0  0  0  0  0  0  0  0  0  0  0
   26.2854    2.4941   62.3689 C   0  0  0  0  0  0  0  0  0  0  0  0
   26.0878    3.5581   61.4113 N   0  0  0  0  0  0  0  0  0  0  0  0
   27.1999    4.2609   60.8522 C   0  0  0  0  0  0  0  0  0  0  0  0
   26.9289    5.2259   60.0609 O   0  0  0  0  0  0  0  0  0  0  0  0
   28.5605    4.0113   61.0693 N   0  0  0  0  0  0  0  0  0  0  0  0
   28.8698    3.2549   61.6802 H   0  0  0  0  0  0  0  0  0  0  0  0
   24.3393    3.1373   59.8468 C   0  0  0  0  0  0  0  0  0  0  0  0
   23.3781    3.4704   57.6428 C   0  0  0  0  0  0  0  0  0  0  0  0
   23.4674    3.7965   58.9043 C   0  0  0  0  0  0  0  0  0  0  0  0
   25.8671   -0.3748   63.2997 C   0  0  0  0  0  0  0  0  0  0  0  0
   25.4668   -1.7011   63.7761 C   0  0  0  0  0  0  0  0  0  0  0  0
   24.4508   -2.4077   63.1300 C   0  0  0  0  0  0  0  0  0  0  0  0
   24.0233   -3.6265   63.6116 C   0  0  0  0  0  0  0  0  0  0  0  0
   24.5615   -4.2104   64.7410 C   0  0  0  0  0  0  0  0  0  0  0  0
   24.0890   -5.4364   65.1695 O   0  0  0  0  0  0  0  0  0  0  0  0
   25.5556   -3.5213   65.3777 C   0  0  0  0  0  0  0  0  0  0  0  0
   25.9989   -2.2872   64.9024 C   0  0  0  0  0  0  0  0  0  0  0  0
   23.3522   -5.9395   64.6872 H   0  0  0  0  0  0  0  0  0  0  0  0
   27.1500    3.0354   66.0182 C   0  0  0  0  0  0  0  0  0  0  0  0
   28.6110    3.0011   65.9002 C   0  0  0  0  0  0  0  0  0  0  0  0
   29.3167    1.8323   66.0177 C   0  0  0  0  0  0  0  0  0  0  0  0
   30.6996    1.7988   65.9643 C   0  0  0  0  0  0  0  0  0  0  0  0
   31.4104    2.9714   65.7861 C   0  0  0  0  0  0  0  0  0  0  0  0
   30.6993    4.1719   65.6630 C   0  0  0  0  0  0  0  0  0  0  0  0
   31.1115    5.4466   65.4620 C   0  0  0  0  0  0  0  0  0  0  0  0
   29.9869    6.2180   65.3937 C   0  0  0  0  0  0  0  0  0  0  0  0
   28.8788    5.4721   65.5479 N   0  0  0  0  0  0  0  0  0  0  0  0
   27.5169    5.9453   65.5316 C   0  0  0  0  0  0  0  0  0  0  0  0
   29.3109    4.1901   65.7195 C   0  0  0  0  0  0  0  0  0  0  0  0
   32.5065    5.9973   65.3589 C   0  0  0  0  0  0  0  0  0  0  0  0
   33.4679    5.3012   65.7493 O   0  0  0  0  0  0  0  0  0  0  0  0
   32.6221    7.2864   64.8071 N   0  0  0  0  0  0  0  0  0  0  0  0
   33.9805    7.0588   64.7140 H   0  0  0  0  0  0  0  0  0  0  0  0
   32.7485    8.4805   64.2974 C   0  0  0  0  0  0  0  0  0  0  0  0
   32.4695    8.6998   62.9325 C   0  0  0  0  0  0  0  0  0  0  0  0
   32.5799    9.8937   62.3225 C   0  0  0  0  0  0  0  0  0  0  0  0
   32.9958   10.9749   63.0654 C   0  0  0  0  0  0  0  0  0  0  0  0
   33.2836   10.8451   64.3805 N   0  0  0  0  0  0  0  0  0  0  0  0
   33.1631    9.6411   64.9859 C   0  0  0  0  0  0  0  0  0  0  0  0
   33.1868   12.2611   62.4685 N   0  0  0  0  0  0  0  0  0  0  0  0
   33.4016   12.3411   61.0448 C   0  0  0  0  0  0  0  0  0  0  0  0
   32.7712   13.4934   60.3537 C   0  0  0  0  0  0  0  0  0  0  0  0
   32.2045   14.5478   61.2375 C   0  0  0  0  0  0  0  0  0  0  0  0
   32.9665   14.7002   62.5499 C   0  0  0  0  0  0  0  0  0  0  0  0
   33.1921   13.4400   63.2886 C   0  0  0  0  0  0  0  0  0  0  0  0
   32.1052   15.8454   60.6700 N   0  0  0  0  0  0  0  0  0  0  0  0
   32.3174   16.9598   61.5368 C   0  0  0  0  0  0  0  0  0  0  0  0
   31.4007   17.7590   60.6326 C   0  0  0  0  0  0  0  0  0  0  0  0
   30.8688   16.3819   60.2408 C   0  0  0  0  0  0  0  0  0  0  0  0
   29.5931    4.8147   60.4207 C   0  0  0  0  0  0  0  0  0  0  0  0
   29.4583    6.2644   60.8176 C   0  0  0  0  0  0  0  0  0  0  0  0
   29.4401    6.6073   62.1290 C   0  0  0  0  0  0  0  0  0  0  0  0
   29.2714    7.9687   62.4859 C   0  0  0  0  0  0  0  0  0  0  0  0
   29.1265    8.9307   61.4869 C   0  0  0  0  0  0  0  0  0  0  0  0
   29.1584    8.4586   60.1594 C   0  0  0  0  0  0  0  0  0  0  0  0
   29.3195    7.1877   59.8134 C   0  0  0  0  0  0  0  0  0  0  0  0
 18 19  2  0  0  0
 19 17  1  0  0  0
 17  1  1  0  0  0
  1  2  1  0  0  0
  2  3  1  0  0  0
  3  4  2  0  0  0
  3  5  1  0  0  0
  5  6  1  0  0  0
  6 20  1  0  0  0
 20 21  1  0  0  0
 21 22  2  0  0  0
 22 23  1  0  0  0
 23 24  2  0  0  0
 24 25  1  0  0  0
 24 26  1  0  0  0
 26 27  2  0  0  0
  6  7  1  0  0  0
  7  8  2  0  0  0
  7  9  1  0  0  0
  9 29  1  0  0  0
 29 30  1  0  0  0
 30 31  2  0  0  0
 31 32  1  0  0  0
 32 33  2  0  0  0
 33 34  1  0  0  0
 34 35  1  0  0  0
 35 40  1  0  0  0
 40 41  2  0  0  0
 40 42  1  0  0  0
 42 44  1  0  0  0
 44 45  2  0  0  0
 45 46  1  0  0  0
 46 47  2  0  0  0
 47 50  1  0  0  0
 50 51  1  0  0  0
 51 52  1  0  0  0
 52 53  1  0  0  0
 53 56  1  0  0  0
 56 57  1  0  0  0
 57 58  1  0  0  0
 58 59  1  0  0  0
 53 54  1  0  0  0
 54 55  1  0  0  0
 47 48  1  0  0  0
 48 49  2  0  0  0
 35 36  2  0  0  0
 36 37  1  0  0  0
 37 38  1  0  0  0
 37 39  1  0  0  0
  9 10  1  0  0  0
 10 11  1  0  0  0
 11 12  1  0  0  0
 12 13  1  0  0  0
 13 14  2  0  0  0
 13 15  1  0  0  0
 15 60  1  0  0  0
 60 61  1  0  0  0
 61 62  2  0  0  0
 62 63  1  0  0  0
 63 64  2  0  0  0
 64 65  1  0  0  0
 65 66  2  0  0  0
 12  1  1  0  0  0
 66 61  1  0  0  0
 11  5  1  0  0  0
 27 21  1  0  0  0
 39 30  1  0  0  0
 39 34  2  0  0  0
 49 44  1  0  0  0
 55 50  1  0  0  0
 59 56  1  0  0  0
 25 28  1  0  0  0
 42 43  1  0  0  0
 15 16  1  0  0  0
M  END
> <minimizedAffinity>
18.08130

> <CNNscore>
0.3673727214

> <CNNaffinity>
6.7787199020

> <CNN_VS>
2.4903168678

> <CNNaffinity_variance>
0.4613648951

$$$$
[H]Oc1c([H])c([H])c(C([H])([H])[C@@]2([H])C(=O)N(C([H])([H])c3c([H])c([H])c([H])c4c(C(=O)N([H])c5c([H])nc(N6C([H])([H])C([H])([H])C([H])(N7C([H])([H])C([H])([H])C7([H])[H])C([H])([H])C6([H])[H])c([H])c5[H])c([H])n(C([H])([H])[H])c34)C([H])([H])[C@]3([H])N(C(=O)N([H])C([H])([H])c4c([H])c([H])c([H])c([H])c4[H])N(C([H])([H])C([H])=C([H])[H])C([H])([H])C(=O)N23)c([H])c1[H]


 66 74  0  0  0  0  0  0  0  0999 V2000
   33.5116   12.9651   59.8955 N   0  0  0  0  0  0  0  0  0  0  0  0
   33.3691   11.5909   59.4492 C   0  0  0  0  0  0  0  0  0  0  0  0
   33.3884   10.8234   60.7604 C   0  0  0  0  0  0  0  0  0  0  0  0
   34.1879    9.8737   60.8456 O   0  0  0  0  0  0  0  0  0  0  0  0
   32.5241   11.2068   61.7858 N   0  0  0  0  0  0  0  0  0  0  0  0
   32.1041   10.2624   62.7815 C   0  0  0  0  0  0  0  0  0  0  0  0
   30.6768    9.9782   62.3763 C   0  0  0  0  0  0  0  0  0  0  0  0
   30.2315    8.8434   62.3888 O   0  0  0  0  0  0  0  0  0  0  0  0
   29.8886   11.0793   61.9871 N   0  0  0  0  0  0  0  0  0  0  0  0
   30.4439   12.4510   61.8862 C   0  0  0  0  0  0  0  0  0  0  0  0
   31.9337   12.5183   61.8277 C   0  0  0  0  0  0  0  0  0  0  0  0
   32.5136   13.3657   60.8111 N   0  0  0  0  0  0  0  0  0  0  0  0
   32.1167   14.7324   60.6780 C   0  0  0  0  0  0  0  0  0  0  0  0
   32.6366   15.3889   59.7137 O   0  0  0  0  0  0  0  0  0  0  0  0
   31.2214   15.4413   61.4883 N   0  0  0  0  0  0  0  0  0  0  0  0
   30.7648   14.9993   62.2864 H   0  0  0  0  0  0  0  0  0  0  0  0
   34.8464   13.0112   60.4731 C   0  0  0  0  0  0  0  0  0  0  0  0
   35.3115   11.4137   62.2407 C   0  0  0  0  0  0  0  0  0  0  0  0
   35.3345   11.7507   60.9792 C   0  0  0  0  0  0  0  0  0  0  0  0
   32.1973   10.6297   64.2017 C   0  0  0  0  0  0  0  0  0  0  0  0
   33.0785   11.7266   64.6100 C   0  0  0  0  0  0  0  0  0  0  0  0
   34.1590   11.4865   65.4608 C   0  0  0  0  0  0  0  0  0  0  0  0
   34.9528   12.5234   65.9022 C   0  0  0  0  0  0  0  0  0  0  0  0
   34.7311   13.8368   65.5390 C   0  0  0  0  0  0  0  0  0  0  0  0
   35.5666   14.8294   66.0151 O   0  0  0  0  0  0  0  0  0  0  0  0
   33.6732   14.0767   64.7071 C   0  0  0  0  0  0  0  0  0  0  0  0
   32.8611   13.0380   64.2520 C   0  0  0  0  0  0  0  0  0  0  0  0
   36.3501   14.6388   66.6302 H   0  0  0  0  0  0  0  0  0  0  0  0
   28.4763   10.9824   61.6143 C   0  0  0  0  0  0  0  0  0  0  0  0
   28.3172   11.3897   60.2148 C   0  0  0  0  0  0  0  0  0  0  0  0
   28.1602   12.7039   59.8596 C   0  0  0  0  0  0  0  0  0  0  0  0
   27.9526   13.0920   58.5471 C   0  0  0  0  0  0  0  0  0  0  0  0
   27.8998   12.1383   57.5472 C   0  0  0  0  0  0  0  0  0  0  0  0
   28.0608   10.7920   57.8985 C   0  0  0  0  0  0  0  0  0  0  0  0
   28.0789    9.6620   57.1516 C   0  0  0  0  0  0  0  0  0  0  0  0
   28.2985    8.6246   58.0120 C   0  0  0  0  0  0  0  0  0  0  0  0
   28.4167    9.0630   59.2777 N   0  0  0  0  0  0  0  0  0  0  0  0
   28.6539    8.2538   60.4472 C   0  0  0  0  0  0  0  0  0  0  0  0
   28.2676   10.4173   59.2207 C   0  0  0  0  0  0  0  0  0  0  0  0
   27.8717    9.4876   55.6729 C   0  0  0  0  0  0  0  0  0  0  0  0
   28.7782    9.8316   54.8847 O   0  0  0  0  0  0  0  0  0  0  0  0
   26.6414    8.9266   55.2838 N   0  0  0  0  0  0  0  0  0  0  0  0
   27.1819    8.7665   54.0237 H   0  0  0  0  0  0  0  0  0  0  0  0
   25.5063    8.4075   54.9046 C   0  0  0  0  0  0  0  0  0  0  0  0
   25.4876    7.3665   53.9535 C   0  0  0  0  0  0  0  0  0  0  0  0
   24.3654    6.7790   53.5004 C   0  0  0  0  0  0  0  0  0  0  0  0
   23.1536    7.2169   53.9837 C   0  0  0  0  0  0  0  0  0  0  0  0
   23.0884    8.2120   54.8973 N   0  0  0  0  0  0  0  0  0  0  0  0
   24.2234    8.7919   55.3513 C   0  0  0  0  0  0  0  0  0  0  0  0
   21.9194    6.6739   53.5053 N   0  0  0  0  0  0  0  0  0  0  0  0
   21.8607    5.2727   53.1695 C   0  0  0  0  0  0  0  0  0  0  0  0
   20.5985    4.5718   53.5131 C   0  0  0  0  0  0  0  0  0  0  0  0
   19.4681    5.4427   53.9349 C   0  0  0  0  0  0  0  0  0  0  0  0
   19.4849    6.8113   53.2618 C   0  0  0  0  0  0  0  0  0  0  0  0
   20.7761    7.5268   53.3386 C   0  0  0  0  0  0  0  0  0  0  0  0
   18.1672    4.9082   53.7405 N   0  0  0  0  0  0  0  0  0  0  0  0
   17.5589    4.2406   54.8461 C   0  0  0  0  0  0  0  0  0  0  0  0
   16.7899    3.4073   53.8406 C   0  0  0  0  0  0  0  0  0  0  0  0
   17.9344    3.7911   52.9048 C   0  0  0  0  0  0  0  0  0  0  0  0
   30.9140   16.8458   61.2325 C   0  0  0  0  0  0  0  0  0  0  0  0
   32.0882   17.5302   60.5765 C   0  0  0  0  0  0  0  0  0  0  0  0
   33.1922   17.8254   61.3055 C   0  0  0  0  0  0  0  0  0  0  0  0
   34.2699   18.5054   60.6846 C   0  0  0  0  0  0  0  0  0  0  0  0
   34.1782   18.8597   59.3391 C   0  0  0  0  0  0  0  0  0  0  0  0
   32.9831   18.5043   58.6822 C   0  0  0  0  0  0  0  0  0  0  0  0
   31.9696   17.8646   59.2519 C   0  0  0  0  0  0  0  0  0  0  0  0
 18 19  2  0  0  0
 19 17  1  0  0  0
 17  1  1  0  0  0
  1  2  1  0  0  0
  2  3  1  0  0  0
  3  4  2  0  0  0
  3  5  1  0  0  0
  5  6  1  0  0  0
  6 20  1  0  0  0
 20 21  1  0  0  0
 21 22  2  0  0  0
 22 23  1  0  0  0
 23 24  2  0  0  0
 24 25  1  0  0  0
 24 26  1  0  0  0
 26 27  2  0  0  0
  6  7  1  0  0  0
  7  8  2  0  0  0
  7  9  1  0  0  0
  9 29  1  0  0  0
 29 30  1  0  0  0
 30 31  2  0  0  0
 31 32  1  0  0  0
 32 33  2  0  0  0
 33 34  1  0  0  0
 34 35  1  0  0  0
 35 40  1  0  0  0
 40 41  2  0  0  0
 40 42  1  0  0  0
 42 44  1  0  0  0
 44 45  2  0  0  0
 45 46  1  0  0  0
 46 47  2  0  0  0
 47 50  1  0  0  0
 50 51  1  0  0  0
 51 52  1  0  0  0
 52 53  1  0  0  0
 53 56  1  0  0  0
 56 57  1  0  0  0
 57 58  1  0  0  0
 58 59  1  0  0  0
 53 54  1  0  0  0
 54 55  1  0  0  0
 47 48  1  0  0  0
 48 49  2  0  0  0
 35 36  2  0  0  0
 36 37  1  0  0  0
 37 38  1  0  0  0
 37 39  1  0  0  0
  9 10  1  0  0  0
 10 11  1  0  0  0
 11 12  1  0  0  0
 12 13  1  0  0  0
 13 14  2  0  0  0
 13 15  1  0  0  0
 15 60  1  0  0  0
 60 61  1  0  0  0
 61 62  2  0  0  0
 62 63  1  0  0  0
 63 64  2  0  0  0
 64 65  1  0  0  0
 65 66  2  0  0  0
 12  1  1  0  0  0
 66 61  1  0  0  0
 11  5  1  0  0  0
 27 21  1  0  0  0
 39 30  1  0  0  0
 39 34  2  0  0  0
 49 44  1  0  0  0
 55 50  1  0  0  0
 59 56  1  0  0  0
 25 28  1  0  0  0
 42 43  1  0  0  0
 15 16  1  0  0  0
M  END
> <minimizedAffinity>
27.26305

> <CNNscore>
0.3610388041

> <CNNaffinity>
6.9731507301

> <CNN_VS>
2.5175778866

> <CNNaffinity_variance>
0.5678399205

$$$$
[H]Oc1c([H])c([H])c(C([H])([H])[C@@]2([H])C(=O)N(C([H])([H])c3c([H])c([H])c([H])c4c(C(=O)N([H])c5c([H])nc(N6C([H])([H])C([H])([H])C([H])(N7C([H])([H])C([H])([H])C7([H])[H])C([H])([H])C6([H])[H])c([H])c5[H])c([H])n(C([H])([H])[H])c34)C([H])([H])[C@]3([H])N(C(=O)N([H])C([H])([H])c4c([H])c([H])c([H])c([H])c4[H])N(C([H])([H])C([H])=C([H])[H])C([H])([H])C(=O)N23)c([H])c1[H]


 66 74  0  0  0  0  0  0  0  0999 V2000
   29.5597   18.5730   58.8259 N   0  0  0  0  0  0  0  0  0  0  0  0
   30.6799   18.6153   57.9032 C   0  0  0  0  0  0  0  0  0  0  0  0
   31.8213   19.0572   58.8035 C   0  0  0  0  0  0  0  0  0  0  0  0
   32.4980   20.0284   58.4198 O   0  0  0  0  0  0  0  0  0  0  0  0
   32.0573   18.3660   59.9918 N   0  0  0  0  0  0  0  0  0  0  0  0
   33.3631   18.3566   60.5871 C   0  0  0  0  0  0  0  0  0  0  0  0
   33.8507   16.9612   60.2755 C   0  0  0  0  0  0  0  0  0  0  0  0
   34.9935   16.7612   59.9009 O   0  0  0  0  0  0  0  0  0  0  0  0
   32.9293   15.9079   60.4384 N   0  0  0  0  0  0  0  0  0  0  0  0
   31.5138   16.1481   60.8107 C   0  0  0  0  0  0  0  0  0  0  0  0
   31.0443   17.5501   60.6071 C   0  0  0  0  0  0  0  0  0  0  0  0
   29.7768   17.7275   59.9362 N   0  0  0  0  0  0  0  0  0  0  0  0
   28.6030   17.0497   60.3898 C   0  0  0  0  0  0  0  0  0  0  0  0
   27.5414   17.2182   59.7002 O   0  0  0  0  0  0  0  0  0  0  0  0
   28.4790   16.2200   61.5110 N   0  0  0  0  0  0  0  0  0  0  0  0
   29.2733   16.0353   62.1241 H   0  0  0  0  0  0  0  0  0  0  0  0
   29.3706   19.9626   59.2141 C   0  0  0  0  0  0  0  0  0  0  0  0
   27.2696   20.2474   58.0321 C   0  0  0  0  0  0  0  0  0  0  0  0
   28.4385   20.7015   58.3967 C   0  0  0  0  0  0  0  0  0  0  0  0
   33.5008   18.6679   62.0171 C   0  0  0  0  0  0  0  0  0  0  0  0
   32.3281   19.1026   62.7800 C   0  0  0  0  0  0  0  0  0  0  0  0
   31.7836   20.3721   62.5779 C   0  0  0  0  0  0  0  0  0  0  0  0
   30.7217   20.8130   63.3382 C   0  0  0  0  0  0  0  0  0  0  0  0
   30.1446   20.0425   64.3279 C   0  0  0  0  0  0  0  0  0  0  0  0
   29.0799   20.5437   65.0526 O   0  0  0  0  0  0  0  0  0  0  0  0
   30.6756   18.7993   64.5303 C   0  0  0  0  0  0  0  0  0  0  0  0
   31.7498   18.3391   63.7689 C   0  0  0  0  0  0  0  0  0  0  0  0
   28.6929   21.4672   64.8916 H   0  0  0  0  0  0  0  0  0  0  0  0
   33.2555   14.4965   60.2270 C   0  0  0  0  0  0  0  0  0  0  0  0
   33.2027   13.7910   61.5112 C   0  0  0  0  0  0  0  0  0  0  0  0
   33.2415   14.4626   62.7051 C   0  0  0  0  0  0  0  0  0  0  0  0
   33.2495   13.8018   63.9215 C   0  0  0  0  0  0  0  0  0  0  0  0
   33.2164   12.4198   63.9546 C   0  0  0  0  0  0  0  0  0  0  0  0
   33.1747   11.7230   62.7403 C   0  0  0  0  0  0  0  0  0  0  0  0
   33.1148   10.3983   62.4634 C   0  0  0  0  0  0  0  0  0  0  0  0
   33.0678   10.2818   61.1037 C   0  0  0  0  0  0  0  0  0  0  0  0
   33.0989   11.4897   60.5136 N   0  0  0  0  0  0  0  0  0  0  0  0
   33.0644   11.7534   59.0966 C   0  0  0  0  0  0  0  0  0  0  0  0
   33.1681   12.4000   61.5267 C   0  0  0  0  0  0  0  0  0  0  0  0
   33.1292    9.2223   63.3998 C   0  0  0  0  0  0  0  0  0  0  0  0
   34.0785    9.0923   64.2018 O   0  0  0  0  0  0  0  0  0  0  0  0
   32.0367    8.3412   63.3013 N   0  0  0  0  0  0  0  0  0  0  0  0
   32.4610    7.7787   64.4883 H   0  0  0  0  0  0  0  0  0  0  0  0
   31.0311    7.5137   63.2242 C   0  0  0  0  0  0  0  0  0  0  0  0
   30.6796    6.7226   64.3376 C   0  0  0  0  0  0  0  0  0  0  0  0
   29.6648    5.8396   64.3449 C   0  0  0  0  0  0  0  0  0  0  0  0
   28.9196    5.6856   63.1982 C   0  0  0  0  0  0  0  0  0  0  0  0
   29.1953    6.4075   62.0883 N   0  0  0  0  0  0  0  0  0  0  0  0
   30.2142    7.2978   62.0934 C   0  0  0  0  0  0  0  0  0  0  0  0
   27.8614    4.7260   63.1194 N   0  0  0  0  0  0  0  0  0  0  0  0
   27.4121    4.2926   61.8195 C   0  0  0  0  0  0  0  0  0  0  0  0
   27.0437    2.8598   61.7009 C   0  0  0  0  0  0  0  0  0  0  0  0
   26.9506    2.1068   62.9809 C   0  0  0  0  0  0  0  0  0  0  0  0
   26.4959    2.9724   64.1515 C   0  0  0  0  0  0  0  0  0  0  0  0
   27.2465    4.2345   64.3206 C   0  0  0  0  0  0  0  0  0  0  0  0
   26.1092    0.9632   62.9680 N   0  0  0  0  0  0  0  0  0  0  0  0
   24.7805    1.1191   63.4663 C   0  0  0  0  0  0  0  0  0  0  0  0
   24.8172   -0.3474   63.8471 C   0  0  0  0  0  0  0  0  0  0  0  0
   26.3301   -0.1379   63.8279 C   0  0  0  0  0  0  0  0  0  0  0  0
   27.2052   15.5951   61.8564 C   0  0  0  0  0  0  0  0  0  0  0  0
   27.3299   14.0916   61.8198 C   0  0  0  0  0  0  0  0  0  0  0  0
   26.4708   13.3245   62.5347 C   0  0  0  0  0  0  0  0  0  0  0  0
   26.6270   11.9156   62.5226 C   0  0  0  0  0  0  0  0  0  0  0  0
   27.6582   11.3424   61.7794 C   0  0  0  0  0  0  0  0  0  0  0  0
   28.4913   12.2371   61.0781 C   0  0  0  0  0  0  0  0  0  0  0  0
   28.3523   13.5568   61.0789 C   0  0  0  0  0  0  0  0  0  0  0  0
 18 19  2  0  0  0
 19 17  1  0  0  0
 17  1  1  0  0  0
  1  2  1  0  0  0
  2  3  1  0  0  0
  3  4  2  0  0  0
  3  5  1  0  0  0
  5  6  1  0  0  0
  6 20  1  0  0  0
 20 21  1  0  0  0
 21 22  2  0  0  0
 22 23  1  0  0  0
 23 24  2  0  0  0
 24 25  1  0  0  0
 24 26  1  0  0  0
 26 27  2  0  0  0
  6  7  1  0  0  0
  7  8  2  0  0  0
  7  9  1  0  0  0
  9 29  1  0  0  0
 29 30  1  0  0  0
 30 31  2  0  0  0
 31 32  1  0  0  0
 32 33  2  0  0  0
 33 34  1  0  0  0
 34 35  1  0  0  0
 35 40  1  0  0  0
 40 41  2  0  0  0
 40 42  1  0  0  0
 42 44  1  0  0  0
 44 45  2  0  0  0
 45 46  1  0  0  0
 46 47  2  0  0  0
 47 50  1  0  0  0
 50 51  1  0  0  0
 51 52  1  0  0  0
 52 53  1  0  0  0
 53 56  1  0  0  0
 56 57  1  0  0  0
 57 58  1  0  0  0
 58 59  1  0  0  0
 53 54  1  0  0  0
 54 55  1  0  0  0
 47 48  1  0  0  0
 48 49  2  0  0  0
 35 36  2  0  0  0
 36 37  1  0  0  0
 37 38  1  0  0  0
 37 39  1  0  0  0
  9 10  1  0  0  0
 10 11  1  0  0  0
 11 12  1  0  0  0
 12 13  1  0  0  0
 13 14  2  0  0  0
 13 15  1  0  0  0
 15 60  1  0  0  0
 60 61  1  0  0  0
 61 62  2  0  0  0
 62 63  1  0  0  0
 63 64  2  0  0  0
 64 65  1  0  0  0
 65 66  2  0  0  0
 12  1  1  0  0  0
 66 61  1  0  0  0
 11  5  1  0  0  0
 27 21  1  0  0  0
 39 30  1  0  0  0
 39 34  2  0  0  0
 49 44  1  0  0  0
 55 50  1  0  0  0
 59 56  1  0  0  0
 25 28  1  0  0  0
 42 43  1  0  0  0
 15 16  1  0  0  0
M  END
> <minimizedAffinity>
7.22900

> <CNNscore>
0.3591235280

> <CNNaffinity>
6.6716489792

> <CNN_VS>
2.3959460258

> <CNNaffinity_variance>
0.3252771497

$$$$
[H]Oc1c([H])c([H])c(C([H])([H])[C@@]2([H])C(=O)N(C([H])([H])c3c([H])c([H])c([H])c4c(C(=O)N([H])c5c([H])nc(N6C([H])([H])C([H])([H])C([H])(N7C([H])([H])C([H])([H])C7([H])[H])C([H])([H])C6([H])[H])c([H])c5[H])c([H])n(C([H])([H])[H])c34)C([H])([H])[C@]3([H])N(C(=O)N([H])C([H])([H])c4c([H])c([H])c([H])c([H])c4[H])N(C([H])([H])C([H])=C([H])[H])C([H])([H])C(=O)N23)c([H])c1[H]


 66 74  0  0  0  0  0  0  0  0999 V2000
   27.6338   10.3995   62.3221 N   0  0  0  0  0  0  0  0  0  0  0  0
   26.8306   11.2785   61.4915 C   0  0  0  0  0  0  0  0  0  0  0  0
   27.8784   11.9267   60.6023 C   0  0  0  0  0  0  0  0  0  0  0  0
   27.8708   13.1692   60.5363 O   0  0  0  0  0  0  0  0  0  0  0  0
   28.7792   11.1167   59.9109 N   0  0  0  0  0  0  0  0  0  0  0  0
   29.3974   11.5761   58.6999 C   0  0  0  0  0  0  0  0  0  0  0  0
   28.6628   10.7865   57.6420 C   0  0  0  0  0  0  0  0  0  0  0  0
   28.2964   11.3109   56.6042 O   0  0  0  0  0  0  0  0  0  0  0  0
   28.4238    9.4239   57.9083 N   0  0  0  0  0  0  0  0  0  0  0  0
   28.7888    8.7967   59.2020 C   0  0  0  0  0  0  0  0  0  0  0  0
   29.0409    9.7603   60.3135 C   0  0  0  0  0  0  0  0  0  0  0  0
   28.4091    9.4795   61.5823 N   0  0  0  0  0  0  0  0  0  0  0  0
   28.5569    8.2047   62.2118 C   0  0  0  0  0  0  0  0  0  0  0  0
   27.9140    8.0251   63.3005 O   0  0  0  0  0  0  0  0  0  0  0  0
   29.3318    7.1239   61.7734 N   0  0  0  0  0  0  0  0  0  0  0  0
   29.8848    7.1806   60.9179 H   0  0  0  0  0  0  0  0  0  0  0  0
   28.4524   11.3095   63.1091 C   0  0  0  0  0  0  0  0  0  0  0  0
   26.5164   12.7460   63.3928 C   0  0  0  0  0  0  0  0  0  0  0  0
   27.8032   12.5429   63.4836 C   0  0  0  0  0  0  0  0  0  0  0  0
   30.8543   11.4537   58.5482 C   0  0  0  0  0  0  0  0  0  0  0  0
   31.7006   11.3508   59.7395 C   0  0  0  0  0  0  0  0  0  0  0  0
   32.4313   12.4537   60.1854 C   0  0  0  0  0  0  0  0  0  0  0  0
   33.2806   12.3468   61.2658 C   0  0  0  0  0  0  0  0  0  0  0  0
   33.4587   11.1656   61.9581 C   0  0  0  0  0  0  0  0  0  0  0  0
   34.3240   11.1267   63.0350 O   0  0  0  0  0  0  0  0  0  0  0  0
   32.7463   10.0827   61.5241 C   0  0  0  0  0  0  0  0  0  0  0  0
   31.8830   10.1753   60.4325 C   0  0  0  0  0  0  0  0  0  0  0  0
   34.8456   11.9377   63.3492 H   0  0  0  0  0  0  0  0  0  0  0  0
   27.7709    8.5098   56.9695 C   0  0  0  0  0  0  0  0  0  0  0  0
   26.4262    9.0088   56.6657 C   0  0  0  0  0  0  0  0  0  0  0  0
   25.7860    9.9014   57.4851 C   0  0  0  0  0  0  0  0  0  0  0  0
   24.4948   10.3341   57.2363 C   0  0  0  0  0  0  0  0  0  0  0  0
   23.8121    9.8633   56.1297 C   0  0  0  0  0  0  0  0  0  0  0  0
   24.4574    8.9520   55.2841 C   0  0  0  0  0  0  0  0  0  0  0  0
   24.0590    8.3479   54.1389 C   0  0  0  0  0  0  0  0  0  0  0  0
   25.1027    7.5745   53.7179 C   0  0  0  0  0  0  0  0  0  0  0  0
   26.1454    7.6687   54.5617 N   0  0  0  0  0  0  0  0  0  0  0  0
   27.4141    6.9952   54.4363 C   0  0  0  0  0  0  0  0  0  0  0  0
   25.7537    8.5259   55.5473 C   0  0  0  0  0  0  0  0  0  0  0  0
   22.7393    8.4267   53.4232 C   0  0  0  0  0  0  0  0  0  0  0  0
   21.9976    7.4214   53.3982 O   0  0  0  0  0  0  0  0  0  0  0  0
   22.4321    9.6645   52.8291 N   0  0  0  0  0  0  0  0  0  0  0  0
   21.1419    9.1999   52.6711 H   0  0  0  0  0  0  0  0  0  0  0  0
   22.1304   10.8050   52.2723 C   0  0  0  0  0  0  0  0  0  0  0  0
   22.3918   12.0137   52.9502 C   0  0  0  0  0  0  0  0  0  0  0  0
   22.1073   13.2322   52.4561 C   0  0  0  0  0  0  0  0  0  0  0  0
   21.5190   13.3168   51.2149 C   0  0  0  0  0  0  0  0  0  0  0  0
   21.2359   12.2025   50.5027 N   0  0  0  0  0  0  0  0  0  0  0  0
   21.5320   10.9819   51.0060 C   0  0  0  0  0  0  0  0  0  0  0  0
   21.1405   14.5770   50.6531 N   0  0  0  0  0  0  0  0  0  0  0  0
   21.3683   15.7763   51.4207 C   0  0  0  0  0  0  0  0  0  0  0  0
   21.7988   16.9708   50.6523 C   0  0  0  0  0  0  0  0  0  0  0  0
   21.7091   16.8553   49.1715 C   0  0  0  0  0  0  0  0  0  0  0  0
   20.5667   15.9560   48.7105 C   0  0  0  0  0  0  0  0  0  0  0  0
   20.5183   14.6291   49.3598 C   0  0  0  0  0  0  0  0  0  0  0  0
   21.5789   18.0774   48.4607 N   0  0  0  0  0  0  0  0  0  0  0  0
   22.7247   18.9266   48.3978 C   0  0  0  0  0  0  0  0  0  0  0  0
   21.7725   20.0997   48.2805 C   0  0  0  0  0  0  0  0  0  0  0  0
   20.7839   19.1429   48.9438 C   0  0  0  0  0  0  0  0  0  0  0  0
   29.3906    5.8755   62.5288 C   0  0  0  0  0  0  0  0  0  0  0  0
   28.2357    4.9792   62.1543 C   0  0  0  0  0  0  0  0  0  0  0  0
   27.6402    4.2130   63.1008 C   0  0  0  0  0  0  0  0  0  0  0  0
   26.5838    3.3457   62.7250 C   0  0  0  0  0  0  0  0  0  0  0  0
   26.1754    3.2933   61.3928 C   0  0  0  0  0  0  0  0  0  0  0  0
   26.8679    4.1317   60.4964 C   0  0  0  0  0  0  0  0  0  0  0  0
   27.8553    4.9502   60.8372 C   0  0  0  0  0  0  0  0  0  0  0  0
 18 19  2  0  0  0
 19 17  1  0  0  0
 17  1  1  0  0  0
  1  2  1  0  0  0
  2  3  1  0  0  0
  3  4  2  0  0  0
  3  5  1  0  0  0
  5  6  1  0  0  0
  6 20  1  0  0  0
 20 21  1  0  0  0
 21 22  2  0  0  0
 22 23  1  0  0  0
 23 24  2  0  0  0
 24 25  1  0  0  0
 24 26  1  0  0  0
 26 27  2  0  0  0
  6  7  1  0  0  0
  7  8  2  0  0  0
  7  9  1  0  0  0
  9 29  1  0  0  0
 29 30  1  0  0  0
 30 31  2  0  0  0
 31 32  1  0  0  0
 32 33  2  0  0  0
 33 34  1  0  0  0
 34 35  1  0  0  0
 35 40  1  0  0  0
 40 41  2  0  0  0
 40 42  1  0  0  0
 42 44  1  0  0  0
 44 45  2  0  0  0
 45 46  1  0  0  0
 46 47  2  0  0  0
 47 50  1  0  0  0
 50 51  1  0  0  0
 51 52  1  0  0  0
 52 53  1  0  0  0
 53 56  1  0  0  0
 56 57  1  0  0  0
 57 58  1  0  0  0
 58 59  1  0  0  0
 53 54  1  0  0  0
 54 55  1  0  0  0
 47 48  1  0  0  0
 48 49  2  0  0  0
 35 36  2  0  0  0
 36 37  1  0  0  0
 37 38  1  0  0  0
 37 39  1  0  0  0
  9 10  1  0  0  0
 10 11  1  0  0  0
 11 12  1  0  0  0
 12 13  1  0  0  0
 13 14  2  0  0  0
 13 15  1  0  0  0
 15 60  1  0  0  0
 60 61  1  0  0  0
 61 62  2  0  0  0
 62 63  1  0  0  0
 63 64  2  0  0  0
 64 65  1  0  0  0
 65 66  2  0  0  0
 12  1  1  0  0  0
 66 61  1  0  0  0
 11  5  1  0  0  0
 27 21  1  0  0  0
 39 30  1  0  0  0
 39 34  2  0  0  0
 49 44  1  0  0  0
 55 50  1  0  0  0
 59 56  1  0  0  0
 25 28  1  0  0  0
 42 43  1  0  0  0
 15 16  1  0  0  0
M  END
> <minimizedAffinity>
48.39883

> <CNNscore>
0.3536278605

> <CNNaffinity>
6.8785881996

> <CNN_VS>
2.4324605465

> <CNNaffinity_variance>
1.0115466118

$$$$
[H]Oc1c([H])c([H])c(C([H])([H])[C@@]2([H])C(=O)N(C([H])([H])c3c([H])c([H])c([H])c4c(C(=O)N([H])c5c([H])nc(N6C([H])([H])C([H])([H])C([H])(N7C([H])([H])C([H])([H])C7([H])[H])C([H])([H])C6([H])[H])c([H])c5[H])c([H])n(C([H])([H])[H])c34)C([H])([H])[C@]3([H])N(C(=O)N([H])C([H])([H])c4c([H])c([H])c([H])c([H])c4[H])N(C([H])([H])C([H])=C([H])[H])C([H])([H])C(=O)N23)c([H])c1[H]


 66 74  0  0  0  0  0  0  0  0999 V2000
   30.6357   18.4428   58.9045 N   0  0  0  0  0  0  0  0  0  0  0  0
   31.1742   17.6846   57.7895 C   0  0  0  0  0  0  0  0  0  0  0  0
   32.5642   17.3250   58.2868 C   0  0  0  0  0  0  0  0  0  0  0  0
   33.5182   17.5900   57.5331 O   0  0  0  0  0  0  0  0  0  0  0  0
   32.7049   16.7226   59.5369 N   0  0  0  0  0  0  0  0  0  0  0  0
   33.8417   15.8968   59.8286 C   0  0  0  0  0  0  0  0  0  0  0  0
   33.2500   14.5073   59.7928 C   0  0  0  0  0  0  0  0  0  0  0  0
   33.8370   13.5853   59.2527 O   0  0  0  0  0  0  0  0  0  0  0  0
   31.9966   14.3273   60.4104 N   0  0  0  0  0  0  0  0  0  0  0  0
   31.2351   15.4580   60.9949 C   0  0  0  0  0  0  0  0  0  0  0  0
   31.6759   16.8091   60.5390 C   0  0  0  0  0  0  0  0  0  0  0  0
   30.6439   17.7317   60.1247 N   0  0  0  0  0  0  0  0  0  0  0  0
   29.5290   18.0177   60.9723 C   0  0  0  0  0  0  0  0  0  0  0  0
   28.6350   18.7977   60.4996 O   0  0  0  0  0  0  0  0  0  0  0  0
   29.3025   17.5425   62.2698 N   0  0  0  0  0  0  0  0  0  0  0  0
   29.9676   16.9208   62.7302 H   0  0  0  0  0  0  0  0  0  0  0  0
   31.4657   19.6371   58.9517 C   0  0  0  0  0  0  0  0  0  0  0  0
   29.7794   20.8129   57.6608 C   0  0  0  0  0  0  0  0  0  0  0  0
   30.9830   20.7454   58.1631 C   0  0  0  0  0  0  0  0  0  0  0  0
   34.5964   16.1286   61.0685 C   0  0  0  0  0  0  0  0  0  0  0  0
   34.3533   17.3451   61.8477 C   0  0  0  0  0  0  0  0  0  0  0  0
   33.8536   17.2636   63.1488 C   0  0  0  0  0  0  0  0  0  0  0  0
   33.5600   18.4048   63.8641 C   0  0  0  0  0  0  0  0  0  0  0  0
   33.7365   19.6728   63.3473 C   0  0  0  0  0  0  0  0  0  0  0  0
   33.4248   20.7763   64.1188 O   0  0  0  0  0  0  0  0  0  0  0  0
   34.2242   19.7573   62.0731 C   0  0  0  0  0  0  0  0  0  0  0  0
   34.5261   18.6118   61.3369 C   0  0  0  0  0  0  0  0  0  0  0  0
   33.0656   20.7009   65.0642 H   0  0  0  0  0  0  0  0  0  0  0  0
   31.3106   13.0376   60.5071 C   0  0  0  0  0  0  0  0  0  0  0  0
   31.8755   12.2725   61.6229 C   0  0  0  0  0  0  0  0  0  0  0  0
   32.8260   12.8049   62.4543 C   0  0  0  0  0  0  0  0  0  0  0  0
   33.4059   12.0709   63.4747 C   0  0  0  0  0  0  0  0  0  0  0  0
   33.0268   10.7569   63.6792 C   0  0  0  0  0  0  0  0  0  0  0  0
   32.0548   10.2029   62.8365 C   0  0  0  0  0  0  0  0  0  0  0  0
   31.4795    8.9768   62.8088 C   0  0  0  0  0  0  0  0  0  0  0  0
   30.5710    8.9909   61.7894 C   0  0  0  0  0  0  0  0  0  0  0  0
   30.5565   10.1850   61.1713 N   0  0  0  0  0  0  0  0  0  0  0  0
   29.7249   10.5636   60.0560 C   0  0  0  0  0  0  0  0  0  0  0  0
   31.4821   10.9517   61.8155 C   0  0  0  0  0  0  0  0  0  0  0  0
   31.7508    7.7717   63.6656 C   0  0  0  0  0  0  0  0  0  0  0  0
   32.8589    7.6630   64.2327 O   0  0  0  0  0  0  0  0  0  0  0  0
   30.7018    6.8399   63.7705 N   0  0  0  0  0  0  0  0  0  0  0  0
   31.4022    6.2595   64.8089 H   0  0  0  0  0  0  0  0  0  0  0  0
   29.7401    5.9653   63.8795 C   0  0  0  0  0  0  0  0  0  0  0  0
   29.6849    5.1112   65.0004 C   0  0  0  0  0  0  0  0  0  0  0  0
   28.7357    4.1771   65.1907 C   0  0  0  0  0  0  0  0  0  0  0  0
   27.7553    4.0328   64.2358 C   0  0  0  0  0  0  0  0  0  0  0  0
   27.7403    4.8137   63.1317 N   0  0  0  0  0  0  0  0  0  0  0  0
   28.6960    5.7547   62.9530 C   0  0  0  0  0  0  0  0  0  0  0  0
   26.7473    3.0236   64.3482 N   0  0  0  0  0  0  0  0  0  0  0  0
   25.9038    2.7546   63.2099 C   0  0  0  0  0  0  0  0  0  0  0  0
   25.5428    1.3324   62.9871 C   0  0  0  0  0  0  0  0  0  0  0  0
   25.8888    0.3958   64.0903 C   0  0  0  0  0  0  0  0  0  0  0  0
   25.8284    1.0473   65.4681 C   0  0  0  0  0  0  0  0  0  0  0  0
   26.5700    2.3203   65.5876 C   0  0  0  0  0  0  0  0  0  0  0  0
   25.1106   -0.7894   64.1649 N   0  0  0  0  0  0  0  0  0  0  0  0
   23.8587   -0.7979   63.4788 C   0  0  0  0  0  0  0  0  0  0  0  0
   23.3715   -1.7981   64.5079 C   0  0  0  0  0  0  0  0  0  0  0  0
   24.4848   -1.1994   65.3652 C   0  0  0  0  0  0  0  0  0  0  0  0
   28.1118   17.9272   63.0226 C   0  0  0  0  0  0  0  0  0  0  0  0
   28.4703   18.9156   64.1052 C   0  0  0  0  0  0  0  0  0  0  0  0
   27.5466   19.2660   65.0333 C   0  0  0  0  0  0  0  0  0  0  0  0
   27.8861   20.2267   66.0189 C   0  0  0  0  0  0  0  0  0  0  0  0
   29.1594   20.7950   66.0182 C   0  0  0  0  0  0  0  0  0  0  0  0
   30.0356   20.3572   65.0050 C   0  0  0  0  0  0  0  0  0  0  0  0
   29.7303   19.4560   64.0799 C   0  0  0  0  0  0  0  0  0  0  0  0
 18 19  2  0  0  0
 19 17  1  0  0  0
 17  1  1  0  0  0
  1  2  1  0  0  0
  2  3  1  0  0  0
  3  4  2  0  0  0
  3  5  1  0  0  0
  5  6  1  0  0  0
  6 20  1  0  0  0
 20 21  1  0  0  0
 21 22  2  0  0  0
 22 23  1  0  0  0
 23 24  2  0  0  0
 24 25  1  0  0  0
 24 26  1  0  0  0
 26 27  2  0  0  0
  6  7  1  0  0  0
  7  8  2  0  0  0
  7  9  1  0  0  0
  9 29  1  0  0  0
 29 30  1  0  0  0
 30 31  2  0  0  0
 31 32  1  0  0  0
 32 33  2  0  0  0
 33 34  1  0  0  0
 34 35  1  0  0  0
 35 40  1  0  0  0
 40 41  2  0  0  0
 40 42  1  0  0  0
 42 44  1  0  0  0
 44 45  2  0  0  0
 45 46  1  0  0  0
 46 47  2  0  0  0
 47 50  1  0  0  0
 50 51  1  0  0  0
 51 52  1  0  0  0
 52 53  1  0  0  0
 53 56  1  0  0  0
 56 57  1  0  0  0
 57 58  1  0  0  0
 58 59  1  0  0  0
 53 54  1  0  0  0
 54 55  1  0  0  0
 47 48  1  0  0  0
 48 49  2  0  0  0
 35 36  2  0  0  0
 36 37  1  0  0  0
 37 38  1  0  0  0
 37 39  1  0  0  0
  9 10  1  0  0  0
 10 11  1  0  0  0
 11 12  1  0  0  0
 12 13  1  0  0  0
 13 14  2  0  0  0
 13 15  1  0  0  0
 15 60  1  0  0  0
 60 61  1  0  0  0
 61 62  2  0  0  0
 62 63  1  0  0  0
 63 64  2  0  0  0
 64 65  1  0  0  0
 65 66  2  0  0  0
 12  1  1  0  0  0
 66 61  1  0  0  0
 11  5  1  0  0  0
 27 21  1  0  0  0
 39 30  1  0  0  0
 39 34  2  0  0  0
 49 44  1  0  0  0
 55 50  1  0  0  0
 59 56  1  0  0  0
 25 28  1  0  0  0
 42 43  1  0  0  0
 15 16  1  0  0  0
M  END
> <minimizedAffinity>
6.79047

> <CNNscore>
0.3367360234

> <CNNaffinity>
6.5017914772

> <CNN_VS>
2.1893873215

> <CNNaffinity_variance>
0.1536892354

$$$$
[H]Oc1c([H])c([H])c(C([H])([H])[C@@]2([H])C(=O)N(C([H])([H])c3c([H])c([H])c([H])c4c(C(=O)N([H])c5c([H])nc(N6C([H])([H])C([H])([H])C([H])(N7C([H])([H])C([H])([H])C7([H])[H])C([H])([H])C6([H])[H])c([H])c5[H])c([H])n(C([H])([H])[H])c34)C([H])([H])[C@]3([H])N(C(=O)N([H])C([H])([H])c4c([H])c([H])c([H])c([H])c4[H])N(C([H])([H])C([H])=C([H])[H])C([H])([H])C(=O)N23)c([H])c1[H]


 66 74  0  0  0  0  0  0  0  0999 V2000
   33.7942   18.0938   58.4905 N   0  0  0  0  0  0  0  0  0  0  0  0
   34.6199   17.1396   59.2087 C   0  0  0  0  0  0  0  0  0  0  0  0
   34.2031   17.3752   60.6507 C   0  0  0  0  0  0  0  0  0  0  0  0
   35.1137   17.5750   61.4749 O   0  0  0  0  0  0  0  0  0  0  0  0
   32.8478   17.3527   60.9795 N   0  0  0  0  0  0  0  0  0  0  0  0
   32.4222   17.0301   62.3116 C   0  0  0  0  0  0  0  0  0  0  0  0
   31.8827   15.6285   62.1485 C   0  0  0  0  0  0  0  0  0  0  0  0
   32.1239   14.7602   62.9695 O   0  0  0  0  0  0  0  0  0  0  0  0
   31.0914   15.3737   61.0111 N   0  0  0  0  0  0  0  0  0  0  0  0
   30.8626   16.3981   59.9631 C   0  0  0  0  0  0  0  0  0  0  0  0
   31.8243   17.5392   59.9855 C   0  0  0  0  0  0  0  0  0  0  0  0
   32.4111   17.9287   58.7237 N   0  0  0  0  0  0  0  0  0  0  0  0
   31.5916   18.2108   57.5870 C   0  0  0  0  0  0  0  0  0  0  0  0
   32.1982   18.4879   56.4979 O   0  0  0  0  0  0  0  0  0  0  0  0
   30.1926   18.2225   57.5284 N   0  0  0  0  0  0  0  0  0  0  0  0
   29.6259   18.0209   58.3524 H   0  0  0  0  0  0  0  0  0  0  0  0
   34.2825   19.3893   58.9385 C   0  0  0  0  0  0  0  0  0  0  0  0
   33.0790   20.7826   60.5205 C   0  0  0  0  0  0  0  0  0  0  0  0
   33.2545   20.3330   59.3070 C   0  0  0  0  0  0  0  0  0  0  0  0
   31.4522   17.9051   62.9855 C   0  0  0  0  0  0  0  0  0  0  0  0
   30.1880   18.2320   62.3212 C   0  0  0  0  0  0  0  0  0  0  0  0
   29.0386   17.4832   62.5805 C   0  0  0  0  0  0  0  0  0  0  0  0
   27.8622   17.7424   61.9104 C   0  0  0  0  0  0  0  0  0  0  0  0
   27.7513   18.7370   60.9593 C   0  0  0  0  0  0  0  0  0  0  0  0
   26.5412   18.9468   60.3256 O   0  0  0  0  0  0  0  0  0  0  0  0
   28.8747   19.4717   60.7012 C   0  0  0  0  0  0  0  0  0  0  0  0
   30.0722   19.2215   61.3711 C   0  0  0  0  0  0  0  0  0  0  0  0
   25.7136   18.3964   60.5274 H   0  0  0  0  0  0  0  0  0  0  0  0
   30.4536   14.0861   60.7308 C   0  0  0  0  0  0  0  0  0  0  0  0
   31.4085   13.0059   60.9975 C   0  0  0  0  0  0  0  0  0  0  0  0
   32.7624   13.2141   60.9574 C   0  0  0  0  0  0  0  0  0  0  0  0
   33.6711   12.1880   61.1517 C   0  0  0  0  0  0  0  0  0  0  0  0
   33.2184   10.9045   61.3967 C   0  0  0  0  0  0  0  0  0  0  0  0
   31.8365   10.6805   61.4417 C   0  0  0  0  0  0  0  0  0  0  0  0
   31.1127    9.5601   61.6784 C   0  0  0  0  0  0  0  0  0  0  0  0
   29.7973    9.9231   61.6285 C   0  0  0  0  0  0  0  0  0  0  0  0
   29.6675   11.2353   61.3651 N   0  0  0  0  0  0  0  0  0  0  0  0
   28.4315   11.9671   61.2404 C   0  0  0  0  0  0  0  0  0  0  0  0
   30.9362   11.7204   61.2438 C   0  0  0  0  0  0  0  0  0  0  0  0
   31.5792    8.1518   61.9211 C   0  0  0  0  0  0  0  0  0  0  0  0
   32.7969    7.8874   61.8277 O   0  0  0  0  0  0  0  0  0  0  0  0
   30.5795    7.2186   62.2520 N   0  0  0  0  0  0  0  0  0  0  0  0
   31.5922    6.3531   62.6140 H   0  0  0  0  0  0  0  0  0  0  0  0
   29.6661    6.3398   62.5605 C   0  0  0  0  0  0  0  0  0  0  0  0
   29.3407    6.1029   63.9121 C   0  0  0  0  0  0  0  0  0  0  0  0
   28.4195    5.2120   64.3210 C   0  0  0  0  0  0  0  0  0  0  0  0
   27.7504    4.4756   63.3702 C   0  0  0  0  0  0  0  0  0  0  0  0
   28.0071    4.6443   62.0531 N   0  0  0  0  0  0  0  0  0  0  0  0
   28.9311    5.5477   61.6521 C   0  0  0  0  0  0  0  0  0  0  0  0
   26.7979    3.4731   63.7372 N   0  0  0  0  0  0  0  0  0  0  0  0
   25.8292    3.0440   62.7588 C   0  0  0  0  0  0  0  0  0  0  0  0
   25.4903    1.5991   62.7665 C   0  0  0  0  0  0  0  0  0  0  0  0
   26.0009    0.8202   63.9270 C   0  0  0  0  0  0  0  0  0  0  0  0
   26.0901    1.6447   65.2071 C   0  0  0  0  0  0  0  0  0  0  0  0
   26.7986    2.9345   65.0684 C   0  0  0  0  0  0  0  0  0  0  0  0
   25.2773   -0.3579   64.2500 N   0  0  0  0  0  0  0  0  0  0  0  0
   24.5572   -0.9967   63.1958 C   0  0  0  0  0  0  0  0  0  0  0  0
   23.5945   -1.5102   64.2476 C   0  0  0  0  0  0  0  0  0  0  0  0
   24.1167   -0.3254   65.0578 C   0  0  0  0  0  0  0  0  0  0  0  0
   29.4869   18.5362   56.2890 C   0  0  0  0  0  0  0  0  0  0  0  0
   28.2195   19.3004   56.5843 C   0  0  0  0  0  0  0  0  0  0  0  0
   28.1657   20.1331   57.6526 C   0  0  0  0  0  0  0  0  0  0  0  0
   26.9550   20.8120   57.9403 C   0  0  0  0  0  0  0  0  0  0  0  0
   25.8421   20.6132   57.1241 C   0  0  0  0  0  0  0  0  0  0  0  0
   26.0134   19.7238   56.0444 C   0  0  0  0  0  0  0  0  0  0  0  0
   27.1425   19.0859   55.7631 C   0  0  0  0  0  0  0  0  0  0  0  0
 18 19  2  0  0  0
 19 17  1  0  0  0
 17  1  1  0  0  0
  1  2  1  0  0  0
  2  3  1  0  0  0
  3  4  2  0  0  0
  3  5  1  0  0  0
  5  6  1  0  0  0
  6 20  1  0  0  0
 20 21  1  0  0  0
 21 22  2  0  0  0
 22 23  1  0  0  0
 23 24  2  0  0  0
 24 25  1  0  0  0
 24 26  1  0  0  0
 26 27  2  0  0  0
  6  7  1  0  0  0
  7  8  2  0  0  0
  7  9  1  0  0  0
  9 29  1  0  0  0
 29 30  1  0  0  0
 30 31  2  0  0  0
 31 32  1  0  0  0
 32 33  2  0  0  0
 33 34  1  0  0  0
 34 35  1  0  0  0
 35 40  1  0  0  0
 40 41  2  0  0  0
 40 42  1  0  0  0
 42 44  1  0  0  0
 44 45  2  0  0  0
 45 46  1  0  0  0
 46 47  2  0  0  0
 47 50  1  0  0  0
 50 51  1  0  0  0
 51 52  1  0  0  0
 52 53  1  0  0  0
 53 56  1  0  0  0
 56 57  1  0  0  0
 57 58  1  0  0  0
 58 59  1  0  0  0
 53 54  1  0  0  0
 54 55  1  0  0  0
 47 48  1  0  0  0
 48 49  2  0  0  0
 35 36  2  0  0  0
 36 37  1  0  0  0
 37 38  1  0  0  0
 37 39  1  0  0  0
  9 10  1  0  0  0
 10 11  1  0  0  0
 11 12  1  0  0  0
 12 13  1  0  0  0
 13 14  2  0  0  0
 13 15  1  0  0  0
 15 60  1  0  0  0
 60 61  1  0  0  0
 61 62  2  0  0  0
 62 63  1  0  0  0
 63 64  2  0  0  0
 64 65  1  0  0  0
 65 66  2  0  0  0
 12  1  1  0  0  0
 66 61  1  0  0  0
 11  5  1  0  0  0
 27 21  1  0  0  0
 39 30  1  0  0  0
 39 34  2  0  0  0
 49 44  1  0  0  0
 55 50  1  0  0  0
 59 56  1  0  0  0
 25 28  1  0  0  0
 42 43  1  0  0  0
 15 16  1  0  0  0
M  END
> <minimizedAffinity>
3.27101

> <CNNscore>
0.3302857578

> <CNNaffinity>
6.8500580788

> <CNN_VS>
2.2624766827

> <CNNaffinity_variance>
0.0867292807

$$$$
[H]c1nc(Oc2c([H])c([H])c(C(=O)N([H])C([H])([H])C([H])([H])N3C([H])([H])C([H])([H])C([H])([H])C3([H])[H])c([H])c2[H])c(N([H])S(=O)(=O)c2c([H])c([H])c(Cl)c(Cl)c2[H])c([H])c1Cl


 38 41  0  0  0  0  0  0  0  0999 V2000
   25.4434    9.2927   55.7224 C   0  0  0  0  0  0  0  0  0  0  0  0
   25.0129   10.4486   56.2593 N   0  0  0  0  0  0  0  0  0  0  0  0
   23.7550   10.8696   56.0990 C   0  0  0  0  0  0  0  0  0  0  0  0
   22.8921   10.1068   55.3746 C   0  0  0  0  0  0  0  0  0  0  0  0
   21.2421   10.6689   55.1696 Cl  0  0  0  0  0  0  0  0  0  0  0  0
   23.3199    8.8976   54.8059 C   0  0  0  0  0  0  0  0  0  0  0  0
   24.6172    8.4826   54.9816 C   0  0  0  0  0  0  0  0  0  0  0  0
   25.1329    7.2706   54.4679 N   0  0  0  0  0  0  0  0  0  0  0  0
   26.1793    7.0869   54.4591 H   0  0  0  0  0  0  0  0  0  0  0  0
   24.0633    6.0806   53.8513 S   0  0  0  0  0  0  0  0  0  0  0  0
   24.7960    5.2839   52.7794 O   0  0  0  0  0  0  0  0  0  0  0  0
   23.7179    5.1418   55.0050 O   0  0  0  0  0  0  0  0  0  0  0  0
   22.5935    6.6847   53.1839 C   0  0  0  0  0  0  0  0  0  0  0  0
   21.4280    5.9109   53.1921 C   0  0  0  0  0  0  0  0  0  0  0  0
   20.2903    6.4341   52.6483 C   0  0  0  0  0  0  0  0  0  0  0  0
   20.2805    7.7045   52.0971 C   0  0  0  0  0  0  0  0  0  0  0  0
   18.8190    8.3581   51.4047 Cl  0  0  0  0  0  0  0  0  0  0  0  0
   21.4353    8.4758   52.0867 C   0  0  0  0  0  0  0  0  0  0  0  0
   21.3793   10.0704   51.3828 Cl  0  0  0  0  0  0  0  0  0  0  0  0
   22.5937    7.9456   52.6396 C   0  0  0  0  0  0  0  0  0  0  0  0
   26.7750    8.9212   55.9357 O   0  0  0  0  0  0  0  0  0  0  0  0
   28.9449   10.3448   59.2324 C   0  0  0  0  0  0  0  0  0  0  0  0
   28.6335   11.1916   58.1580 C   0  0  0  0  0  0  0  0  0  0  0  0
   27.9180   10.7117   57.0754 C   0  0  0  0  0  0  0  0  0  0  0  0
   27.4923    9.4062   57.0149 C   0  0  0  0  0  0  0  0  0  0  0  0
   27.8100    8.5979   58.0784 C   0  0  0  0  0  0  0  0  0  0  0  0
   28.5247    9.0532   59.1732 C   0  0  0  0  0  0  0  0  0  0  0  0
   30.0641   10.0747   61.3007 O   0  0  0  0  0  0  0  0  0  0  0  0
   29.6865   10.8726   60.3672 C   0  0  0  0  0  0  0  0  0  0  0  0
   30.0180   12.2362   60.4981 N   0  0  0  0  0  0  0  0  0  0  0  0
   29.6971   12.8680   59.7237 H   0  0  0  0  0  0  0  0  0  0  0  0
   30.7420   12.8404   61.5799 C   0  0  0  0  0  0  0  0  0  0  0  0
   31.6344   13.9247   61.0417 C   0  0  0  0  0  0  0  0  0  0  0  0
   31.1416   15.2136   61.4334 N   0  0  0  0  0  0  0  0  0  0  0  0
   29.7972   15.5006   61.0666 C   0  0  0  0  0  0  0  0  0  0  0  0
   29.8428   16.5012   59.9237 C   0  0  0  0  0  0  0  0  0  0  0  0
   31.1530   17.1982   60.1559 C   0  0  0  0  0  0  0  0  0  0  0  0
   31.9692   16.3183   61.0662 C   0  0  0  0  0  0  0  0  0  0  0  0
 28 29  2  0  0  0
 29 30  1  0  0  0
 30 32  1  0  0  0
 32 33  1  0  0  0
 33 34  1  0  0  0
 34 35  1  0  0  0
 35 36  1  0  0  0
 36 37  1  0  0  0
 37 38  1  0  0  0
 29 22  1  0  0  0
 22 23  2  0  0  0
 23 24  1  0  0  0
 24 25  2  0  0  0
 25 21  1  0  0  0
 21  1  1  0  0  0
  1  2  2  0  0  0
  2  3  1  0  0  0
  3  4  2  0  0  0
  4  5  1  0  0  0
  4  6  1  0  0  0
  6  7  2  0  0  0
  7  8  1  0  0  0
  8 10  1  0  0  0
 10 11  2  0  0  0
 10 12  2  0  0  0
 10 13  1  0  0  0
 13 14  2  0  0  0
 14 15  1  0  0  0
 15 16  2  0  0  0
 16 17  1  0  0  0
 16 18  1  0  0  0
 18 19  1  0  0  0
 18 20  2  0  0  0
 25 26  1  0  0  0
 26 27  2  0  0  0
 38 34  1  0  0  0
 27 22  1  0  0  0
  7  1  1  0  0  0
 20 13  1  0  0  0
 30 31  1  0  0  0
  8  9  1  0  0  0
M  END
> <minimizedAffinity>
9.00508

> <CNNscore>
0.6147975922

> <CNNaffinity>
7.0518417358

> <CNN_VS>
4.3354554176

> <CNNaffinity_variance>
0.1904545873

$$$$
[H]c1nc(Oc2c([H])c([H])c(C(=O)N([H])C([H])([H])C([H])([H])N3C([H])([H])C([H])([H])C([H])([H])C3([H])[H])c([H])c2[H])c(N([H])S(=O)(=O)c2c([H])c([H])c(Cl)c(Cl)c2[H])c([H])c1Cl


 38 41  0  0  0  0  0  0  0  0999 V2000
   24.2857    7.2569   53.3208 C   0  0  0  0  0  0  0  0  0  0  0  0
   24.3411    5.9212   53.4713 N   0  0  0  0  0  0  0  0  0  0  0  0
   23.2337    5.1837   53.5936 C   0  0  0  0  0  0  0  0  0  0  0  0
   22.0228    5.8033   53.5642 C   0  0  0  0  0  0  0  0  0  0  0  0
   20.5742    4.8255   53.7260 Cl  0  0  0  0  0  0  0  0  0  0  0  0
   21.9417    7.1953   53.4078 C   0  0  0  0  0  0  0  0  0  0  0  0
   23.0917    7.9358   53.2845 C   0  0  0  0  0  0  0  0  0  0  0  0
   23.1100    9.3374   53.1001 N   0  0  0  0  0  0  0  0  0  0  0  0
   23.9179    9.8074   52.5949 H   0  0  0  0  0  0  0  0  0  0  0  0
   21.8177   10.2942   53.6955 S   0  0  0  0  0  0  0  0  0  0  0  0
   20.5625    9.4323   53.7422 O   0  0  0  0  0  0  0  0  0  0  0  0
   22.1791   10.7058   55.1208 O   0  0  0  0  0  0  0  0  0  0  0  0
   21.4765   11.7195   52.7884 C   0  0  0  0  0  0  0  0  0  0  0  0
   21.9643   11.8778   51.4866 C   0  0  0  0  0  0  0  0  0  0  0  0
   21.6684   13.0268   50.8114 C   0  0  0  0  0  0  0  0  0  0  0  0
   20.9016   14.0214   51.3950 C   0  0  0  0  0  0  0  0  0  0  0  0
   20.5336   15.4845   50.5194 Cl  0  0  0  0  0  0  0  0  0  0  0  0
   20.4157   13.8684   52.6869 C   0  0  0  0  0  0  0  0  0  0  0  0
   19.4539   15.1452   53.3841 Cl  0  0  0  0  0  0  0  0  0  0  0  0
   20.7153   12.7002   53.3756 C   0  0  0  0  0  0  0  0  0  0  0  0
   25.4899    7.9582   53.1991 O   0  0  0  0  0  0  0  0  0  0  0  0
   27.4765    9.4109   56.5971 C   0  0  0  0  0  0  0  0  0  0  0  0
   28.1982    8.9380   55.4909 C   0  0  0  0  0  0  0  0  0  0  0  0
   27.5332    8.4605   54.3756 C   0  0  0  0  0  0  0  0  0  0  0  0
   26.1604    8.4331   54.3124 C   0  0  0  0  0  0  0  0  0  0  0  0
   25.4773    8.9008   55.4078 C   0  0  0  0  0  0  0  0  0  0  0  0
   26.1185    9.3836   56.5358 C   0  0  0  0  0  0  0  0  0  0  0  0
   28.4772   11.1730   57.8208 O   0  0  0  0  0  0  0  0  0  0  0  0
   28.1949    9.9213   57.7545 C   0  0  0  0  0  0  0  0  0  0  0  0
   28.6040    9.1008   58.8250 N   0  0  0  0  0  0  0  0  0  0  0  0
   28.3633    8.0821   58.7469 H   0  0  0  0  0  0  0  0  0  0  0  0
   29.3152    9.5185   59.9994 C   0  0  0  0  0  0  0  0  0  0  0  0
   28.3390   10.0429   61.0162 C   0  0  0  0  0  0  0  0  0  0  0  0
   28.8906   11.1807   61.6936 N   0  0  0  0  0  0  0  0  0  0  0  0
   27.9473   12.0720   62.2768 C   0  0  0  0  0  0  0  0  0  0  0  0
   27.9121   13.3228   61.4144 C   0  0  0  0  0  0  0  0  0  0  0  0
   29.2813   13.3287   60.7968 C   0  0  0  0  0  0  0  0  0  0  0  0
   29.8389   11.9366   60.9391 C   0  0  0  0  0  0  0  0  0  0  0  0
 28 29  2  0  0  0
 29 30  1  0  0  0
 30 32  1  0  0  0
 32 33  1  0  0  0
 33 34  1  0  0  0
 34 35  1  0  0  0
 35 36  1  0  0  0
 36 37  1  0  0  0
 37 38  1  0  0  0
 29 22  1  0  0  0
 22 23  2  0  0  0
 23 24  1  0  0  0
 24 25  2  0  0  0
 25 21  1  0  0  0
 21  1  1  0  0  0
  1  2  2  0  0  0
  2  3  1  0  0  0
  3  4  2  0  0  0
  4  5  1  0  0  0
  4  6  1  0  0  0
  6  7  2  0  0  0
  7  8  1  0  0  0
  8 10  1  0  0  0
 10 11  2  0  0  0
 10 12  2  0  0  0
 10 13  1  0  0  0
 13 14  2  0  0  0
 14 15  1  0  0  0
 15 16  2  0  0  0
 16 17  1  0  0  0
 16 18  1  0  0  0
 18 19  1  0  0  0
 18 20  2  0  0  0
 25 26  1  0  0  0
 26 27  2  0  0  0
 38 34  1  0  0  0
 27 22  1  0  0  0
  7  1  1  0  0  0
 20 13  1  0  0  0
 30 31  1  0  0  0
  8  9  1  0  0  0
M  END
> <minimizedAffinity>
11.03599

> <CNNscore>
0.5494507551

> <CNNaffinity>
6.8996338844

> <CNN_VS>
3.7910089493

> <CNNaffinity_variance>
0.0291185379

$$$$
[H]c1nc(Oc2c([H])c([H])c(C(=O)N([H])C([H])([H])C([H])([H])N3C([H])([H])C([H])([H])C([H])([H])C3([H])[H])c([H])c2[H])c(N([H])S(=O)(=O)c2c([H])c([H])c(Cl)c(Cl)c2[H])c([H])c1Cl


 38 41  0  0  0  0  0  0  0  0999 V2000
   25.4178    9.3056   55.6509 C   0  0  0  0  0  0  0  0  0  0  0  0
   24.9976   10.4525   56.2146 N   0  0  0  0  0  0  0  0  0  0  0  0
   23.7229   10.8453   56.1365 C   0  0  0  0  0  0  0  0  0  0  0  0
   22.8319   10.0625   55.4699 C   0  0  0  0  0  0  0  0  0  0  0  0
   21.1599   10.5876   55.3727 Cl  0  0  0  0  0  0  0  0  0  0  0  0
   23.2484    8.8620   54.8748 C   0  0  0  0  0  0  0  0  0  0  0  0
   24.5633    8.4762   54.9656 C   0  0  0  0  0  0  0  0  0  0  0  0
   25.0712    7.2751   54.4196 N   0  0  0  0  0  0  0  0  0  0  0  0
   26.1182    7.1005   54.3733 H   0  0  0  0  0  0  0  0  0  0  0  0
   23.9912    6.0836   53.8244 S   0  0  0  0  0  0  0  0  0  0  0  0
   24.7164    5.2621   52.7663 O   0  0  0  0  0  0  0  0  0  0  0  0
   23.6384    5.1682   54.9945 O   0  0  0  0  0  0  0  0  0  0  0  0
   22.5263    6.6886   53.1470 C   0  0  0  0  0  0  0  0  0  0  0  0
   21.3568    5.9207   53.1597 C   0  0  0  0  0  0  0  0  0  0  0  0
   20.2233    6.4443   52.6077 C   0  0  0  0  0  0  0  0  0  0  0  0
   20.2213    7.7092   52.0441 C   0  0  0  0  0  0  0  0  0  0  0  0
   18.7650    8.3633   51.3413 Cl  0  0  0  0  0  0  0  0  0  0  0  0
   21.3800    8.4746   52.0292 C   0  0  0  0  0  0  0  0  0  0  0  0
   21.3339   10.0625   51.3096 Cl  0  0  0  0  0  0  0  0  0  0  0  0
   22.5342    7.9440   52.5905 C   0  0  0  0  0  0  0  0  0  0  0  0
   26.7684    8.9640   55.7771 O   0  0  0  0  0  0  0  0  0  0  0  0
   28.9688    9.9823   59.2012 C   0  0  0  0  0  0  0  0  0  0  0  0
   28.7236   10.9308   58.1970 C   0  0  0  0  0  0  0  0  0  0  0  0
   27.9974   10.5843   57.0715 C   0  0  0  0  0  0  0  0  0  0  0  0
   27.4967    9.3158   56.8997 C   0  0  0  0  0  0  0  0  0  0  0  0
   27.7506    8.4060   57.8962 C   0  0  0  0  0  0  0  0  0  0  0  0
   28.4744    8.7271   59.0319 C   0  0  0  0  0  0  0  0  0  0  0  0
   29.6130    9.6763   61.4585 O   0  0  0  0  0  0  0  0  0  0  0  0
   29.7230   10.3706   60.3830 C   0  0  0  0  0  0  0  0  0  0  0  0
   30.5826   11.4872   60.4101 N   0  0  0  0  0  0  0  0  0  0  0  0
   30.6544   12.0392   59.5202 H   0  0  0  0  0  0  0  0  0  0  0  0
   31.3598   11.9413   61.5279 C   0  0  0  0  0  0  0  0  0  0  0  0
   30.5249   11.8782   62.7772 C   0  0  0  0  0  0  0  0  0  0  0  0
   29.5627   12.9421   62.7859 N   0  0  0  0  0  0  0  0  0  0  0  0
   28.2135   12.5553   63.0190 C   0  0  0  0  0  0  0  0  0  0  0  0
   27.4745   12.6681   61.6959 C   0  0  0  0  0  0  0  0  0  0  0  0
   28.2691   13.7156   60.9696 C   0  0  0  0  0  0  0  0  0  0  0  0
   29.6077   13.8117   61.6537 C   0  0  0  0  0  0  0  0  0  0  0  0
 28 29  2  0  0  0
 29 30  1  0  0  0
 30 32  1  0  0  0
 32 33  1  0  0  0
 33 34  1  0  0  0
 34 35  1  0  0  0
 35 36  1  0  0  0
 36 37  1  0  0  0
 37 38  1  0  0  0
 29 22  1  0  0  0
 22 23  2  0  0  0
 23 24  1  0  0  0
 24 25  2  0  0  0
 25 21  1  0  0  0
 21  1  1  0  0  0
  1  2  2  0  0  0
  2  3  1  0  0  0
  3  4  2  0  0  0
  4  5  1  0  0  0
  4  6  1  0  0  0
  6  7  2  0  0  0
  7  8  1  0  0  0
  8 10  1  0  0  0
 10 11  2  0  0  0
 10 12  2  0  0  0
 10 13  1  0  0  0
 13 14  2  0  0  0
 14 15  1  0  0  0
 15 16  2  0  0  0
 16 17  1  0  0  0
 16 18  1  0  0  0
 18 19  1  0  0  0
 18 20  2  0  0  0
 25 26  1  0  0  0
 26 27  2  0  0  0
 38 34  1  0  0  0
 27 22  1  0  0  0
  7  1  1  0  0  0
 20 13  1  0  0  0
 30 31  1  0  0  0
  8  9  1  0  0  0
M  END
> <minimizedAffinity>
9.53522

> <CNNscore>
0.5494441390

> <CNNaffinity>
7.0831680298

> <CNN_VS>
3.8918051720

> <CNNaffinity_variance>
0.2240352184

$$$$
[H]c1nc(Oc2c([H])c([H])c(C(=O)N([H])C([H])([H])C([H])([H])N3C([H])([H])C([H])([H])C([H])([H])C3([H])[H])c([H])c2[H])c(N([H])S(=O)(=O)c2c([H])c([H])c(Cl)c(Cl)c2[H])c([H])c1Cl


 38 41  0  0  0  0  0  0  0  0999 V2000
   24.2276    7.2535   53.2997 C   0  0  0  0  0  0  0  0  0  0  0  0
   24.2930    5.9264   53.5100 N   0  0  0  0  0  0  0  0  0  0  0  0
   23.1905    5.1812   53.6302 C   0  0  0  0  0  0  0  0  0  0  0  0
   21.9743    5.7839   53.5365 C   0  0  0  0  0  0  0  0  0  0  0  0
   20.5323    4.7962   53.6961 Cl  0  0  0  0  0  0  0  0  0  0  0  0
   21.8829    7.1668   53.3171 C   0  0  0  0  0  0  0  0  0  0  0  0
   23.0279    7.9153   53.1971 C   0  0  0  0  0  0  0  0  0  0  0  0
   23.0366    9.3078   52.9524 N   0  0  0  0  0  0  0  0  0  0  0  0
   23.7841    9.7457   52.3374 H   0  0  0  0  0  0  0  0  0  0  0  0
   21.8304   10.3055   53.6523 S   0  0  0  0  0  0  0  0  0  0  0  0
   20.5536    9.4874   53.7975 O   0  0  0  0  0  0  0  0  0  0  0  0
   22.3193   10.6965   55.0450 O   0  0  0  0  0  0  0  0  0  0  0  0
   21.4676   11.7468   52.7794 C   0  0  0  0  0  0  0  0  0  0  0  0
   21.9600   11.9473   51.4853 C   0  0  0  0  0  0  0  0  0  0  0  0
   21.6463   13.1073   50.8374 C   0  0  0  0  0  0  0  0  0  0  0  0
   20.8574   14.0721   51.4411 C   0  0  0  0  0  0  0  0  0  0  0  0
   20.4668   15.5498   50.6004 Cl  0  0  0  0  0  0  0  0  0  0  0  0
   20.3668   13.8771   52.7256 C   0  0  0  0  0  0  0  0  0  0  0  0
   19.3768   15.1175   53.4487 Cl  0  0  0  0  0  0  0  0  0  0  0  0
   20.6844   12.6977   53.3863 C   0  0  0  0  0  0  0  0  0  0  0  0
   25.4272    7.9637   53.1847 O   0  0  0  0  0  0  0  0  0  0  0  0
   27.4574    9.3095   56.6010 C   0  0  0  0  0  0  0  0  0  0  0  0
   28.1648    8.8566   55.4772 C   0  0  0  0  0  0  0  0  0  0  0  0
   27.4854    8.4144   54.3561 C   0  0  0  0  0  0  0  0  0  0  0  0
   26.1120    8.4034   54.3038 C   0  0  0  0  0  0  0  0  0  0  0  0
   25.4431    8.8510   55.4162 C   0  0  0  0  0  0  0  0  0  0  0  0
   26.0988    9.2985   56.5504 C   0  0  0  0  0  0  0  0  0  0  0  0
   28.5613   11.0121   57.8201 O   0  0  0  0  0  0  0  0  0  0  0  0
   28.1908    9.7830   57.7646 C   0  0  0  0  0  0  0  0  0  0  0  0
   28.5214    8.9502   58.8525 N   0  0  0  0  0  0  0  0  0  0  0  0
   28.2093    7.9505   58.7830 H   0  0  0  0  0  0  0  0  0  0  0  0
   29.2407    9.3321   60.0343 C   0  0  0  0  0  0  0  0  0  0  0  0
   29.1427   10.8212   60.2212 C   0  0  0  0  0  0  0  0  0  0  0  0
   30.4151   11.3577   60.6093 N   0  0  0  0  0  0  0  0  0  0  0  0
   31.4614   10.4090   60.7807 C   0  0  0  0  0  0  0  0  0  0  0  0
   31.7082   10.2711   62.2739 C   0  0  0  0  0  0  0  0  0  0  0  0
   31.2558   11.6029   62.8010 C   0  0  0  0  0  0  0  0  0  0  0  0
   30.3881   12.2289   61.7408 C   0  0  0  0  0  0  0  0  0  0  0  0
 28 29  2  0  0  0
 29 30  1  0  0  0
 30 32  1  0  0  0
 32 33  1  0  0  0
 33 34  1  0  0  0
 34 35  1  0  0  0
 35 36  1  0  0  0
 36 37  1  0  0  0
 37 38  1  0  0  0
 29 22  1  0  0  0
 22 23  2  0  0  0
 23 24  1  0  0  0
 24 25  2  0  0  0
 25 21  1  0  0  0
 21  1  1  0  0  0
  1  2  2  0  0  0
  2  3  1  0  0  0
  3  4  2  0  0  0
  4  5  1  0  0  0
  4  6  1  0  0  0
  6  7  2  0  0  0
  7  8  1  0  0  0
  8 10  1  0  0  0
 10 11  2  0  0  0
 10 12  2  0  0  0
 10 13  1  0  0  0
 13 14  2  0  0  0
 14 15  1  0  0  0
 15 16  2  0  0  0
 16 17  1  0  0  0
 16 18  1  0  0  0
 18 19  1  0  0  0
 18 20  2  0  0  0
 25 26  1  0  0  0
 26 27  2  0  0  0
 38 34  1  0  0  0
 27 22  1  0  0  0
  7  1  1  0  0  0
 20 13  1  0  0  0
 30 31  1  0  0  0
  8  9  1  0  0  0
M  END
> <minimizedAffinity>
10.88651

> <CNNscore>
0.5334949493

> <CNNaffinity>
6.7820839882

> <CNN_VS>
3.6182074547

> <CNNaffinity_variance>
0.0051413127

$$$$
[H]c1nc(Oc2c([H])c([H])c(C(=O)N([H])C([H])([H])C([H])([H])N3C([H])([H])C([H])([H])C([H])([H])C3([H])[H])c([H])c2[H])c(N([H])S(=O)(=O)c2c([H])c([H])c(Cl)c(Cl)c2[H])c([H])c1Cl


 38 41  0  0  0  0  0  0  0  0999 V2000
   24.2159    7.2503   53.2941 C   0  0  0  0  0  0  0  0  0  0  0  0
   24.2781    5.9207   53.4885 N   0  0  0  0  0  0  0  0  0  0  0  0
   23.1738    5.1772   53.6032 C   0  0  0  0  0  0  0  0  0  0  0  0
   21.9591    5.7845   53.5201 C   0  0  0  0  0  0  0  0  0  0  0  0
   20.5147    4.7991   53.6724 Cl  0  0  0  0  0  0  0  0  0  0  0  0
   21.8710    7.1701   53.3173 C   0  0  0  0  0  0  0  0  0  0  0  0
   23.0179    7.9168   53.2028 C   0  0  0  0  0  0  0  0  0  0  0  0
   23.0298    9.3120   52.9743 N   0  0  0  0  0  0  0  0  0  0  0  0
   23.8015    9.7606   52.3981 H   0  0  0  0  0  0  0  0  0  0  0  0
   21.7886   10.2957   53.6315 S   0  0  0  0  0  0  0  0  0  0  0  0
   20.5142    9.4661   53.7223 O   0  0  0  0  0  0  0  0  0  0  0  0
   22.2191   10.6833   55.0443 O   0  0  0  0  0  0  0  0  0  0  0  0
   21.4479   11.7386   52.7523 C   0  0  0  0  0  0  0  0  0  0  0  0
   21.9319   11.9202   51.4522 C   0  0  0  0  0  0  0  0  0  0  0  0
   21.6366   13.0823   50.7996 C   0  0  0  0  0  0  0  0  0  0  0  0
   20.8740   14.0675   51.4041 C   0  0  0  0  0  0  0  0  0  0  0  0
   20.5066   15.5475   50.5573 Cl  0  0  0  0  0  0  0  0  0  0  0  0
   20.3918   13.8913   52.6945 C   0  0  0  0  0  0  0  0  0  0  0  0
   19.4352   15.1571   53.4186 Cl  0  0  0  0  0  0  0  0  0  0  0  0
   20.6908   12.7098   53.3602 C   0  0  0  0  0  0  0  0  0  0  0  0
   25.4172    7.9585   53.1839 O   0  0  0  0  0  0  0  0  0  0  0  0
   27.4989    9.3223   56.5618 C   0  0  0  0  0  0  0  0  0  0  0  0
   26.0981    9.3791   56.5104 C   0  0  0  0  0  0  0  0  0  0  0  0
   25.4215    8.9273   55.3913 C   0  0  0  0  0  0  0  0  0  0  0  0
   26.0886    8.4133   54.3050 C   0  0  0  0  0  0  0  0  0  0  0  0
   27.4588    8.3689   54.3798 C   0  0  0  0  0  0  0  0  0  0  0  0
   28.1597    8.8146   55.4875 C   0  0  0  0  0  0  0  0  0  0  0  0
   28.5405   11.0235   57.8365 O   0  0  0  0  0  0  0  0  0  0  0  0
   28.1904    9.7900   57.7531 C   0  0  0  0  0  0  0  0  0  0  0  0
   28.5012    8.9469   58.8389 N   0  0  0  0  0  0  0  0  0  0  0  0
   28.2064    7.9437   58.7464 H   0  0  0  0  0  0  0  0  0  0  0  0
   29.1793    9.3225   60.0467 C   0  0  0  0  0  0  0  0  0  0  0  0
   29.5186   10.7868   59.9961 C   0  0  0  0  0  0  0  0  0  0  0  0
   30.1548   11.1916   61.2164 N   0  0  0  0  0  0  0  0  0  0  0  0
   29.8776   12.5183   61.6492 C   0  0  0  0  0  0  0  0  0  0  0  0
   31.1251   13.3481   61.3951 C   0  0  0  0  0  0  0  0  0  0  0  0
   32.2162   12.3171   61.4498 C   0  0  0  0  0  0  0  0  0  0  0  0
   31.5650   10.9709   61.2690 C   0  0  0  0  0  0  0  0  0  0  0  0
 28 29  2  0  0  0
 29 30  1  0  0  0
 30 32  1  0  0  0
 32 33  1  0  0  0
 33 34  1  0  0  0
 34 35  1  0  0  0
 35 36  1  0  0  0
 36 37  1  0  0  0
 37 38  1  0  0  0
 29 22  1  0  0  0
 22 23  2  0  0  0
 23 24  1  0  0  0
 24 25  2  0  0  0
 25 21  1  0  0  0
 21  1  1  0  0  0
  1  2  2  0  0  0
  2  3  1  0  0  0
  3  4  2  0  0  0
  4  5  1  0  0  0
  4  6  1  0  0  0
  6  7  2  0  0  0
  7  8  1  0  0  0
  8 10  1  0  0  0
 10 11  2  0  0  0
 10 12  2  0  0  0
 10 13  1  0  0  0
 13 14  2  0  0  0
 14 15  1  0  0  0
 15 16  2  0  0  0
 16 17  1  0  0  0
 16 18  1  0  0  0
 18 19  1  0  0  0
 18 20  2  0  0  0
 25 26  1  0  0  0
 26 27  2  0  0  0
 38 34  1  0  0  0
 27 22  1  0  0  0
  7  1  1  0  0  0
 20 13  1  0  0  0
 30 31  1  0  0  0
  8  9  1  0  0  0
M  END
> <minimizedAffinity>
10.84957

> <CNNscore>
0.5258990526

> <CNNaffinity>
6.7314620018

> <CNN_VS>
3.5400695801

> <CNNaffinity_variance>
0.0082444940

$$$$
[H]c1nc(Oc2c([H])c([H])c(C(=O)N([H])C([H])([H])C([H])([H])N3C([H])([H])C([H])([H])C([H])([H])C3([H])[H])c([H])c2[H])c(N([H])S(=O)(=O)c2c([H])c([H])c(Cl)c(Cl)c2[H])c([H])c1Cl


 38 41  0  0  0  0  0  0  0  0999 V2000
   24.4588    7.2372   53.5026 C   0  0  0  0  0  0  0  0  0  0  0  0
   24.4629    6.0826   52.8123 N   0  0  0  0  0  0  0  0  0  0  0  0
   23.4251    5.2417   52.8479 C   0  0  0  0  0  0  0  0  0  0  0  0
   22.3399    5.5660   53.6019 C   0  0  0  0  0  0  0  0  0  0  0  0
   20.9821    4.4545   53.6422 Cl  0  0  0  0  0  0  0  0  0  0  0  0
   22.3143    6.7654   54.3296 C   0  0  0  0  0  0  0  0  0  0  0  0
   23.3914    7.6159   54.2804 C   0  0  0  0  0  0  0  0  0  0  0  0
   23.4482    8.8548   54.9591 N   0  0  0  0  0  0  0  0  0  0  0  0
   24.3261    9.1475   55.4811 H   0  0  0  0  0  0  0  0  0  0  0  0
   22.0895    9.9006   54.9431 S   0  0  0  0  0  0  0  0  0  0  0  0
   20.8905    9.1405   55.4955 O   0  0  0  0  0  0  0  0  0  0  0  0
   22.4030   11.0638   55.8813 O   0  0  0  0  0  0  0  0  0  0  0  0
   21.6728   10.5448   53.3996 C   0  0  0  0  0  0  0  0  0  0  0  0
   21.3553    9.7010   52.3297 C   0  0  0  0  0  0  0  0  0  0  0  0
   21.0349   10.2608   51.1266 C   0  0  0  0  0  0  0  0  0  0  0  0
   21.0217   11.6354   50.9588 C   0  0  0  0  0  0  0  0  0  0  0  0
   20.6116   12.3352   49.4146 Cl  0  0  0  0  0  0  0  0  0  0  0  0
   21.3364   12.4765   52.0182 C   0  0  0  0  0  0  0  0  0  0  0  0
   21.3077   14.2016   51.7639 Cl  0  0  0  0  0  0  0  0  0  0  0  0
   21.6624   11.9091   53.2430 C   0  0  0  0  0  0  0  0  0  0  0  0
   25.5837    8.0639   53.4132 O   0  0  0  0  0  0  0  0  0  0  0  0
   27.5872    9.3477   56.8688 C   0  0  0  0  0  0  0  0  0  0  0  0
   28.3007    8.8474   55.7693 C   0  0  0  0  0  0  0  0  0  0  0  0
   27.6301    8.4261   54.6349 C   0  0  0  0  0  0  0  0  0  0  0  0
   26.2597    8.4823   54.5457 C   0  0  0  0  0  0  0  0  0  0  0  0
   25.5846    8.9752   55.6350 C   0  0  0  0  0  0  0  0  0  0  0  0
   26.2316    9.4030   56.7818 C   0  0  0  0  0  0  0  0  0  0  0  0
   28.7024   11.0201   58.1191 O   0  0  0  0  0  0  0  0  0  0  0  0
   28.3123    9.7980   58.0469 C   0  0  0  0  0  0  0  0  0  0  0  0
   28.6139    8.9497   59.1312 N   0  0  0  0  0  0  0  0  0  0  0  0
   28.2862    7.9560   59.0479 H   0  0  0  0  0  0  0  0  0  0  0  0
   29.3230    9.3084   60.3263 C   0  0  0  0  0  0  0  0  0  0  0  0
   29.9600   10.6586   60.1446 C   0  0  0  0  0  0  0  0  0  0  0  0
   29.6943   11.4903   61.2827 N   0  0  0  0  0  0  0  0  0  0  0  0
   28.3377   11.8801   61.4621 C   0  0  0  0  0  0  0  0  0  0  0  0
   28.2343   13.3486   61.0849 C   0  0  0  0  0  0  0  0  0  0  0  0
   29.6263   13.8487   61.3464 C   0  0  0  0  0  0  0  0  0  0  0  0
   30.5285   12.6436   61.4011 C   0  0  0  0  0  0  0  0  0  0  0  0
 28 29  2  0  0  0
 29 30  1  0  0  0
 30 32  1  0  0  0
 32 33  1  0  0  0
 33 34  1  0  0  0
 34 35  1  0  0  0
 35 36  1  0  0  0
 36 37  1  0  0  0
 37 38  1  0  0  0
 29 22  1  0  0  0
 22 23  2  0  0  0
 23 24  1  0  0  0
 24 25  2  0  0  0
 25 21  1  0  0  0
 21  1  1  0  0  0
  1  2  2  0  0  0
  2  3  1  0  0  0
  3  4  2  0  0  0
  4  5  1  0  0  0
  4  6  1  0  0  0
  6  7  2  0  0  0
  7  8  1  0  0  0
  8 10  1  0  0  0
 10 11  2  0  0  0
 10 12  2  0  0  0
 10 13  1  0  0  0
 13 14  2  0  0  0
 14 15  1  0  0  0
 15 16  2  0  0  0
 16 17  1  0  0  0
 16 18  1  0  0  0
 18 19  1  0  0  0
 18 20  2  0  0  0
 25 26  1  0  0  0
 26 27  2  0  0  0
 38 34  1  0  0  0
 27 22  1  0  0  0
  7  1  1  0  0  0
 20 13  1  0  0  0
 30 31  1  0  0  0
  8  9  1  0  0  0
M  END
> <minimizedAffinity>
10.97919

> <CNNscore>
0.5114046335

> <CNNaffinity>
7.1521773338

> <CNN_VS>
3.6576566696

> <CNNaffinity_variance>
0.1779319048

$$$$
[H]c1nc(Oc2c([H])c([H])c(C(=O)N([H])C([H])([H])C([H])([H])N3C([H])([H])C([H])([H])C([H])([H])C3([H])[H])c([H])c2[H])c(N([H])S(=O)(=O)c2c([H])c([H])c(Cl)c(Cl)c2[H])c([H])c1Cl


 38 41  0  0  0  0  0  0  0  0999 V2000
   26.9752    8.9222   56.2013 C   0  0  0  0  0  0  0  0  0  0  0  0
   28.1978    9.1134   55.6737 N   0  0  0  0  0  0  0  0  0  0  0  0
   28.4034    9.0831   54.3538 C   0  0  0  0  0  0  0  0  0  0  0  0
   27.3472    8.8532   53.5275 C   0  0  0  0  0  0  0  0  0  0  0  0
   27.6281    8.8150   51.7953 Cl  0  0  0  0  0  0  0  0  0  0  0  0
   26.0634    8.6514   54.0564 C   0  0  0  0  0  0  0  0  0  0  0  0
   25.8729    8.6857   55.4160 C   0  0  0  0  0  0  0  0  0  0  0  0
   24.6153    8.5172   56.0396 N   0  0  0  0  0  0  0  0  0  0  0  0
   24.4627    7.7446   56.7528 H   0  0  0  0  0  0  0  0  0  0  0  0
   23.3187    9.5676   55.6451 S   0  0  0  0  0  0  0  0  0  0  0  0
   22.4001    9.6740   56.8555 O   0  0  0  0  0  0  0  0  0  0  0  0
   23.9199   10.9435   55.3675 O   0  0  0  0  0  0  0  0  0  0  0  0
   22.3799    9.0991   54.2776 C   0  0  0  0  0  0  0  0  0  0  0  0
   22.1245    9.9995   53.2376 C   0  0  0  0  0  0  0  0  0  0  0  0
   21.3729    9.5803   52.1779 C   0  0  0  0  0  0  0  0  0  0  0  0
   20.8690    8.2915   52.1246 C   0  0  0  0  0  0  0  0  0  0  0  0
   19.9090    7.7716   50.7641 Cl  0  0  0  0  0  0  0  0  0  0  0  0
   21.1200    7.3947   53.1548 C   0  0  0  0  0  0  0  0  0  0  0  0
   20.4667    5.7813   53.0478 Cl  0  0  0  0  0  0  0  0  0  0  0  0
   21.8846    7.8190   54.2337 C   0  0  0  0  0  0  0  0  0  0  0  0
   26.8420    8.9692   57.5930 O   0  0  0  0  0  0  0  0  0  0  0  0
   29.9606   10.3149   60.0562 C   0  0  0  0  0  0  0  0  0  0  0  0
   29.3038   11.1956   59.1836 C   0  0  0  0  0  0  0  0  0  0  0  0
   28.2770   10.7413   58.3752 C   0  0  0  0  0  0  0  0  0  0  0  0
   27.8692    9.4289   58.3980 C   0  0  0  0  0  0  0  0  0  0  0  0
   28.5279    8.5872   59.2599 C   0  0  0  0  0  0  0  0  0  0  0  0
   29.5582    9.0164   60.0790 C   0  0  0  0  0  0  0  0  0  0  0  0
   31.5622   10.0340   61.7764 O   0  0  0  0  0  0  0  0  0  0  0  0
   31.0285   10.8157   60.9075 C   0  0  0  0  0  0  0  0  0  0  0  0
   31.5166   12.1354   60.8275 N   0  0  0  0  0  0  0  0  0  0  0  0
   31.0637   12.7549   60.1114 H   0  0  0  0  0  0  0  0  0  0  0  0
   32.5612   12.7109   61.6259 C   0  0  0  0  0  0  0  0  0  0  0  0
   32.1055   14.0387   62.1656 C   0  0  0  0  0  0  0  0  0  0  0  0
   31.7833   14.9287   61.0878 N   0  0  0  0  0  0  0  0  0  0  0  0
   32.5028   16.1559   61.0614 C   0  0  0  0  0  0  0  0  0  0  0  0
   31.5440   17.2529   61.4935 C   0  0  0  0  0  0  0  0  0  0  0  0
   30.2079   16.6861   61.1061 C   0  0  0  0  0  0  0  0  0  0  0  0
   30.3915   15.2026   60.9208 C   0  0  0  0  0  0  0  0  0  0  0  0
 28 29  2  0  0  0
 29 30  1  0  0  0
 30 32  1  0  0  0
 32 33  1  0  0  0
 33 34  1  0  0  0
 34 35  1  0  0  0
 35 36  1  0  0  0
 36 37  1  0  0  0
 37 38  1  0  0  0
 29 22  1  0  0  0
 22 23  2  0  0  0
 23 24  1  0  0  0
 24 25  2  0  0  0
 25 21  1  0  0  0
 21  1  1  0  0  0
  1  2  2  0  0  0
  2  3  1  0  0  0
  3  4  2  0  0  0
  4  5  1  0  0  0
  4  6  1  0  0  0
  6  7  2  0  0  0
  7  8  1  0  0  0
  8 10  1  0  0  0
 10 11  2  0  0  0
 10 12  2  0  0  0
 10 13  1  0  0  0
 13 14  2  0  0  0
 14 15  1  0  0  0
 15 16  2  0  0  0
 16 17  1  0  0  0
 16 18  1  0  0  0
 18 19  1  0  0  0
 18 20  2  0  0  0
 25 26  1  0  0  0
 26 27  2  0  0  0
 38 34  1  0  0  0
 27 22  1  0  0  0
  7  1  1  0  0  0
 20 13  1  0  0  0
 30 31  1  0  0  0
  8  9  1  0  0  0
M  END
> <minimizedAffinity>
8.25906

> <CNNscore>
0.4815218747

> <CNNaffinity>
6.6993308067

> <CNN_VS>
3.2258744240

> <CNNaffinity_variance>
0.3919268250

$$$$
[H]c1nc(Oc2c([H])c([H])c(C(=O)N([H])C([H])([H])C([H])([H])N3C([H])([H])C([H])([H])C([H])([H])C3([H])[H])c([H])c2[H])c(N([H])S(=O)(=O)c2c([H])c([H])c(Cl)c(Cl)c2[H])c([H])c1Cl


 38 41  0  0  0  0  0  0  0  0999 V2000
   27.0849    8.7959   55.7562 C   0  0  0  0  0  0  0  0  0  0  0  0
   28.2775    9.2443   55.3248 N   0  0  0  0  0  0  0  0  0  0  0  0
   28.5542    9.3566   54.0224 C   0  0  0  0  0  0  0  0  0  0  0  0
   27.6028    9.0080   53.1143 C   0  0  0  0  0  0  0  0  0  0  0  0
   27.9763    9.1587   51.4059 Cl  0  0  0  0  0  0  0  0  0  0  0  0
   26.3519    8.5381   53.5422 C   0  0  0  0  0  0  0  0  0  0  0  0
   26.0874    8.4292   54.8853 C   0  0  0  0  0  0  0  0  0  0  0  0
   24.8511    7.9892   55.4115 N   0  0  0  0  0  0  0  0  0  0  0  0
   24.4581    8.4153   56.3019 H   0  0  0  0  0  0  0  0  0  0  0  0
   23.9719    6.7552   54.6086 S   0  0  0  0  0  0  0  0  0  0  0  0
   24.9465    5.9362   53.7720 O   0  0  0  0  0  0  0  0  0  0  0  0
   23.3753    5.8515   55.6852 O   0  0  0  0  0  0  0  0  0  0  0  0
   22.6939    7.3036   53.5903 C   0  0  0  0  0  0  0  0  0  0  0  0
   21.7224    6.4165   53.1140 C   0  0  0  0  0  0  0  0  0  0  0  0
   20.7325    6.9002   52.3080 C   0  0  0  0  0  0  0  0  0  0  0  0
   20.6826    8.2405   51.9632 C   0  0  0  0  0  0  0  0  0  0  0  0
   19.4119    8.8426   50.9310 Cl  0  0  0  0  0  0  0  0  0  0  0  0
   21.6450    9.1243   52.4336 C   0  0  0  0  0  0  0  0  0  0  0  0
   21.5449   10.8040   51.9753 Cl  0  0  0  0  0  0  0  0  0  0  0  0
   22.6528    8.6344   53.2539 C   0  0  0  0  0  0  0  0  0  0  0  0
   26.8725    8.7073   57.1359 O   0  0  0  0  0  0  0  0  0  0  0  0
   29.4999   10.4736   59.8891 C   0  0  0  0  0  0  0  0  0  0  0  0
   28.8627   11.2468   58.9071 C   0  0  0  0  0  0  0  0  0  0  0  0
   27.9986   10.6542   58.0037 C   0  0  0  0  0  0  0  0  0  0  0  0
   27.7369    9.3052   58.0358 C   0  0  0  0  0  0  0  0  0  0  0  0
   28.3732    8.5706   59.0057 C   0  0  0  0  0  0  0  0  0  0  0  0
   29.2422    9.1391   59.9213 C   0  0  0  0  0  0  0  0  0  0  0  0
   30.8416   10.4488   61.8392 O   0  0  0  0  0  0  0  0  0  0  0  0
   30.3944   11.1184   60.8380 C   0  0  0  0  0  0  0  0  0  0  0  0
   30.8030   12.4615   60.7142 N   0  0  0  0  0  0  0  0  0  0  0  0
   30.4231   12.9879   59.8893 H   0  0  0  0  0  0  0  0  0  0  0  0
   31.6775   13.1747   61.6010 C   0  0  0  0  0  0  0  0  0  0  0  0
   32.1054   14.4631   60.9537 C   0  0  0  0  0  0  0  0  0  0  0  0
   31.3067   15.5516   61.4383 N   0  0  0  0  0  0  0  0  0  0  0  0
   29.9785   15.6188   60.9326 C   0  0  0  0  0  0  0  0  0  0  0  0
   29.9271   16.7733   59.9457 C   0  0  0  0  0  0  0  0  0  0  0  0
   31.0233   17.6724   60.4419 C   0  0  0  0  0  0  0  0  0  0  0  0
   31.9097   16.8421   61.3330 C   0  0  0  0  0  0  0  0  0  0  0  0
 28 29  2  0  0  0
 29 30  1  0  0  0
 30 32  1  0  0  0
 32 33  1  0  0  0
 33 34  1  0  0  0
 34 35  1  0  0  0
 35 36  1  0  0  0
 36 37  1  0  0  0
 37 38  1  0  0  0
 29 22  1  0  0  0
 22 23  2  0  0  0
 23 24  1  0  0  0
 24 25  2  0  0  0
 25 21  1  0  0  0
 21  1  1  0  0  0
  1  2  2  0  0  0
  2  3  1  0  0  0
  3  4  2  0  0  0
  4  5  1  0  0  0
  4  6  1  0  0  0
  6  7  2  0  0  0
  7  8  1  0  0  0
  8 10  1  0  0  0
 10 11  2  0  0  0
 10 12  2  0  0  0
 10 13  1  0  0  0
 13 14  2  0  0  0
 14 15  1  0  0  0
 15 16  2  0  0  0
 16 17  1  0  0  0
 16 18  1  0  0  0
 18 19  1  0  0  0
 18 20  2  0  0  0
 25 26  1  0  0  0
 26 27  2  0  0  0
 38 34  1  0  0  0
 27 22  1  0  0  0
  7  1  1  0  0  0
 20 13  1  0  0  0
 30 31  1  0  0  0
  8  9  1  0  0  0
M  END
> <minimizedAffinity>
5.11038

> <CNNscore>
0.4494754970

> <CNNaffinity>
6.6642060280

> <CNN_VS>
2.9953973293

> <CNNaffinity_variance>
0.1338568777

$$$$
[H]c1nc(Oc2c([H])c([H])c(C(=O)N([H])C([H])([H])C([H])([H])N3C([H])([H])C([H])([H])C([H])([H])C3([H])[H])c([H])c2[H])c(N([H])S(=O)(=O)c2c([H])c([H])c(Cl)c(Cl)c2[H])c([H])c1Cl


 38 41  0  0  0  0  0  0  0  0999 V2000
   21.3847    8.3799   52.6646 C   0  0  0  0  0  0  0  0  0  0  0  0
   20.2974    8.2127   51.8902 N   0  0  0  0  0  0  0  0  0  0  0  0
   19.3675    7.2972   52.1769 C   0  0  0  0  0  0  0  0  0  0  0  0
   19.5285    6.5175   53.2803 C   0  0  0  0  0  0  0  0  0  0  0  0
   18.3015    5.3175   53.6478 Cl  0  0  0  0  0  0  0  0  0  0  0  0
   20.6548    6.6751   54.1021 C   0  0  0  0  0  0  0  0  0  0  0  0
   21.5998    7.6214   53.7899 C   0  0  0  0  0  0  0  0  0  0  0  0
   22.7536    7.8691   54.5684 N   0  0  0  0  0  0  0  0  0  0  0  0
   22.7469    8.6138   55.3263 H   0  0  0  0  0  0  0  0  0  0  0  0
   24.1818    6.9615   54.2917 S   0  0  0  0  0  0  0  0  0  0  0  0
   24.2379    5.8299   55.3099 O   0  0  0  0  0  0  0  0  0  0  0  0
   24.0684    6.3547   52.8951 O   0  0  0  0  0  0  0  0  0  0  0  0
   25.6525    7.8563   54.3774 C   0  0  0  0  0  0  0  0  0  0  0  0
   26.3884    8.1433   53.2227 C   0  0  0  0  0  0  0  0  0  0  0  0
   27.5483    8.8528   53.3445 C   0  0  0  0  0  0  0  0  0  0  0  0
   27.9957    9.2839   54.5822 C   0  0  0  0  0  0  0  0  0  0  0  0
   29.4808   10.1883   54.7212 Cl  0  0  0  0  0  0  0  0  0  0  0  0
   27.2683    9.0010   55.7309 C   0  0  0  0  0  0  0  0  0  0  0  0
   27.8673    9.5628   57.2693 Cl  0  0  0  0  0  0  0  0  0  0  0  0
   26.0879    8.2796   55.6092 C   0  0  0  0  0  0  0  0  0  0  0  0
   22.3127    9.3600   52.2972 O   0  0  0  0  0  0  0  0  0  0  0  0
   21.1616   13.3468   51.6777 C   0  0  0  0  0  0  0  0  0  0  0  0
   21.2721   12.8248   52.9752 C   0  0  0  0  0  0  0  0  0  0  0  0
   21.6519   11.5085   53.1683 C   0  0  0  0  0  0  0  0  0  0  0  0
   21.9309   10.6767   52.1102 C   0  0  0  0  0  0  0  0  0  0  0  0
   21.8150   11.2112   50.8508 C   0  0  0  0  0  0  0  0  0  0  0  0
   21.4369   12.5247   50.6304 C   0  0  0  0  0  0  0  0  0  0  0  0
   19.6662   15.1539   51.9969 O   0  0  0  0  0  0  0  0  0  0  0  0
   20.7740   14.7373   51.4969 C   0  0  0  0  0  0  0  0  0  0  0  0
   21.5635   15.6667   50.7903 N   0  0  0  0  0  0  0  0  0  0  0  0
   22.4627   15.3021   50.3900 H   0  0  0  0  0  0  0  0  0  0  0  0
   21.2582   17.0505   50.5634 C   0  0  0  0  0  0  0  0  0  0  0  0
   22.5290   17.8046   50.2836 C   0  0  0  0  0  0  0  0  0  0  0  0
   23.3953   17.0249   49.4474 N   0  0  0  0  0  0  0  0  0  0  0  0
   24.7318   16.8726   49.9110 C   0  0  0  0  0  0  0  0  0  0  0  0
   25.6173   17.7440   49.0359 C   0  0  0  0  0  0  0  0  0  0  0  0
   24.8380   17.8126   47.7536 C   0  0  0  0  0  0  0  0  0  0  0  0
   23.4217   17.4104   48.0723 C   0  0  0  0  0  0  0  0  0  0  0  0
 28 29  2  0  0  0
 29 30  1  0  0  0
 30 32  1  0  0  0
 32 33  1  0  0  0
 33 34  1  0  0  0
 34 35  1  0  0  0
 35 36  1  0  0  0
 36 37  1  0  0  0
 37 38  1  0  0  0
 29 22  1  0  0  0
 22 23  2  0  0  0
 23 24  1  0  0  0
 24 25  2  0  0  0
 25 21  1  0  0  0
 21  1  1  0  0  0
  1  2  2  0  0  0
  2  3  1  0  0  0
  3  4  2  0  0  0
  4  5  1  0  0  0
  4  6  1  0  0  0
  6  7  2  0  0  0
  7  8  1  0  0  0
  8 10  1  0  0  0
 10 11  2  0  0  0
 10 12  2  0  0  0
 10 13  1  0  0  0
 13 14  2  0  0  0
 14 15  1  0  0  0
 15 16  2  0  0  0
 16 17  1  0  0  0
 16 18  1  0  0  0
 18 19  1  0  0  0
 18 20  2  0  0  0
 25 26  1  0  0  0
 26 27  2  0  0  0
 38 34  1  0  0  0
 27 22  1  0  0  0
  7  1  1  0  0  0
 20 13  1  0  0  0
 30 31  1  0  0  0
  8  9  1  0  0  0
M  END
> <minimizedAffinity>
17.38157

> <CNNscore>
0.4234282076

> <CNNaffinity>
6.4579453468

> <CNN_VS>
2.7344763279

> <CNNaffinity_variance>
0.2758053541

$$$$
[H]c1c([H])c(N([H])c2nc(N([H])[H])nc(C([H])([H])Cl)n2)c([H])c([H])c1OC([H])([H])[H]


 21 22  0  0  0  0  0  0  0  0999 V2000
   23.5006    7.7467   53.2705 C   0  0  0  0  0  0  0  0  0  0  0  0
   22.5501    6.8096   53.1869 N   0  0  0  0  0  0  0  0  0  0  0  0
   21.2324    7.0205   53.1891 C   0  0  0  0  0  0  0  0  0  0  0  0
   20.2804    5.9694   53.0965 N   0  0  0  0  0  0  0  0  0  0  0  0
   20.7961    8.3093   53.2850 N   0  0  0  0  0  0  0  0  0  0  0  0
   21.7021    9.3082   53.3730 C   0  0  0  0  0  0  0  0  0  0  0  0
   23.0064    9.0266   53.3652 N   0  0  0  0  0  0  0  0  0  0  0  0
   20.5652    5.0422   52.7165 H   0  0  0  0  0  0  0  0  0  0  0  0
   19.2996    6.1218   53.4066 H   0  0  0  0  0  0  0  0  0  0  0  0
   24.8931    7.5312   53.2688 N   0  0  0  0  0  0  0  0  0  0  0  0
   25.2408    6.8630   52.5258 H   0  0  0  0  0  0  0  0  0  0  0  0
   27.4398    9.2733   56.0971 C   0  0  0  0  0  0  0  0  0  0  0  0
   27.9954    8.7418   54.9607 C   0  0  0  0  0  0  0  0  0  0  0  0
   27.1882    8.1531   53.9776 C   0  0  0  0  0  0  0  0  0  0  0  0
   25.8215    8.1010   54.1428 C   0  0  0  0  0  0  0  0  0  0  0  0
   25.2769    8.6564   55.3224 C   0  0  0  0  0  0  0  0  0  0  0  0
   26.0780    9.2322   56.2811 C   0  0  0  0  0  0  0  0  0  0  0  0
   28.2734    9.3468   58.3468 C   0  0  0  0  0  0  0  0  0  0  0  0
   28.2514    9.8453   57.0469 O   0  0  0  0  0  0  0  0  0  0  0  0
   21.2679   10.7343   53.4797 C   0  0  0  0  0  0  0  0  0  0  0  0
   21.5913   11.5615   51.9397 Cl  0  0  0  0  0  0  0  0  0  0  0  0
 18 19  1  0  0  0
 19 12  1  0  0  0
 12 13  2  0  0  0
 13 14  1  0  0  0
 14 15  2  0  0  0
 15 10  1  0  0  0
 10  1  1  0  0  0
  1  2  2  0  0  0
  2  3  1  0  0  0
  3  4  1  0  0  0
  3  5  2  0  0  0
  5  6  1  0  0  0
  6 20  1  0  0  0
 20 21  1  0  0  0
  6  7  2  0  0  0
 15 16  1  0  0  0
 16 17  2  0  0  0
 17 12  1  0  0  0
  7  1  1  0  0  0
 10 11  1  0  0  0
  4  8  1  0  0  0
  4  9  1  0  0  0
M  END
> <minimizedAffinity>
-2.78608

> <CNNscore>
0.6670261025

> <CNNaffinity>
5.5712690353

> <CNN_VS>
3.7161817551

> <CNNaffinity_variance>
0.1270118207

$$$$
[H]c1c([H])c(N([H])c2nc(N([H])[H])nc(C([H])([H])Cl)n2)c([H])c([H])c1OC([H])([H])[H]


 21 22  0  0  0  0  0  0  0  0999 V2000
   23.5365    7.5492   53.1305 C   0  0  0  0  0  0  0  0  0  0  0  0
   22.6395    6.5731   53.3082 N   0  0  0  0  0  0  0  0  0  0  0  0
   21.3208    6.6718   53.1286 C   0  0  0  0  0  0  0  0  0  0  0  0
   20.4281    5.5861   53.3382 N   0  0  0  0  0  0  0  0  0  0  0  0
   20.8235    7.8762   52.7254 N   0  0  0  0  0  0  0  0  0  0  0  0
   21.6733    8.9081   52.5263 C   0  0  0  0  0  0  0  0  0  0  0  0
   22.9822    8.7405   52.7246 N   0  0  0  0  0  0  0  0  0  0  0  0
   20.7887    4.6089   53.3363 H   0  0  0  0  0  0  0  0  0  0  0  0
   19.4151    5.7630   53.4935 H   0  0  0  0  0  0  0  0  0  0  0  0
   24.9296    7.4520   53.3181 N   0  0  0  0  0  0  0  0  0  0  0  0
   25.4306    6.8251   52.6286 H   0  0  0  0  0  0  0  0  0  0  0  0
   27.4295    9.3185   56.1086 C   0  0  0  0  0  0  0  0  0  0  0  0
   26.0765    9.3306   56.3361 C   0  0  0  0  0  0  0  0  0  0  0  0
   25.1944    8.7142   55.4379 C   0  0  0  0  0  0  0  0  0  0  0  0
   25.6789    8.0868   54.3112 C   0  0  0  0  0  0  0  0  0  0  0  0
   27.0764    8.0896   54.1026 C   0  0  0  0  0  0  0  0  0  0  0  0
   27.9335    8.6973   54.9905 C   0  0  0  0  0  0  0  0  0  0  0  0
   28.3157    9.5116   58.3309 C   0  0  0  0  0  0  0  0  0  0  0  0
   28.2745    9.9295   57.0033 O   0  0  0  0  0  0  0  0  0  0  0  0
   21.1713   10.2447   52.0845 C   0  0  0  0  0  0  0  0  0  0  0  0
   21.5378   11.4511   53.3377 Cl  0  0  0  0  0  0  0  0  0  0  0  0
 18 19  1  0  0  0
 19 12  1  0  0  0
 12 13  2  0  0  0
 13 14  1  0  0  0
 14 15  2  0  0  0
 15 10  1  0  0  0
 10  1  1  0  0  0
  1  2  2  0  0  0
  2  3  1  0  0  0
  3  4  1  0  0  0
  3  5  2  0  0  0
  5  6  1  0  0  0
  6 20  1  0  0  0
 20 21  1  0  0  0
  6  7  2  0  0  0
 15 16  1  0  0  0
 16 17  2  0  0  0
 17 12  1  0  0  0
  7  1  1  0  0  0
 10 11  1  0  0  0
  4  8  1  0  0  0
  4  9  1  0  0  0
M  END
> <minimizedAffinity>
-1.89938

> <CNNscore>
0.6614480019

> <CNNaffinity>
5.5667548180

> <CNN_VS>
3.6821188927

> <CNNaffinity_variance>
0.1209509522

$$$$
[H]c1c([H])c(N([H])c2nc(N([H])[H])nc(C([H])([H])Cl)n2)c([H])c([H])c1OC([H])([H])[H]


 21 22  0  0  0  0  0  0  0  0999 V2000
   21.4317    7.8274   54.3625 C   0  0  0  0  0  0  0  0  0  0  0  0
   20.5182    7.0044   53.8361 N   0  0  0  0  0  0  0  0  0  0  0  0
   20.6659    5.6954   53.6229 C   0  0  0  0  0  0  0  0  0  0  0  0
   19.6458    4.8836   53.0573 N   0  0  0  0  0  0  0  0  0  0  0  0
   21.8562    5.1262   53.9692 N   0  0  0  0  0  0  0  0  0  0  0  0
   22.8258    5.8990   54.5070 C   0  0  0  0  0  0  0  0  0  0  0  0
   22.6114    7.2028   54.6932 N   0  0  0  0  0  0  0  0  0  0  0  0
   18.6552    5.2054   53.0762 H   0  0  0  0  0  0  0  0  0  0  0  0
   19.8839    3.9686   52.6241 H   0  0  0  0  0  0  0  0  0  0  0  0
   21.2824    9.2098   54.5905 N   0  0  0  0  0  0  0  0  0  0  0  0
   21.0763    9.4776   55.5931 H   0  0  0  0  0  0  0  0  0  0  0  0
   21.6033   12.4489   51.9588 C   0  0  0  0  0  0  0  0  0  0  0  0
   21.5287   11.1851   51.4298 C   0  0  0  0  0  0  0  0  0  0  0  0
   21.4127   10.0654   52.2651 C   0  0  0  0  0  0  0  0  0  0  0  0
   21.3726   10.2227   53.6331 C   0  0  0  0  0  0  0  0  0  0  0  0
   21.4510   11.5354   54.1500 C   0  0  0  0  0  0  0  0  0  0  0  0
   21.5643   12.6276   53.3214 C   0  0  0  0  0  0  0  0  0  0  0  0
   22.8447   13.6856   50.3184 C   0  0  0  0  0  0  0  0  0  0  0  0
   21.7166   13.5311   51.1199 O   0  0  0  0  0  0  0  0  0  0  0  0
   24.1447    5.3166   54.9007 C   0  0  0  0  0  0  0  0  0  0  0  0
   23.9742    4.4834   56.4618 Cl  0  0  0  0  0  0  0  0  0  0  0  0
 18 19  1  0  0  0
 19 12  1  0  0  0
 12 13  2  0  0  0
 13 14  1  0  0  0
 14 15  2  0  0  0
 15 10  1  0  0  0
 10  1  1  0  0  0
  1  2  2  0  0  0
  2  3  1  0  0  0
  3  4  1  0  0  0
  3  5  2  0  0  0
  5  6  1  0  0  0
  6 20  1  0  0  0
 20 21  1  0  0  0
  6  7  2  0  0  0
 15 16  1  0  0  0
 16 17  2  0  0  0
 17 12  1  0  0  0
  7  1  1  0  0  0
 10 11  1  0  0  0
  4  8  1  0  0  0
  4  9  1  0  0  0
M  END
> <minimizedAffinity>
15.55126

> <CNNscore>
0.4144859612

> <CNNaffinity>
5.2093582153

> <CNN_VS>
2.1592059135

> <CNNaffinity_variance>
0.1914077550

$$$$
[H]c1c([H])c(N([H])c2nc(N([H])[H])nc(C([H])([H])Cl)n2)c([H])c([H])c1OC([H])([H])[H]


 21 22  0  0  0  0  0  0  0  0999 V2000
   22.7908    7.5665   53.8355 C   0  0  0  0  0  0  0  0  0  0  0  0
   22.9409    6.2410   53.7377 N   0  0  0  0  0  0  0  0  0  0  0  0
   24.0777    5.5618   53.9027 C   0  0  0  0  0  0  0  0  0  0  0  0
   24.1588    4.1482   53.7824 N   0  0  0  0  0  0  0  0  0  0  0  0
   25.2038    6.2719   54.1999 N   0  0  0  0  0  0  0  0  0  0  0  0
   25.1257    7.6163   54.3141 C   0  0  0  0  0  0  0  0  0  0  0  0
   23.9556    8.2327   54.1363 N   0  0  0  0  0  0  0  0  0  0  0  0
   23.2973    3.5689   53.8689 H   0  0  0  0  0  0  0  0  0  0  0  0
   25.0753    3.6887   53.6083 H   0  0  0  0  0  0  0  0  0  0  0  0
   21.5940    8.2898   53.6627 N   0  0  0  0  0  0  0  0  0  0  0  0
   20.7090    7.7393   53.8446 H   0  0  0  0  0  0  0  0  0  0  0  0
   21.1933   12.1950   52.2103 C   0  0  0  0  0  0  0  0  0  0  0  0
   21.3338   12.0148   53.5632 C   0  0  0  0  0  0  0  0  0  0  0  0
   21.4791   10.7291   54.1024 C   0  0  0  0  0  0  0  0  0  0  0  0
   21.4818    9.6271   53.2757 C   0  0  0  0  0  0  0  0  0  0  0  0
   21.3357    9.8425   51.8869 C   0  0  0  0  0  0  0  0  0  0  0  0
   21.1940   11.1086   51.3679 C   0  0  0  0  0  0  0  0  0  0  0  0
   21.0189   13.6754   50.3289 C   0  0  0  0  0  0  0  0  0  0  0  0
   21.0524   13.4649   51.7049 O   0  0  0  0  0  0  0  0  0  0  0  0
   26.3346    8.4329   54.6385 C   0  0  0  0  0  0  0  0  0  0  0  0
   27.7893    7.5652   54.0989 Cl  0  0  0  0  0  0  0  0  0  0  0  0
 18 19  1  0  0  0
 19 12  1  0  0  0
 12 13  2  0  0  0
 13 14  1  0  0  0
 14 15  2  0  0  0
 15 10  1  0  0  0
 10  1  1  0  0  0
  1  2  2  0  0  0
  2  3  1  0  0  0
  3  4  1  0  0  0
  3  5  2  0  0  0
  5  6  1  0  0  0
  6 20  1  0  0  0
 20 21  1  0  0  0
  6  7  2  0  0  0
 15 16  1  0  0  0
 16 17  2  0  0  0
 17 12  1  0  0  0
  7  1  1  0  0  0
 10 11  1  0  0  0
  4  8  1  0  0  0
  4  9  1  0  0  0
M  END
> <minimizedAffinity>
10.03666

> <CNNscore>
0.4138506055

> <CNNaffinity>
5.1126413345

> <CNN_VS>
2.1158697605

> <CNNaffinity_variance>
0.1043404564

$$$$
[H]c1c([H])c(N([H])c2nc(N([H])[H])nc(C([H])([H])Cl)n2)c([H])c([H])c1OC([H])([H])[H]


 21 22  0  0  0  0  0  0  0  0999 V2000
   22.0497    7.1427   54.7078 C   0  0  0  0  0  0  0  0  0  0  0  0
   22.8463    6.7734   53.6989 N   0  0  0  0  0  0  0  0  0  0  0  0
   23.6910    5.7402   53.6987 C   0  0  0  0  0  0  0  0  0  0  0  0
   24.5081    5.4091   52.5841 N   0  0  0  0  0  0  0  0  0  0  0  0
   23.7610    4.9775   54.8273 N   0  0  0  0  0  0  0  0  0  0  0  0
   22.9835    5.2931   55.8868 C   0  0  0  0  0  0  0  0  0  0  0  0
   22.1600    6.3408   55.8196 N   0  0  0  0  0  0  0  0  0  0  0  0
   24.2594    5.7594   51.6351 H   0  0  0  0  0  0  0  0  0  0  0  0
   25.3542    4.8181   52.7117 H   0  0  0  0  0  0  0  0  0  0  0  0
   21.1558    8.2318   54.7149 N   0  0  0  0  0  0  0  0  0  0  0  0
   20.2904    8.0957   55.3081 H   0  0  0  0  0  0  0  0  0  0  0  0
   21.5485   11.6742   52.3663 C   0  0  0  0  0  0  0  0  0  0  0  0
   21.5666   11.8119   53.7313 C   0  0  0  0  0  0  0  0  0  0  0  0
   21.4464   10.6915   54.5650 C   0  0  0  0  0  0  0  0  0  0  0  0
   21.3077    9.4339   54.0200 C   0  0  0  0  0  0  0  0  0  0  0  0
   21.2927    9.3219   52.6116 C   0  0  0  0  0  0  0  0  0  0  0  0
   21.4116   10.4280   51.8023 C   0  0  0  0  0  0  0  0  0  0  0  0
   21.2628   12.7466   50.2379 C   0  0  0  0  0  0  0  0  0  0  0  0
   21.6680   12.7872   51.5694 O   0  0  0  0  0  0  0  0  0  0  0  0
   23.0286    4.4844   57.1429 C   0  0  0  0  0  0  0  0  0  0  0  0
   21.6892    4.9754   58.2036 Cl  0  0  0  0  0  0  0  0  0  0  0  0
 18 19  1  0  0  0
 19 12  1  0  0  0
 12 13  2  0  0  0
 13 14  1  0  0  0
 14 15  2  0  0  0
 15 10  1  0  0  0
 10  1  1  0  0  0
  1  2  2  0  0  0
  2  3  1  0  0  0
  3  4  1  0  0  0
  3  5  2  0  0  0
  5  6  1  0  0  0
  6 20  1  0  0  0
 20 21  1  0  0  0
  6  7  2  0  0  0
 15 16  1  0  0  0
 16 17  2  0  0  0
 17 12  1  0  0  0
  7  1  1  0  0  0
 10 11  1  0  0  0
  4  8  1  0  0  0
  4  9  1  0  0  0
M  END
> <minimizedAffinity>
10.78014

> <CNNscore>
0.3900293410

> <CNNaffinity>
5.1407480240

> <CNN_VS>
2.0050425529

> <CNNaffinity_variance>
0.1718117297

$$$$
[H]c1c([H])c(N([H])c2nc(N([H])[H])nc(C([H])([H])Cl)n2)c([H])c([H])c1OC([H])([H])[H]


 21 22  0  0  0  0  0  0  0  0999 V2000
   22.3165    6.4904   53.4495 C   0  0  0  0  0  0  0  0  0  0  0  0
   23.6394    6.5774   53.6259 N   0  0  0  0  0  0  0  0  0  0  0  0
   24.3449    7.7024   53.7584 C   0  0  0  0  0  0  0  0  0  0  0  0
   25.7539    7.7148   53.9436 N   0  0  0  0  0  0  0  0  0  0  0  0
   23.6677    8.8855   53.7118 N   0  0  0  0  0  0  0  0  0  0  0  0
   22.3277    8.8727   53.5357 C   0  0  0  0  0  0  0  0  0  0  0  0
   21.6838    7.7107   53.4099 N   0  0  0  0  0  0  0  0  0  0  0  0
   26.2402    6.8609   54.2894 H   0  0  0  0  0  0  0  0  0  0  0  0
   26.3023    8.5734   53.7352 H   0  0  0  0  0  0  0  0  0  0  0  0
   21.5654    5.3065   53.3090 N   0  0  0  0  0  0  0  0  0  0  0  0
   22.1245    4.4535   53.0273 H   0  0  0  0  0  0  0  0  0  0  0  0
   17.4872    4.5923   53.9242 C   0  0  0  0  0  0  0  0  0  0  0  0
   17.9082    5.8917   53.7938 C   0  0  0  0  0  0  0  0  0  0  0  0
   19.2615    6.1872   53.5789 C   0  0  0  0  0  0  0  0  0  0  0  0
   20.1880    5.1710   53.4964 C   0  0  0  0  0  0  0  0  0  0  0  0
   19.7262    3.8428   53.6339 C   0  0  0  0  0  0  0  0  0  0  0  0
   18.3957    3.5636   53.8442 C   0  0  0  0  0  0  0  0  0  0  0  0
   15.5641    3.2006   53.5689 C   0  0  0  0  0  0  0  0  0  0  0  0
   16.1555    4.3273   54.1342 O   0  0  0  0  0  0  0  0  0  0  0  0
   21.5465   10.1455   53.4786 C   0  0  0  0  0  0  0  0  0  0  0  0
   21.2927   10.7512   55.1305 Cl  0  0  0  0  0  0  0  0  0  0  0  0
 18 19  1  0  0  0
 19 12  1  0  0  0
 12 13  2  0  0  0
 13 14  1  0  0  0
 14 15  2  0  0  0
 15 10  1  0  0  0
 10  1  1  0  0  0
  1  2  2  0  0  0
  2  3  1  0  0  0
  3  4  1  0  0  0
  3  5  2  0  0  0
  5  6  1  0  0  0
  6 20  1  0  0  0
 20 21  1  0  0  0
  6  7  2  0  0  0
 15 16  1  0  0  0
 16 17  2  0  0  0
 17 12  1  0  0  0
  7  1  1  0  0  0
 10 11  1  0  0  0
  4  8  1  0  0  0
  4  9  1  0  0  0
M  END
> <minimizedAffinity>
10.47569

> <CNNscore>
0.3646456301

> <CNNaffinity>
5.6111750603

> <CNN_VS>
2.0460903645

> <CNNaffinity_variance>
0.1861030012

$$$$
[H]c1c([H])c(N([H])c2nc(N([H])[H])nc(C([H])([H])Cl)n2)c([H])c([H])c1OC([H])([H])[H]


 21 22  0  0  0  0  0  0  0  0999 V2000
   23.9477    7.8254   53.1115 C   0  0  0  0  0  0  0  0  0  0  0  0
   23.1669    8.7929   52.6186 N   0  0  0  0  0  0  0  0  0  0  0  0
   21.8410    8.7408   52.4770 C   0  0  0  0  0  0  0  0  0  0  0  0
   21.0771    9.8137   51.9431 N   0  0  0  0  0  0  0  0  0  0  0  0
   21.2054    7.5988   52.8675 N   0  0  0  0  0  0  0  0  0  0  0  0
   21.9327    6.5791   53.3752 C   0  0  0  0  0  0  0  0  0  0  0  0
   23.2569    6.6979   53.4892 N   0  0  0  0  0  0  0  0  0  0  0  0
   21.4714   10.7778   51.9329 H   0  0  0  0  0  0  0  0  0  0  0  0
   20.1251    9.6405   51.5622 H   0  0  0  0  0  0  0  0  0  0  0  0
   25.3477    7.8737   53.2638 N   0  0  0  0  0  0  0  0  0  0  0  0
   25.8992    7.4732   52.4546 H   0  0  0  0  0  0  0  0  0  0  0  0
   27.7021    9.3808   56.3793 C   0  0  0  0  0  0  0  0  0  0  0  0
   26.3390    9.3778   56.5361 C   0  0  0  0  0  0  0  0  0  0  0  0
   25.5038    8.8778   55.5275 C   0  0  0  0  0  0  0  0  0  0  0  0
   26.0453    8.3820   54.3619 C   0  0  0  0  0  0  0  0  0  0  0  0
   27.4518    8.3972   54.2277 C   0  0  0  0  0  0  0  0  0  0  0  0
   28.2626    8.8899   55.2239 C   0  0  0  0  0  0  0  0  0  0  0  0
   28.4066    9.3650   58.6738 C   0  0  0  0  0  0  0  0  0  0  0  0
   28.5004    9.8760   57.3819 O   0  0  0  0  0  0  0  0  0  0  0  0
   21.2770    5.3101   53.8152 C   0  0  0  0  0  0  0  0  0  0  0  0
   19.5930    5.2933   53.2459 Cl  0  0  0  0  0  0  0  0  0  0  0  0
 18 19  1  0  0  0
 19 12  1  0  0  0
 12 13  2  0  0  0
 13 14  1  0  0  0
 14 15  2  0  0  0
 15 10  1  0  0  0
 10  1  1  0  0  0
  1  2  2  0  0  0
  2  3  1  0  0  0
  3  4  1  0  0  0
  3  5  2  0  0  0
  5  6  1  0  0  0
  6 20  1  0  0  0
 20 21  1  0  0  0
  6  7  2  0  0  0
 15 16  1  0  0  0
 16 17  2  0  0  0
 17 12  1  0  0  0
  7  1  1  0  0  0
 10 11  1  0  0  0
  4  8  1  0  0  0
  4  9  1  0  0  0
M  END
> <minimizedAffinity>
1.24127

> <CNNscore>
0.3605417311

> <CNNaffinity>
5.2029962540

> <CNN_VS>
1.8758972883

> <CNNaffinity_variance>
0.0856642276

$$$$
[H]c1c([H])c(N([H])c2nc(N([H])[H])nc(C([H])([H])Cl)n2)c([H])c([H])c1OC([H])([H])[H]


 21 22  0  0  0  0  0  0  0  0999 V2000
   24.1023    7.7897   53.1333 C   0  0  0  0  0  0  0  0  0  0  0  0
   23.3442    8.8241   52.7536 N   0  0  0  0  0  0  0  0  0  0  0  0
   22.0116    8.8422   52.6858 C   0  0  0  0  0  0  0  0  0  0  0  0
   21.2734    9.9836   52.2715 N   0  0  0  0  0  0  0  0  0  0  0  0
   21.3429    7.7053   53.0337 N   0  0  0  0  0  0  0  0  0  0  0  0
   22.0458    6.6203   53.4277 C   0  0  0  0  0  0  0  0  0  0  0  0
   23.3785    6.6707   53.4726 N   0  0  0  0  0  0  0  0  0  0  0  0
   21.7135   10.9272   52.3041 H   0  0  0  0  0  0  0  0  0  0  0  0
   20.2946    9.8811   51.9354 H   0  0  0  0  0  0  0  0  0  0  0  0
   25.5092    7.7637   53.2072 N   0  0  0  0  0  0  0  0  0  0  0  0
   25.9896    7.2699   52.4042 H   0  0  0  0  0  0  0  0  0  0  0  0
   27.6075    9.4148   56.4307 C   0  0  0  0  0  0  0  0  0  0  0  0
   28.3224    8.9743   55.3456 C   0  0  0  0  0  0  0  0  0  0  0  0
   27.6697    8.4198   54.2359 C   0  0  0  0  0  0  0  0  0  0  0  0
   26.2965    8.3102   54.2231 C   0  0  0  0  0  0  0  0  0  0  0  0
   25.5860    8.7723   55.3537 C   0  0  0  0  0  0  0  0  0  0  0  0
   26.2364    9.3152   56.4375 C   0  0  0  0  0  0  0  0  0  0  0  0
   28.3816    9.2390   58.6959 C   0  0  0  0  0  0  0  0  0  0  0  0
   28.2695    9.9548   57.5069 O   0  0  0  0  0  0  0  0  0  0  0  0
   21.3536    5.3544   53.8174 C   0  0  0  0  0  0  0  0  0  0  0  0
   19.6572    5.4289   53.2913 Cl  0  0  0  0  0  0  0  0  0  0  0  0
 18 19  1  0  0  0
 19 12  1  0  0  0
 12 13  2  0  0  0
 13 14  1  0  0  0
 14 15  2  0  0  0
 15 10  1  0  0  0
 10  1  1  0  0  0
  1  2  2  0  0  0
  2  3  1  0  0  0
  3  4  1  0  0  0
  3  5  2  0  0  0
  5  6  1  0  0  0
  6 20  1  0  0  0
 20 21  1  0  0  0
  6  7  2  0  0  0
 15 16  1  0  0  0
 16 17  2  0  0  0
 17 12  1  0  0  0
  7  1  1  0  0  0
 10 11  1  0  0  0
  4  8  1  0  0  0
  4  9  1  0  0  0
M  END
> <minimizedAffinity>
0.43393

> <CNNscore>
0.3366799355

> <CNNaffinity>
5.1582784653

> <CNN_VS>
1.7366888523

> <CNNaffinity_variance>
0.0723657608

$$$$
[H]c1c([H])c(N([H])c2nc(N([H])[H])nc(C([H])([H])Cl)n2)c([H])c([H])c1OC([H])([H])[H]


 21 22  0  0  0  0  0  0  0  0999 V2000
   21.6854    7.7379   53.8682 C   0  0  0  0  0  0  0  0  0  0  0  0
   22.0109    6.4454   53.7565 N   0  0  0  0  0  0  0  0  0  0  0  0
   21.1810    5.4472   53.4472 C   0  0  0  0  0  0  0  0  0  0  0  0
   21.6024    4.0937   53.3468 N   0  0  0  0  0  0  0  0  0  0  0  0
   19.8722    5.7571   53.2201 N   0  0  0  0  0  0  0  0  0  0  0  0
   19.4724    7.0445   53.3157 C   0  0  0  0  0  0  0  0  0  0  0  0
   20.3556    7.9944   53.6294 N   0  0  0  0  0  0  0  0  0  0  0  0
   22.6104    3.8723   53.2051 H   0  0  0  0  0  0  0  0  0  0  0  0
   20.9083    3.3222   53.4142 H   0  0  0  0  0  0  0  0  0  0  0  0
   22.5561    8.7967   54.1942 N   0  0  0  0  0  0  0  0  0  0  0  0
   22.0878    9.7366   54.3230 H   0  0  0  0  0  0  0  0  0  0  0  0
   26.7267    8.4761   54.3477 C   0  0  0  0  0  0  0  0  0  0  0  0
   26.0691    8.9511   55.4543 C   0  0  0  0  0  0  0  0  0  0  0  0
   24.6725    9.0717   55.4598 C   0  0  0  0  0  0  0  0  0  0  0  0
   23.9417    8.7134   54.3483 C   0  0  0  0  0  0  0  0  0  0  0  0
   24.6451    8.2272   53.2235 C   0  0  0  0  0  0  0  0  0  0  0  0
   26.0159    8.1124   53.2286 C   0  0  0  0  0  0  0  0  0  0  0  0
   28.8273    8.8566   55.4451 C   0  0  0  0  0  0  0  0  0  0  0  0
   28.0962    8.3667   54.3660 O   0  0  0  0  0  0  0  0  0  0  0  0
   18.0482    7.4283   53.0750 C   0  0  0  0  0  0  0  0  0  0  0  0
   16.9817    6.2515   53.8736 Cl  0  0  0  0  0  0  0  0  0  0  0  0
 18 19  1  0  0  0
 19 12  1  0  0  0
 12 13  2  0  0  0
 13 14  1  0  0  0
 14 15  2  0  0  0
 15 10  1  0  0  0
 10  1  1  0  0  0
  1  2  2  0  0  0
  2  3  1  0  0  0
  3  4  1  0  0  0
  3  5  2  0  0  0
  5  6  1  0  0  0
  6 20  1  0  0  0
 20 21  1  0  0  0
  6  7  2  0  0  0
 15 16  1  0  0  0
 16 17  2  0  0  0
 17 12  1  0  0  0
  7  1  1  0  0  0
 10 11  1  0  0  0
  4  8  1  0  0  0
  4  9  1  0  0  0
M  END
> <minimizedAffinity>
15.39017

> <CNNscore>
0.3338096142

> <CNNaffinity>
5.2144217491

> <CNN_VS>
1.7406240702

> <CNNaffinity_variance>
0.6601413488

$$$$
[H]c1nc2sc3c(=O)n(C4([H])C([H])([H])C([H])([H])C([H])([H])C([H])([H])C4([H])[H])c([H])nc3c2c(N(C([H])([H])[H])C([H])([H])[H])c1[H]


 23 26  0  0  0  0  0  0  0  0999 V2000
   21.7850    8.7458   53.6406 C   0  0  0  0  0  0  0  0  0  0  0  0
   21.0323    8.2255   52.6072 C   0  0  0  0  0  0  0  0  0  0  0  0
   21.5031    7.3520   51.6543 C   0  0  0  0  0  0  0  0  0  0  0  0
   22.7965    7.0116   51.7831 N   0  0  0  0  0  0  0  0  0  0  0  0
   23.5901    7.4993   52.7900 C   0  0  0  0  0  0  0  0  0  0  0  0
   25.2300    7.2684   53.2016 S   0  0  0  0  0  0  0  0  0  0  0  0
   25.3153    8.2762   54.5726 C   0  0  0  0  0  0  0  0  0  0  0  0
   26.3273    8.6383   55.4829 C   0  0  0  0  0  0  0  0  0  0  0  0
   27.4365    8.1114   55.2721 O   0  0  0  0  0  0  0  0  0  0  0  0
   26.0902    9.4882   56.4926 N   0  0  0  0  0  0  0  0  0  0  0  0
   24.8394    9.9661   56.5782 C   0  0  0  0  0  0  0  0  0  0  0  0
   23.8733    9.6355   55.7294 N   0  0  0  0  0  0  0  0  0  0  0  0
   24.0464    8.7729   54.6764 C   0  0  0  0  0  0  0  0  0  0  0  0
   23.1437    8.3691   53.7482 C   0  0  0  0  0  0  0  0  0  0  0  0
   27.1522    9.8336   57.4025 C   0  0  0  0  0  0  0  0  0  0  0  0
   27.8822    8.6203   57.9228 C   0  0  0  0  0  0  0  0  0  0  0  0
   28.8726    9.0844   58.9510 C   0  0  0  0  0  0  0  0  0  0  0  0
   28.9817   10.5606   59.0814 C   0  0  0  0  0  0  0  0  0  0  0  0
   29.0484   11.3075   57.7874 C   0  0  0  0  0  0  0  0  0  0  0  0
   28.2211   10.6753   56.6921 C   0  0  0  0  0  0  0  0  0  0  0  0
   21.1509   11.0536   54.5045 C   0  0  0  0  0  0  0  0  0  0  0  0
   21.1341    9.6074   54.5567 N   0  0  0  0  0  0  0  0  0  0  0  0
   20.3896    8.9854   55.6353 C   0  0  0  0  0  0  0  0  0  0  0  0
 21 22  1  0  0  0
 22 23  1  0  0  0
 22  1  1  0  0  0
  1  2  2  0  0  0
  2  3  1  0  0  0
  3  4  2  0  0  0
  4  5  1  0  0  0
  5  6  1  0  0  0
  6  7  1  0  0  0
  7  8  1  0  0  0
  8  9  2  0  0  0
  8 10  1  0  0  0
 10 15  1  0  0  0
 15 16  1  0  0  0
 16 17  1  0  0  0
 17 18  1  0  0  0
 18 19  1  0  0  0
 19 20  1  0  0  0
 10 11  1  0  0  0
 11 12  2  0  0  0
 12 13  1  0  0  0
 13 14  1  0  0  0
 14  1  1  0  0  0
 14  5  2  0  0  0
 13  7  2  0  0  0
 20 15  1  0  0  0
M  END
> <minimizedAffinity>
17.05301

> <CNNscore>
0.6968607306

> <CNNaffinity>
6.0635080338

> <CNN_VS>
4.2254204750

> <CNNaffinity_variance>
0.1857417375

$$$$
[H]c1nc2sc3c(=O)n(C4([H])C([H])([H])C([H])([H])C([H])([H])C([H])([H])C4([H])[H])c([H])nc3c2c(N(C([H])([H])[H])C([H])([H])[H])c1[H]


 23 26  0  0  0  0  0  0  0  0999 V2000
   21.6522    8.9384   53.5266 C   0  0  0  0  0  0  0  0  0  0  0  0
   20.7891    8.4143   52.5854 C   0  0  0  0  0  0  0  0  0  0  0  0
   21.0822    7.3608   51.7507 C   0  0  0  0  0  0  0  0  0  0  0  0
   22.3111    6.8391   51.9020 N   0  0  0  0  0  0  0  0  0  0  0  0
   23.2084    7.3212   52.8205 C   0  0  0  0  0  0  0  0  0  0  0  0
   24.8071    6.8884   53.2313 S   0  0  0  0  0  0  0  0  0  0  0  0
   25.0997    8.0393   54.4529 C   0  0  0  0  0  0  0  0  0  0  0  0
   26.1896    8.3514   55.2888 C   0  0  0  0  0  0  0  0  0  0  0  0
   27.1948    7.6322   55.1318 O   0  0  0  0  0  0  0  0  0  0  0  0
   26.1257    9.3522   56.1791 N   0  0  0  0  0  0  0  0  0  0  0  0
   24.9684   10.0296   56.2211 C   0  0  0  0  0  0  0  0  0  0  0  0
   23.9311    9.7491   55.4410 N   0  0  0  0  0  0  0  0  0  0  0  0
   23.9282    8.7405   54.5106 C   0  0  0  0  0  0  0  0  0  0  0  0
   22.9391    8.3679   53.6606 C   0  0  0  0  0  0  0  0  0  0  0  0
   27.2623    9.6398   57.0161 C   0  0  0  0  0  0  0  0  0  0  0  0
   27.3491   11.0992   57.3881 C   0  0  0  0  0  0  0  0  0  0  0  0
   28.6285   11.3062   58.1455 C   0  0  0  0  0  0  0  0  0  0  0  0
   29.3747   10.0578   58.4505 C   0  0  0  0  0  0  0  0  0  0  0  0
   28.5377    8.9284   58.9611 C   0  0  0  0  0  0  0  0  0  0  0  0
   27.1564    8.8877   58.3498 C   0  0  0  0  0  0  0  0  0  0  0  0
   20.6202    9.8688   55.6582 C   0  0  0  0  0  0  0  0  0  0  0  0
   21.1781   10.0041   54.3296 N   0  0  0  0  0  0  0  0  0  0  0  0
   21.2600   11.3404   53.7712 C   0  0  0  0  0  0  0  0  0  0  0  0
 21 22  1  0  0  0
 22 23  1  0  0  0
 22  1  1  0  0  0
  1  2  2  0  0  0
  2  3  1  0  0  0
  3  4  2  0  0  0
  4  5  1  0  0  0
  5  6  1  0  0  0
  6  7  1  0  0  0
  7  8  1  0  0  0
  8  9  2  0  0  0
  8 10  1  0  0  0
 10 15  1  0  0  0
 15 16  1  0  0  0
 16 17  1  0  0  0
 17 18  1  0  0  0
 18 19  1  0  0  0
 19 20  1  0  0  0
 10 11  1  0  0  0
 11 12  2  0  0  0
 12 13  1  0  0  0
 13 14  1  0  0  0
 14  1  1  0  0  0
 14  5  2  0  0  0
 13  7  2  0  0  0
 20 15  1  0  0  0
M  END
> <minimizedAffinity>
16.13131

> <CNNscore>
0.6549524069

> <CNNaffinity>
6.0642476082

> <CNN_VS>
3.9717936516

> <CNNaffinity_variance>
0.1498999298

$$$$
[H]c1nc2sc3c(=O)n(C4([H])C([H])([H])C([H])([H])C([H])([H])C([H])([H])C4([H])[H])c([H])nc3c2c(N(C([H])([H])[H])C([H])([H])[H])c1[H]


 23 26  0  0  0  0  0  0  0  0999 V2000
   22.5405    6.9987   53.0702 C   0  0  0  0  0  0  0  0  0  0  0  0
   21.3856    6.8897   52.3221 C   0  0  0  0  0  0  0  0  0  0  0  0
   20.4215    7.8655   52.2181 C   0  0  0  0  0  0  0  0  0  0  0  0
   20.6692    8.9874   52.9148 N   0  0  0  0  0  0  0  0  0  0  0  0
   21.7997    9.1485   53.6747 C   0  0  0  0  0  0  0  0  0  0  0  0
   22.3768   10.4193   54.6565 S   0  0  0  0  0  0  0  0  0  0  0  0
   23.8307    9.7135   55.1955 C   0  0  0  0  0  0  0  0  0  0  0  0
   24.8800   10.1160   56.0446 C   0  0  0  0  0  0  0  0  0  0  0  0
   24.7541   11.2561   56.5311 O   0  0  0  0  0  0  0  0  0  0  0  0
   25.9254    9.3144   56.2950 N   0  0  0  0  0  0  0  0  0  0  0  0
   25.9068    8.1168   55.6905 C   0  0  0  0  0  0  0  0  0  0  0  0
   24.9263    7.7211   54.8872 N   0  0  0  0  0  0  0  0  0  0  0  0
   23.8296    8.4895   54.5879 C   0  0  0  0  0  0  0  0  0  0  0  0
   22.7715    8.1918   53.7932 C   0  0  0  0  0  0  0  0  0  0  0  0
   26.9787    9.7630   57.1694 C   0  0  0  0  0  0  0  0  0  0  0  0
   27.6350    8.6254   57.9115 C   0  0  0  0  0  0  0  0  0  0  0  0
   28.6194    9.2142   58.8798 C   0  0  0  0  0  0  0  0  0  0  0  0
   28.7965   10.6850   58.7631 C   0  0  0  0  0  0  0  0  0  0  0  0
   28.9333   11.1973   57.3647 C   0  0  0  0  0  0  0  0  0  0  0  0
   28.1054   10.4246   56.3642 C   0  0  0  0  0  0  0  0  0  0  0  0
   24.3613    5.6112   51.9596 C   0  0  0  0  0  0  0  0  0  0  0  0
   23.4464    5.9107   53.0402 N   0  0  0  0  0  0  0  0  0  0  0  0
   23.4552    5.0254   54.1893 C   0  0  0  0  0  0  0  0  0  0  0  0
 21 22  1  0  0  0
 22 23  1  0  0  0
 22  1  1  0  0  0
  1  2  2  0  0  0
  2  3  1  0  0  0
  3  4  2  0  0  0
  4  5  1  0  0  0
  5  6  1  0  0  0
  6  7  1  0  0  0
  7  8  1  0  0  0
  8  9  2  0  0  0
  8 10  1  0  0  0
 10 15  1  0  0  0
 15 16  1  0  0  0
 16 17  1  0  0  0
 17 18  1  0  0  0
 18 19  1  0  0  0
 19 20  1  0  0  0
 10 11  1  0  0  0
 11 12  2  0  0  0
 12 13  1  0  0  0
 13 14  1  0  0  0
 14  1  1  0  0  0
 14  5  2  0  0  0
 13  7  2  0  0  0
 20 15  1  0  0  0
M  END
> <minimizedAffinity>
23.69829

> <CNNscore>
0.5906106234

> <CNNaffinity>
5.9855184555

> <CNN_VS>
3.5351107121

> <CNNaffinity_variance>
0.2676472068

$$$$
[H]c1nc2sc3c(=O)n(C4([H])C([H])([H])C([H])([H])C([H])([H])C([H])([H])C4([H])[H])c([H])nc3c2c(N(C([H])([H])[H])C([H])([H])[H])c1[H]


 23 26  0  0  0  0  0  0  0  0999 V2000
   20.6784    8.4663   53.7508 C   0  0  0  0  0  0  0  0  0  0  0  0
   19.5382    7.9742   53.1482 C   0  0  0  0  0  0  0  0  0  0  0  0
   19.4419    6.7484   52.5313 C   0  0  0  0  0  0  0  0  0  0  0  0
   20.5674    6.0147   52.5432 N   0  0  0  0  0  0  0  0  0  0  0  0
   21.7280    6.4551   53.1268 C   0  0  0  0  0  0  0  0  0  0  0  0
   23.2848    5.7758   53.2907 S   0  0  0  0  0  0  0  0  0  0  0  0
   24.0511    7.0417   54.1349 C   0  0  0  0  0  0  0  0  0  0  0  0
   25.3475    7.2630   54.6391 C   0  0  0  0  0  0  0  0  0  0  0  0
   26.1518    6.3308   54.4474 O   0  0  0  0  0  0  0  0  0  0  0  0
   25.6678    8.3997   55.2742 N   0  0  0  0  0  0  0  0  0  0  0  0
   24.6833    9.3029   55.3967 C   0  0  0  0  0  0  0  0  0  0  0  0
   23.4559    9.1110   54.9279 N   0  0  0  0  0  0  0  0  0  0  0  0
   23.0607    7.9736   54.2700 C   0  0  0  0  0  0  0  0  0  0  0  0
   21.8472    7.6703   53.7455 C   0  0  0  0  0  0  0  0  0  0  0  0
   27.0052    8.5877   55.7754 C   0  0  0  0  0  0  0  0  0  0  0  0
   27.9998    8.8609   54.6745 C   0  0  0  0  0  0  0  0  0  0  0  0
   29.3674    8.9114   55.2914 C   0  0  0  0  0  0  0  0  0  0  0  0
   29.3791    8.8318   56.7752 C   0  0  0  0  0  0  0  0  0  0  0  0
   28.3659    9.6900   57.4634 C   0  0  0  0  0  0  0  0  0  0  0  0
   27.0712    9.8153   56.6943 C   0  0  0  0  0  0  0  0  0  0  0  0
   20.9923   10.9912   53.7693 C   0  0  0  0  0  0  0  0  0  0  0  0
   20.5960    9.7363   54.3717 N   0  0  0  0  0  0  0  0  0  0  0  0
   20.0703    9.7792   55.7230 C   0  0  0  0  0  0  0  0  0  0  0  0
 21 22  1  0  0  0
 22 23  1  0  0  0
 22  1  1  0  0  0
  1  2  2  0  0  0
  2  3  1  0  0  0
  3  4  2  0  0  0
  4  5  1  0  0  0
  5  6  1  0  0  0
  6  7  1  0  0  0
  7  8  1  0  0  0
  8  9  2  0  0  0
  8 10  1  0  0  0
 10 15  1  0  0  0
 15 16  1  0  0  0
 16 17  1  0  0  0
 17 18  1  0  0  0
 18 19  1  0  0  0
 19 20  1  0  0  0
 10 11  1  0  0  0
 11 12  2  0  0  0
 12 13  1  0  0  0
 13 14  1  0  0  0
 14  1  1  0  0  0
 14  5  2  0  0  0
 13  7  2  0  0  0
 20 15  1  0  0  0
M  END
> <minimizedAffinity>
21.92397

> <CNNscore>
0.5562755466

> <CNNaffinity>
6.0320487022

> <CNN_VS>
3.3554811478

> <CNNaffinity_variance>
0.2564670146

$$$$
[H]c1nc2sc3c(=O)n(C4([H])C([H])([H])C([H])([H])C([H])([H])C([H])([H])C4([H])[H])c([H])nc3c2c(N(C([H])([H])[H])C([H])([H])[H])c1[H]


 23 26  0  0  0  0  0  0  0  0999 V2000
   20.7314    7.6154   52.7122 C   0  0  0  0  0  0  0  0  0  0  0  0
   19.5568    6.9084   52.5515 C   0  0  0  0  0  0  0  0  0  0  0  0
   19.3305    5.6402   53.0341 C   0  0  0  0  0  0  0  0  0  0  0  0
   20.3593    5.0936   53.7037 N   0  0  0  0  0  0  0  0  0  0  0  0
   21.5484    5.7509   53.8920 C   0  0  0  0  0  0  0  0  0  0  0  0
   23.0075    5.3276   54.6689 S   0  0  0  0  0  0  0  0  0  0  0  0
   23.8975    6.7513   54.3799 C   0  0  0  0  0  0  0  0  0  0  0  0
   25.1973    7.1956   54.6915 C   0  0  0  0  0  0  0  0  0  0  0  0
   25.8887    6.3850   55.3373 O   0  0  0  0  0  0  0  0  0  0  0  0
   25.6346    8.4047   54.3106 N   0  0  0  0  0  0  0  0  0  0  0  0
   24.7626    9.1555   53.6207 C   0  0  0  0  0  0  0  0  0  0  0  0
   23.5339    8.7529   53.3184 N   0  0  0  0  0  0  0  0  0  0  0  0
   23.0228    7.5309   53.6765 C   0  0  0  0  0  0  0  0  0  0  0  0
   21.7959    7.0120   53.4208 C   0  0  0  0  0  0  0  0  0  0  0  0
   26.9711    8.8222   54.6490 C   0  0  0  0  0  0  0  0  0  0  0  0
   27.1318    9.1002   56.1230 C   0  0  0  0  0  0  0  0  0  0  0  0
   28.5128    9.6468   56.3408 C   0  0  0  0  0  0  0  0  0  0  0  0
   29.3788    9.6364   55.1332 C   0  0  0  0  0  0  0  0  0  0  0  0
   29.3407    8.3707   54.3375 C   0  0  0  0  0  0  0  0  0  0  0  0
   27.9814    7.7105   54.3343 C   0  0  0  0  0  0  0  0  0  0  0  0
   20.5229    9.2841   50.8027 C   0  0  0  0  0  0  0  0  0  0  0  0
   20.7854    8.9267   52.1804 N   0  0  0  0  0  0  0  0  0  0  0  0
   21.1328    9.9977   53.0951 C   0  0  0  0  0  0  0  0  0  0  0  0
 21 22  1  0  0  0
 22 23  1  0  0  0
 22  1  1  0  0  0
  1  2  2  0  0  0
  2  3  1  0  0  0
  3  4  2  0  0  0
  4  5  1  0  0  0
  5  6  1  0  0  0
  6  7  1  0  0  0
  7  8  1  0  0  0
  8  9  2  0  0  0
  8 10  1  0  0  0
 10 15  1  0  0  0
 15 16  1  0  0  0
 16 17  1  0  0  0
 17 18  1  0  0  0
 18 19  1  0  0  0
 19 20  1  0  0  0
 10 11  1  0  0  0
 11 12  2  0  0  0
 12 13  1  0  0  0
 13 14  1  0  0  0
 14  1  1  0  0  0
 14  5  2  0  0  0
 13  7  2  0  0  0
 20 15  1  0  0  0
M  END
> <minimizedAffinity>
20.06366

> <CNNscore>
0.5243905783

> <CNNaffinity>
6.1729078293

> <CNN_VS>
3.2370147705

> <CNNaffinity_variance>
0.2483956516

$$$$
[H]c1nc2sc3c(=O)n(C4([H])C([H])([H])C([H])([H])C([H])([H])C([H])([H])C4([H])[H])c([H])nc3c2c(N(C([H])([H])[H])C([H])([H])[H])c1[H]


 23 26  0  0  0  0  0  0  0  0999 V2000
   21.0712    7.2961   52.8449 C   0  0  0  0  0  0  0  0  0  0  0  0
   19.7045    7.1046   52.8156 C   0  0  0  0  0  0  0  0  0  0  0  0
   18.8291    7.5396   53.7835 C   0  0  0  0  0  0  0  0  0  0  0  0
   19.3956    8.1932   54.8117 N   0  0  0  0  0  0  0  0  0  0  0  0
   20.7476    8.4105   54.8916 C   0  0  0  0  0  0  0  0  0  0  0  0
   21.7418    9.1778   56.0469 S   0  0  0  0  0  0  0  0  0  0  0  0
   23.2577    8.9447   55.3051 C   0  0  0  0  0  0  0  0  0  0  0  0
   24.5877    9.2779   55.6276 C   0  0  0  0  0  0  0  0  0  0  0  0
   24.7290    9.8967   56.6998 O   0  0  0  0  0  0  0  0  0  0  0  0
   25.6083    8.9433   54.8248 N   0  0  0  0  0  0  0  0  0  0  0  0
   25.2834    8.2775   53.7063 C   0  0  0  0  0  0  0  0  0  0  0  0
   24.0356    7.9555   53.3864 N   0  0  0  0  0  0  0  0  0  0  0  0
   22.9461    8.2665   54.1604 C   0  0  0  0  0  0  0  0  0  0  0  0
   21.6371    7.9868   53.9413 C   0  0  0  0  0  0  0  0  0  0  0  0
   26.9546    9.3025   55.1903 C   0  0  0  0  0  0  0  0  0  0  0  0
   27.2028    9.1740   56.6727 C   0  0  0  0  0  0  0  0  0  0  0  0
   28.5832    9.6919   56.9553 C   0  0  0  0  0  0  0  0  0  0  0  0
   29.3707   10.0436   55.7452 C   0  0  0  0  0  0  0  0  0  0  0  0
   29.3086    9.0422   54.6361 C   0  0  0  0  0  0  0  0  0  0  0  0
   27.9659    8.3575   54.5271 C   0  0  0  0  0  0  0  0  0  0  0  0
   22.9278    5.8798   51.8341 C   0  0  0  0  0  0  0  0  0  0  0  0
   21.8247    6.8127   51.7476 N   0  0  0  0  0  0  0  0  0  0  0  0
   21.4575    7.2945   50.4295 C   0  0  0  0  0  0  0  0  0  0  0  0
 21 22  1  0  0  0
 22 23  1  0  0  0
 22  1  1  0  0  0
  1  2  2  0  0  0
  2  3  1  0  0  0
  3  4  2  0  0  0
  4  5  1  0  0  0
  5  6  1  0  0  0
  6  7  1  0  0  0
  7  8  1  0  0  0
  8  9  2  0  0  0
  8 10  1  0  0  0
 10 15  1  0  0  0
 15 16  1  0  0  0
 16 17  1  0  0  0
 17 18  1  0  0  0
 18 19  1  0  0  0
 19 20  1  0  0  0
 10 11  1  0  0  0
 11 12  2  0  0  0
 12 13  1  0  0  0
 13 14  1  0  0  0
 14  1  1  0  0  0
 14  5  2  0  0  0
 13  7  2  0  0  0
 20 15  1  0  0  0
M  END
> <minimizedAffinity>
29.64379

> <CNNscore>
0.4902319908

> <CNNaffinity>
5.8477139473

> <CNN_VS>
2.8667364120

> <CNNaffinity_variance>
0.3378385603

$$$$
[H]c1nc2sc3c(=O)n(C4([H])C([H])([H])C([H])([H])C([H])([H])C([H])([H])C4([H])[H])c([H])nc3c2c(N(C([H])([H])[H])C([H])([H])[H])c1[H]


 23 26  0  0  0  0  0  0  0  0999 V2000
   21.1064    9.1892   52.4443 C   0  0  0  0  0  0  0  0  0  0  0  0
   19.9668    8.8000   51.7695 C   0  0  0  0  0  0  0  0  0  0  0  0
   19.6015    7.4953   51.5314 C   0  0  0  0  0  0  0  0  0  0  0  0
   20.4493    6.5698   52.0110 N   0  0  0  0  0  0  0  0  0  0  0  0
   21.5956    6.9007   52.6877 C   0  0  0  0  0  0  0  0  0  0  0  0
   22.8463    5.9765   53.3901 S   0  0  0  0  0  0  0  0  0  0  0  0
   23.8258    7.2398   53.9794 C   0  0  0  0  0  0  0  0  0  0  0  0
   25.0473    7.3125   54.6769 C   0  0  0  0  0  0  0  0  0  0  0  0
   25.5612    6.2113   54.9523 O   0  0  0  0  0  0  0  0  0  0  0  0
   25.5959    8.4903   55.0085 N   0  0  0  0  0  0  0  0  0  0  0  0
   24.9126    9.5833   54.6364 C   0  0  0  0  0  0  0  0  0  0  0  0
   23.7600    9.5335   53.9789 N   0  0  0  0  0  0  0  0  0  0  0  0
   23.1436    8.3646   53.6093 C   0  0  0  0  0  0  0  0  0  0  0  0
   21.9792    8.1911   52.9357 C   0  0  0  0  0  0  0  0  0  0  0  0
   26.8468    8.5221   55.7221 C   0  0  0  0  0  0  0  0  0  0  0  0
   28.0335    8.6465   54.7991 C   0  0  0  0  0  0  0  0  0  0  0  0
   29.2780    8.5407   55.6320 C   0  0  0  0  0  0  0  0  0  0  0  0
   29.0380    8.4921   57.0977 C   0  0  0  0  0  0  0  0  0  0  0  0
   28.0422    9.4836   57.6096 C   0  0  0  0  0  0  0  0  0  0  0  0
   26.9160    9.7515   56.6384 C   0  0  0  0  0  0  0  0  0  0  0  0
   21.5168   11.5455   51.5762 C   0  0  0  0  0  0  0  0  0  0  0  0
   21.3151   10.5771   52.6326 N   0  0  0  0  0  0  0  0  0  0  0  0
   21.3269   11.0649   53.9987 C   0  0  0  0  0  0  0  0  0  0  0  0
 21 22  1  0  0  0
 22 23  1  0  0  0
 22  1  1  0  0  0
  1  2  2  0  0  0
  2  3  1  0  0  0
  3  4  2  0  0  0
  4  5  1  0  0  0
  5  6  1  0  0  0
  6  7  1  0  0  0
  7  8  1  0  0  0
  8  9  2  0  0  0
  8 10  1  0  0  0
 10 15  1  0  0  0
 15 16  1  0  0  0
 16 17  1  0  0  0
 17 18  1  0  0  0
 18 19  1  0  0  0
 19 20  1  0  0  0
 10 11  1  0  0  0
 11 12  2  0  0  0
 12 13  1  0  0  0
 13 14  1  0  0  0
 14  1  1  0  0  0
 14  5  2  0  0  0
 13  7  2  0  0  0
 20 15  1  0  0  0
M  END
> <minimizedAffinity>
18.92386

> <CNNscore>
0.4898982346

> <CNNaffinity>
5.9966993332

> <CNN_VS>
2.9377725124

> <CNNaffinity_variance>
0.1178883463

$$$$
[H]c1nc2sc3c(=O)n(C4([H])C([H])([H])C([H])([H])C([H])([H])C([H])([H])C4([H])[H])c([H])nc3c2c(N(C([H])([H])[H])C([H])([H])[H])c1[H]


 23 26  0  0  0  0  0  0  0  0999 V2000
   27.9266    8.6919   55.1093 C   0  0  0  0  0  0  0  0  0  0  0  0
   28.9191    9.1120   55.9717 C   0  0  0  0  0  0  0  0  0  0  0  0
   28.7000    9.7451   57.1733 C   0  0  0  0  0  0  0  0  0  0  0  0
   27.4083    9.9457   57.4841 N   0  0  0  0  0  0  0  0  0  0  0  0
   26.3828    9.5495   56.6639 C   0  0  0  0  0  0  0  0  0  0  0  0
   24.6842    9.6706   56.7744 S   0  0  0  0  0  0  0  0  0  0  0  0
   24.2578    8.9240   55.3036 C   0  0  0  0  0  0  0  0  0  0  0  0
   23.0461    8.6360   54.6458 C   0  0  0  0  0  0  0  0  0  0  0  0
   22.0196    8.9904   55.2568 O   0  0  0  0  0  0  0  0  0  0  0  0
   23.0247    8.0254   53.4521 N   0  0  0  0  0  0  0  0  0  0  0  0
   24.2200    7.7101   52.9309 C   0  0  0  0  0  0  0  0  0  0  0  0
   25.3718    7.9737   53.5369 N   0  0  0  0  0  0  0  0  0  0  0  0
   25.4661    8.5944   54.7570 C   0  0  0  0  0  0  0  0  0  0  0  0
   26.5769    8.9188   55.4645 C   0  0  0  0  0  0  0  0  0  0  0  0
   21.7643    7.7484   52.8119 C   0  0  0  0  0  0  0  0  0  0  0  0
   20.6720    7.4318   53.8030 C   0  0  0  0  0  0  0  0  0  0  0  0
   19.4481    7.0365   53.0290 C   0  0  0  0  0  0  0  0  0  0  0  0
   19.5713    7.1927   51.5563 C   0  0  0  0  0  0  0  0  0  0  0  0
   20.1916    8.4767   51.1054 C   0  0  0  0  0  0  0  0  0  0  0  0
   21.2671    8.9787   52.0407 C   0  0  0  0  0  0  0  0  0  0  0  0
   28.9462    6.7174   53.8698 C   0  0  0  0  0  0  0  0  0  0  0  0
   28.3256    8.0237   53.9262 N   0  0  0  0  0  0  0  0  0  0  0  0
   28.0913    8.7081   52.6688 C   0  0  0  0  0  0  0  0  0  0  0  0
 21 22  1  0  0  0
 22 23  1  0  0  0
 22  1  1  0  0  0
  1  2  2  0  0  0
  2  3  1  0  0  0
  3  4  2  0  0  0
  4  5  1  0  0  0
  5  6  1  0  0  0
  6  7  1  0  0  0
  7  8  1  0  0  0
  8  9  2  0  0  0
  8 10  1  0  0  0
 10 15  1  0  0  0
 15 16  1  0  0  0
 16 17  1  0  0  0
 17 18  1  0  0  0
 18 19  1  0  0  0
 19 20  1  0  0  0
 10 11  1  0  0  0
 11 12  2  0  0  0
 12 13  1  0  0  0
 13 14  1  0  0  0
 14  1  1  0  0  0
 14  5  2  0  0  0
 13  7  2  0  0  0
 20 15  1  0  0  0
M  END
> <minimizedAffinity>
21.37704

> <CNNscore>
0.4787271619

> <CNNaffinity>
5.7027101517

> <CNN_VS>
2.7300422192

> <CNNaffinity_variance>
0.1544776708

$$$$
[H]c1nc2sc3c(=O)n(C4([H])C([H])([H])C([H])([H])C([H])([H])C([H])([H])C4([H])[H])c([H])nc3c2c(N(C([H])([H])[H])C([H])([H])[H])c1[H]


 23 26  0  0  0  0  0  0  0  0999 V2000
   20.9446    6.3395   53.4795 C   0  0  0  0  0  0  0  0  0  0  0  0
   19.5955    6.3990   53.1931 C   0  0  0  0  0  0  0  0  0  0  0  0
   18.8026    7.5089   53.3714 C   0  0  0  0  0  0  0  0  0  0  0  0
   19.4350    8.5878   53.8626 N   0  0  0  0  0  0  0  0  0  0  0  0
   20.7729    8.5836   54.1651 C   0  0  0  0  0  0  0  0  0  0  0  0
   21.8320    9.7628   54.7973 S   0  0  0  0  0  0  0  0  0  0  0  0
   23.2701    8.8501   54.8359 C   0  0  0  0  0  0  0  0  0  0  0  0
   24.5982    9.0978   55.2346 C   0  0  0  0  0  0  0  0  0  0  0  0
   24.8130   10.2492   55.6594 O   0  0  0  0  0  0  0  0  0  0  0  0
   25.5426    8.1493   55.1533 N   0  0  0  0  0  0  0  0  0  0  0  0
   25.1442    6.9617   54.6727 C   0  0  0  0  0  0  0  0  0  0  0  0
   23.8970    6.7108   54.2921 N   0  0  0  0  0  0  0  0  0  0  0  0
   22.8831    7.6337   54.3480 C   0  0  0  0  0  0  0  0  0  0  0  0
   21.5809    7.4915   53.9964 C   0  0  0  0  0  0  0  0  0  0  0  0
   26.8897    8.4423   55.5711 C   0  0  0  0  0  0  0  0  0  0  0  0
   27.7732    8.8540   54.4198 C   0  0  0  0  0  0  0  0  0  0  0  0
   29.1713    9.0082   54.9443 C   0  0  0  0  0  0  0  0  0  0  0  0
   29.2970    8.8685   56.4184 C   0  0  0  0  0  0  0  0  0  0  0  0
   28.2616    9.5975   57.2141 C   0  0  0  0  0  0  0  0  0  0  0  0
   26.9088    9.6313   56.5414 C   0  0  0  0  0  0  0  0  0  0  0  0
   21.0030    3.8187   53.1379 C   0  0  0  0  0  0  0  0  0  0  0  0
   21.6204    5.1260   53.2037 N   0  0  0  0  0  0  0  0  0  0  0  0
   23.0497    5.2036   52.9681 C   0  0  0  0  0  0  0  0  0  0  0  0
 21 22  1  0  0  0
 22 23  1  0  0  0
 22  1  1  0  0  0
  1  2  2  0  0  0
  2  3  1  0  0  0
  3  4  2  0  0  0
  4  5  1  0  0  0
  5  6  1  0  0  0
  6  7  1  0  0  0
  7  8  1  0  0  0
  8  9  2  0  0  0
  8 10  1  0  0  0
 10 15  1  0  0  0
 15 16  1  0  0  0
 16 17  1  0  0  0
 17 18  1  0  0  0
 18 19  1  0  0  0
 19 20  1  0  0  0
 10 11  1  0  0  0
 11 12  2  0  0  0
 12 13  1  0  0  0
 13 14  1  0  0  0
 14  1  1  0  0  0
 14  5  2  0  0  0
 13  7  2  0  0  0
 20 15  1  0  0  0
M  END
> <minimizedAffinity>
26.62636

> <CNNscore>
0.4256516099

> <CNNaffinity>
5.9774880409

> <CNN_VS>
2.5443274975

> <CNNaffinity_variance>
0.3060381711

$$$$
[H]c1c([H])c(-c2c(C([H])([H])C([H])([H])[H])c(C3=NC4(C(=O)N3[H])C([H])([H])C([H])([H])C4([H])[H])nn2-c2c([H])c([H])c(Cl)c([H])c2Cl)c([H])c([H])c1Cl


 32 36  0  0  0  0  0  0  0  0999 V2000
   22.0366    6.3167   54.0037 C   0  0  0  0  0  0  0  0  0  0  0  0
   20.7539    6.1904   53.5641 C   0  0  0  0  0  0  0  0  0  0  0  0
   20.4667    7.4322   53.0592 N   0  0  0  0  0  0  0  0  0  0  0  0
   21.4902    8.2582   53.1728 N   0  0  0  0  0  0  0  0  0  0  0  0
   22.5042    7.6227   53.7504 C   0  0  0  0  0  0  0  0  0  0  0  0
   19.8128    5.0841   53.5174 C   0  0  0  0  0  0  0  0  0  0  0  0
   18.6194    5.1715   54.1054 N   0  0  0  0  0  0  0  0  0  0  0  0
   17.8569    3.9903   53.9439 C   0  0  0  0  0  0  0  0  0  0  0  0
   16.4491    4.1637   53.4204 C   0  0  0  0  0  0  0  0  0  0  0  0
   15.9336    3.8921   54.8020 C   0  0  0  0  0  0  0  0  0  0  0  0
   17.2931    3.3661   55.1967 C   0  0  0  0  0  0  0  0  0  0  0  0
   18.6675    3.0816   53.1190 C   0  0  0  0  0  0  0  0  0  0  0  0
   18.4198    1.9365   52.6811 O   0  0  0  0  0  0  0  0  0  0  0  0
   19.8957    3.8320   52.9007 N   0  0  0  0  0  0  0  0  0  0  0  0
   20.6655    3.4078   52.3430 H   0  0  0  0  0  0  0  0  0  0  0  0
   21.4760    9.6134   52.7222 C   0  0  0  0  0  0  0  0  0  0  0  0
   21.4255    9.9756   51.3787 C   0  0  0  0  0  0  0  0  0  0  0  0
   21.4409   11.2899   50.9872 C   0  0  0  0  0  0  0  0  0  0  0  0
   21.5071   12.2897   51.9174 C   0  0  0  0  0  0  0  0  0  0  0  0
   21.5296   13.9884   51.4870 Cl  0  0  0  0  0  0  0  0  0  0  0  0
   21.5589   11.9700   53.2505 C   0  0  0  0  0  0  0  0  0  0  0  0
   21.5433   10.6209   53.6437 C   0  0  0  0  0  0  0  0  0  0  0  0
   21.6564   10.2818   55.3694 Cl  0  0  0  0  0  0  0  0  0  0  0  0
   23.8761    8.0542   53.9268 C   0  0  0  0  0  0  0  0  0  0  0  0
   24.8081    7.8719   52.9405 C   0  0  0  0  0  0  0  0  0  0  0  0
   26.1480    8.1705   53.1530 C   0  0  0  0  0  0  0  0  0  0  0  0
   26.6054    8.6613   54.3543 C   0  0  0  0  0  0  0  0  0  0  0  0
   28.2909    9.0437   54.6376 Cl  0  0  0  0  0  0  0  0  0  0  0  0
   25.6768    8.8492   55.3561 C   0  0  0  0  0  0  0  0  0  0  0  0
   24.3483    8.5460   55.1294 C   0  0  0  0  0  0  0  0  0  0  0  0
   22.5920    5.5413   56.2760 C   0  0  0  0  0  0  0  0  0  0  0  0
   22.7525    5.2357   54.7564 C   0  0  0  0  0  0  0  0  0  0  0  0
 31 32  1  0  0  0
 32  1  1  0  0  0
  1  2  1  0  0  0
  2  6  1  0  0  0
  6  7  2  0  0  0
  7  8  1  0  0  0
  8  9  1  0  0  0
  9 10  1  0  0  0
 10 11  1  0  0  0
  8 12  1  0  0  0
 12 13  2  0  0  0
 12 14  1  0  0  0
  2  3  2  0  0  0
  3  4  1  0  0  0
  4 16  1  0  0  0
 16 17  2  0  0  0
 17 18  1  0  0  0
 18 19  2  0  0  0
 19 20  1  0  0  0
 19 21  1  0  0  0
 21 22  2  0  0  0
 22 23  1  0  0  0
  4  5  1  0  0  0
  5 24  1  0  0  0
 24 25  2  0  0  0
 25 26  1  0  0  0
 26 27  2  0  0  0
 27 28  1  0  0  0
 27 29  1  0  0  0
 29 30  2  0  0  0
  5  1  2  0  0  0
 30 24  1  0  0  0
 14  6  1  0  0  0
 22 16  1  0  0  0
 11  8  1  0  0  0
 14 15  1  0  0  0
M  END
> <minimizedAffinity>
23.95543

> <CNNscore>
0.5244915485

> <CNNaffinity>
7.2568588257

> <CNN_VS>
3.8061611652

> <CNNaffinity_variance>
0.3800491691

$$$$
[H]c1c([H])c(-c2c(C([H])([H])C([H])([H])[H])c(C3=NC4(C(=O)N3[H])C([H])([H])C([H])([H])C4([H])[H])nn2-c2c([H])c([H])c(Cl)c([H])c2Cl)c([H])c([H])c1Cl


 32 36  0  0  0  0  0  0  0  0999 V2000
   20.5413    7.5450   52.7476 C   0  0  0  0  0  0  0  0  0  0  0  0
   20.7692    6.3133   53.2820 C   0  0  0  0  0  0  0  0  0  0  0  0
   22.0388    6.4163   53.7890 N   0  0  0  0  0  0  0  0  0  0  0  0
   22.5527    7.6156   53.5889 N   0  0  0  0  0  0  0  0  0  0  0  0
   21.6671    8.3704   52.9472 C   0  0  0  0  0  0  0  0  0  0  0  0
   19.9636    5.1111   53.4134 C   0  0  0  0  0  0  0  0  0  0  0  0
   18.7692    5.1452   54.0051 N   0  0  0  0  0  0  0  0  0  0  0  0
   18.1496    3.8731   54.0304 C   0  0  0  0  0  0  0  0  0  0  0  0
   16.7302    3.8051   53.5140 C   0  0  0  0  0  0  0  0  0  0  0  0
   16.2525    3.6801   54.9299 C   0  0  0  0  0  0  0  0  0  0  0  0
   17.6649    3.3774   55.3707 C   0  0  0  0  0  0  0  0  0  0  0  0
   19.0591    2.9534   53.3303 C   0  0  0  0  0  0  0  0  0  0  0  0
   18.9459    1.7360   53.0673 O   0  0  0  0  0  0  0  0  0  0  0  0
   20.1908    3.8004   52.9827 N   0  0  0  0  0  0  0  0  0  0  0  0
   21.0038    3.3910   52.4777 H   0  0  0  0  0  0  0  0  0  0  0  0
   23.8567    8.0074   54.0201 C   0  0  0  0  0  0  0  0  0  0  0  0
   25.0270    7.6323   53.3656 C   0  0  0  0  0  0  0  0  0  0  0  0
   26.2619    8.0081   53.8287 C   0  0  0  0  0  0  0  0  0  0  0  0
   26.3766    8.7697   54.9583 C   0  0  0  0  0  0  0  0  0  0  0  0
   27.9220    9.2853   55.6042 Cl  0  0  0  0  0  0  0  0  0  0  0  0
   25.2448    9.1573   55.6296 C   0  0  0  0  0  0  0  0  0  0  0  0
   23.9829    8.7677   55.1491 C   0  0  0  0  0  0  0  0  0  0  0  0
   22.5744    9.2641   56.0849 Cl  0  0  0  0  0  0  0  0  0  0  0  0
   21.7064    9.7909   52.6644 C   0  0  0  0  0  0  0  0  0  0  0  0
   21.6297   10.7158   53.6710 C   0  0  0  0  0  0  0  0  0  0  0  0
   21.5421   12.0742   53.3944 C   0  0  0  0  0  0  0  0  0  0  0  0
   21.5287   12.5582   52.1065 C   0  0  0  0  0  0  0  0  0  0  0  0
   21.4200   14.2676   51.7413 Cl  0  0  0  0  0  0  0  0  0  0  0  0
   21.6051   11.6369   51.0834 C   0  0  0  0  0  0  0  0  0  0  0  0
   21.6903   10.2893   51.3750 C   0  0  0  0  0  0  0  0  0  0  0  0
   19.7651    8.2281   50.5106 C   0  0  0  0  0  0  0  0  0  0  0  0
   19.3104    7.8786   51.9595 C   0  0  0  0  0  0  0  0  0  0  0  0
 31 32  1  0  0  0
 32  1  1  0  0  0
  1  2  1  0  0  0
  2  6  1  0  0  0
  6  7  2  0  0  0
  7  8  1  0  0  0
  8  9  1  0  0  0
  9 10  1  0  0  0
 10 11  1  0  0  0
  8 12  1  0  0  0
 12 13  2  0  0  0
 12 14  1  0  0  0
  2  3  2  0  0  0
  3  4  1  0  0  0
  4 16  1  0  0  0
 16 17  2  0  0  0
 17 18  1  0  0  0
 18 19  2  0  0  0
 19 20  1  0  0  0
 19 21  1  0  0  0
 21 22  2  0  0  0
 22 23  1  0  0  0
  4  5  1  0  0  0
  5 24  1  0  0  0
 24 25  2  0  0  0
 25 26  1  0  0  0
 26 27  2  0  0  0
 27 28  1  0  0  0
 27 29  1  0  0  0
 29 30  2  0  0  0
  5  1  2  0  0  0
 30 24  1  0  0  0
 14  6  1  0  0  0
 22 16  1  0  0  0
 11  8  1  0  0  0
 14 15  1  0  0  0
M  END
> <minimizedAffinity>
28.10305

> <CNNscore>
0.4837142527

> <CNNaffinity>
7.2778272629

> <CNN_VS>
3.5203888416

> <CNNaffinity_variance>
0.5276521444

$$$$
[H]c1c([H])c(-c2c(C([H])([H])C([H])([H])[H])c(C3=NC4(C(=O)N3[H])C([H])([H])C([H])([H])C4([H])[H])nn2-c2c([H])c([H])c(Cl)c([H])c2Cl)c([H])c([H])c1Cl


 32 36  0  0  0  0  0  0  0  0999 V2000
   20.5559    7.6923   52.7888 C   0  0  0  0  0  0  0  0  0  0  0  0
   20.7733    6.4657   53.3390 C   0  0  0  0  0  0  0  0  0  0  0  0
   22.0405    6.5673   53.8524 N   0  0  0  0  0  0  0  0  0  0  0  0
   22.5626    7.7612   53.6411 N   0  0  0  0  0  0  0  0  0  0  0  0
   21.6853    8.5135   52.9854 C   0  0  0  0  0  0  0  0  0  0  0  0
   19.9599    5.2699   53.4798 C   0  0  0  0  0  0  0  0  0  0  0  0
   20.4597    4.0631   53.2125 N   0  0  0  0  0  0  0  0  0  0  0  0
   19.5078    3.0350   53.4116 C   0  0  0  0  0  0  0  0  0  0  0  0
   19.9422    1.8735   54.2768 C   0  0  0  0  0  0  0  0  0  0  0  0
   20.0704    1.0376   53.0386 C   0  0  0  0  0  0  0  0  0  0  0  0
   19.2907    2.0758   52.2672 C   0  0  0  0  0  0  0  0  0  0  0  0
   18.2853    3.6893   53.9019 C   0  0  0  0  0  0  0  0  0  0  0  0
   17.1838    3.2080   54.2471 O   0  0  0  0  0  0  0  0  0  0  0  0
   18.6384    5.1015   53.9045 N   0  0  0  0  0  0  0  0  0  0  0  0
   17.9346    5.8073   54.2050 H   0  0  0  0  0  0  0  0  0  0  0  0
   23.8664    8.1505   54.0755 C   0  0  0  0  0  0  0  0  0  0  0  0
   25.0359    7.7954   53.4085 C   0  0  0  0  0  0  0  0  0  0  0  0
   26.2708    8.1677   53.8747 C   0  0  0  0  0  0  0  0  0  0  0  0
   26.3861    8.9056   55.0198 C   0  0  0  0  0  0  0  0  0  0  0  0
   27.9314    9.4154   55.6705 Cl  0  0  0  0  0  0  0  0  0  0  0  0
   25.2550    9.2730   55.7037 C   0  0  0  0  0  0  0  0  0  0  0  0
   23.9932    8.8872   55.2200 C   0  0  0  0  0  0  0  0  0  0  0  0
   22.5860    9.3563   56.1716 Cl  0  0  0  0  0  0  0  0  0  0  0  0
   21.7346    9.9304   52.6860 C   0  0  0  0  0  0  0  0  0  0  0  0
   21.6566   10.8675   53.6812 C   0  0  0  0  0  0  0  0  0  0  0  0
   21.5787   12.2230   53.3880 C   0  0  0  0  0  0  0  0  0  0  0  0
   21.5765   12.6917   52.0944 C   0  0  0  0  0  0  0  0  0  0  0  0
   21.4800   14.3973   51.7084 Cl  0  0  0  0  0  0  0  0  0  0  0  0
   21.6543   11.7580   51.0828 C   0  0  0  0  0  0  0  0  0  0  0  0
   21.7297   10.4135   51.3908 C   0  0  0  0  0  0  0  0  0  0  0  0
   19.7693    8.1566   50.4999 C   0  0  0  0  0  0  0  0  0  0  0  0
   19.3315    8.0238   51.9895 C   0  0  0  0  0  0  0  0  0  0  0  0
 31 32  1  0  0  0
 32  1  1  0  0  0
  1  2  1  0  0  0
  2  6  1  0  0  0
  6  7  2  0  0  0
  7  8  1  0  0  0
  8  9  1  0  0  0
  9 10  1  0  0  0
 10 11  1  0  0  0
  8 12  1  0  0  0
 12 13  2  0  0  0
 12 14  1  0  0  0
  2  3  2  0  0  0
  3  4  1  0  0  0
  4 16  1  0  0  0
 16 17  2  0  0  0
 17 18  1  0  0  0
 18 19  2  0  0  0
 19 20  1  0  0  0
 19 21  1  0  0  0
 21 22  2  0  0  0
 22 23  1  0  0  0
  4  5  1  0  0  0
  5 24  1  0  0  0
 24 25  2  0  0  0
 25 26  1  0  0  0
 26 27  2  0  0  0
 27 28  1  0  0  0
 27 29  1  0  0  0
 29 30  2  0  0  0
  5  1  2  0  0  0
 30 24  1  0  0  0
 14  6  1  0  0  0
 22 16  1  0  0  0
 11  8  1  0  0  0
 14 15  1  0  0  0
M  END
> <minimizedAffinity>
34.75011

> <CNNscore>
0.4385865331

> <CNNaffinity>
7.1391282082

> <CNN_VS>
3.1311254501

> <CNNaffinity_variance>
0.4582822919

$$$$
[H]c1c([H])c(-c2c(C([H])([H])C([H])([H])[H])c(C3=NC4(C(=O)N3[H])C([H])([H])C([H])([H])C4([H])[H])nn2-c2c([H])c([H])c(Cl)c([H])c2Cl)c([H])c([H])c1Cl


 32 36  0  0  0  0  0  0  0  0999 V2000
   21.9104    8.5049   53.6996 C   0  0  0  0  0  0  0  0  0  0  0  0
   22.3140    9.6217   53.0329 C   0  0  0  0  0  0  0  0  0  0  0  0
   23.6194    9.7716   53.4241 N   0  0  0  0  0  0  0  0  0  0  0  0
   23.9943    8.8220   54.2609 N   0  0  0  0  0  0  0  0  0  0  0  0
   22.9751    7.9957   54.4714 C   0  0  0  0  0  0  0  0  0  0  0  0
   21.6713   10.5079   52.0772 C   0  0  0  0  0  0  0  0  0  0  0  0
   21.8603   11.8268   52.1278 N   0  0  0  0  0  0  0  0  0  0  0  0
   21.1475   12.5075   51.1122 C   0  0  0  0  0  0  0  0  0  0  0  0
   21.9413   13.4781   50.2674 C   0  0  0  0  0  0  0  0  0  0  0  0
   21.2851   14.6084   51.0023 C   0  0  0  0  0  0  0  0  0  0  0  0
   20.2582   13.6455   51.5492 C   0  0  0  0  0  0  0  0  0  0  0  0
   20.4708   11.4735   50.3146 C   0  0  0  0  0  0  0  0  0  0  0  0
   19.7494   11.5689   49.2974 O   0  0  0  0  0  0  0  0  0  0  0  0
   20.8333   10.2367   50.9913 N   0  0  0  0  0  0  0  0  0  0  0  0
   20.4715    9.3289   50.6326 H   0  0  0  0  0  0  0  0  0  0  0  0
   25.3039    8.7243   54.8225 C   0  0  0  0  0  0  0  0  0  0  0  0
   26.3746    8.1157   54.1729 C   0  0  0  0  0  0  0  0  0  0  0  0
   27.6105    8.0191   54.7594 C   0  0  0  0  0  0  0  0  0  0  0  0
   27.8252    8.5241   56.0117 C   0  0  0  0  0  0  0  0  0  0  0  0
   29.3782    8.4355   56.8190 Cl  0  0  0  0  0  0  0  0  0  0  0  0
   26.7929    9.1300   56.6820 C   0  0  0  0  0  0  0  0  0  0  0  0
   25.5292    9.2246   56.0746 C   0  0  0  0  0  0  0  0  0  0  0  0
   24.2384    9.9762   57.0098 Cl  0  0  0  0  0  0  0  0  0  0  0  0
   22.9532    6.7246   55.1664 C   0  0  0  0  0  0  0  0  0  0  0  0
   22.1720    6.5370   56.2750 C   0  0  0  0  0  0  0  0  0  0  0  0
   22.2425    5.3632   57.0144 C   0  0  0  0  0  0  0  0  0  0  0  0
   23.0926    4.3360   56.6748 C   0  0  0  0  0  0  0  0  0  0  0  0
   23.1924    2.8496   57.5957 Cl  0  0  0  0  0  0  0  0  0  0  0  0
   23.8851    4.5124   55.5604 C   0  0  0  0  0  0  0  0  0  0  0  0
   23.8043    5.6863   54.8366 C   0  0  0  0  0  0  0  0  0  0  0  0
   20.5364    6.4945   53.3207 C   0  0  0  0  0  0  0  0  0  0  0  0
   20.4955    8.0097   53.6824 C   0  0  0  0  0  0  0  0  0  0  0  0
 31 32  1  0  0  0
 32  1  1  0  0  0
  1  2  1  0  0  0
  2  6  1  0  0  0
  6  7  2  0  0  0
  7  8  1  0  0  0
  8  9  1  0  0  0
  9 10  1  0  0  0
 10 11  1  0  0  0
  8 12  1  0  0  0
 12 13  2  0  0  0
 12 14  1  0  0  0
  2  3  2  0  0  0
  3  4  1  0  0  0
  4 16  1  0  0  0
 16 17  2  0  0  0
 17 18  1  0  0  0
 18 19  2  0  0  0
 19 20  1  0  0  0
 19 21  1  0  0  0
 21 22  2  0  0  0
 22 23  1  0  0  0
  4  5  1  0  0  0
  5 24  1  0  0  0
 24 25  2  0  0  0
 25 26  1  0  0  0
 26 27  2  0  0  0
 27 28  1  0  0  0
 27 29  1  0  0  0
 29 30  2  0  0  0
  5  1  2  0  0  0
 30 24  1  0  0  0
 14  6  1  0  0  0
 22 16  1  0  0  0
 11  8  1  0  0  0
 14 15  1  0  0  0
M  END
> <minimizedAffinity>
48.86419

> <CNNscore>
0.4313878715

> <CNNaffinity>
6.5626945496

> <CNN_VS>
2.8310668468

> <CNNaffinity_variance>
0.7496728897

$$$$
[H]c1c([H])c(-c2c(C([H])([H])C([H])([H])[H])c(C3=NC4(C(=O)N3[H])C([H])([H])C([H])([H])C4([H])[H])nn2-c2c([H])c([H])c(Cl)c([H])c2Cl)c([H])c([H])c1Cl


 32 36  0  0  0  0  0  0  0  0999 V2000
   21.9230    6.6462   54.1298 C   0  0  0  0  0  0  0  0  0  0  0  0
   20.6395    6.5502   53.6847 C   0  0  0  0  0  0  0  0  0  0  0  0
   20.4028    7.7807   53.1283 N   0  0  0  0  0  0  0  0  0  0  0  0
   21.4557    8.5718   53.2176 N   0  0  0  0  0  0  0  0  0  0  0  0
   22.4411    7.9227   53.8288 C   0  0  0  0  0  0  0  0  0  0  0  0
   19.6579    5.4788   53.6740 C   0  0  0  0  0  0  0  0  0  0  0  0
   19.9757    4.2596   53.2378 N   0  0  0  0  0  0  0  0  0  0  0  0
   18.8816    3.3649   53.3098 C   0  0  0  0  0  0  0  0  0  0  0  0
   19.1355    2.0452   54.0026 C   0  0  0  0  0  0  0  0  0  0  0  0
   19.1454    1.3765   52.6605 C   0  0  0  0  0  0  0  0  0  0  0  0
   18.5314    2.6133   52.0491 C   0  0  0  0  0  0  0  0  0  0  0  0
   17.7664    4.1185   53.9028 C   0  0  0  0  0  0  0  0  0  0  0  0
   16.6042    3.7615   54.1959 O   0  0  0  0  0  0  0  0  0  0  0  0
   18.3239    5.4499   54.0918 N   0  0  0  0  0  0  0  0  0  0  0  0
   17.7303    6.2035   54.4959 H   0  0  0  0  0  0  0  0  0  0  0  0
   21.4957    9.9075   52.7133 C   0  0  0  0  0  0  0  0  0  0  0  0
   21.4844   10.2165   51.3558 C   0  0  0  0  0  0  0  0  0  0  0  0
   21.5513   11.5127   50.9128 C   0  0  0  0  0  0  0  0  0  0  0  0
   21.6318   12.5466   51.8036 C   0  0  0  0  0  0  0  0  0  0  0  0
   21.7193   14.2249   51.3067 Cl  0  0  0  0  0  0  0  0  0  0  0  0
   21.6460   12.2796   53.1492 C   0  0  0  0  0  0  0  0  0  0  0  0
   21.5777   10.9487   53.5953 C   0  0  0  0  0  0  0  0  0  0  0  0
   21.6445   10.6762   55.3352 Cl  0  0  0  0  0  0  0  0  0  0  0  0
   23.8270    8.3095   53.9995 C   0  0  0  0  0  0  0  0  0  0  0  0
   24.7516    8.0836   53.0154 C   0  0  0  0  0  0  0  0  0  0  0  0
   26.1009    8.3391   53.2239 C   0  0  0  0  0  0  0  0  0  0  0  0
   26.5755    8.8289   54.4189 C   0  0  0  0  0  0  0  0  0  0  0  0
   28.2732    9.1573   54.6972 Cl  0  0  0  0  0  0  0  0  0  0  0  0
   25.6545    9.0604   55.4186 C   0  0  0  0  0  0  0  0  0  0  0  0
   24.3163    8.7998   55.1959 C   0  0  0  0  0  0  0  0  0  0  0  0
   23.9578    5.2609   54.2468 C   0  0  0  0  0  0  0  0  0  0  0  0
   22.5924    5.5704   54.9311 C   0  0  0  0  0  0  0  0  0  0  0  0
 31 32  1  0  0  0
 32  1  1  0  0  0
  1  2  1  0  0  0
  2  6  1  0  0  0
  6  7  2  0  0  0
  7  8  1  0  0  0
  8  9  1  0  0  0
  9 10  1  0  0  0
 10 11  1  0  0  0
  8 12  1  0  0  0
 12 13  2  0  0  0
 12 14  1  0  0  0
  2  3  2  0  0  0
  3  4  1  0  0  0
  4 16  1  0  0  0
 16 17  2  0  0  0
 17 18  1  0  0  0
 18 19  2  0  0  0
 19 20  1  0  0  0
 19 21  1  0  0  0
 21 22  2  0  0  0
 22 23  1  0  0  0
  4  5  1  0  0  0
  5 24  1  0  0  0
 24 25  2  0  0  0
 25 26  1  0  0  0
 26 27  2  0  0  0
 27 28  1  0  0  0
 27 29  1  0  0  0
 29 30  2  0  0  0
  5  1  2  0  0  0
 30 24  1  0  0  0
 14  6  1  0  0  0
 22 16  1  0  0  0
 11  8  1  0  0  0
 14 15  1  0  0  0
M  END
> <minimizedAffinity>
30.32090

> <CNNscore>
0.3913998306

> <CNNaffinity>
7.0805153847

> <CNN_VS>
2.7713124752

> <CNNaffinity_variance>
0.2875608802

$$$$
[H]c1c([H])c(-c2c(C([H])([H])C([H])([H])[H])c(C3=NC4(C(=O)N3[H])C([H])([H])C([H])([H])C4([H])[H])nn2-c2c([H])c([H])c(Cl)c([H])c2Cl)c([H])c([H])c1Cl


 32 36  0  0  0  0  0  0  0  0999 V2000
   23.3378    7.5075   53.4673 C   0  0  0  0  0  0  0  0  0  0  0  0
   24.4607    8.2731   53.5541 C   0  0  0  0  0  0  0  0  0  0  0  0
   23.9914    9.5483   53.3717 N   0  0  0  0  0  0  0  0  0  0  0  0
   22.6839    9.5702   53.1916 N   0  0  0  0  0  0  0  0  0  0  0  0
   22.2133    8.3286   53.2442 C   0  0  0  0  0  0  0  0  0  0  0  0
   25.8585    7.9788   53.8206 C   0  0  0  0  0  0  0  0  0  0  0  0
   26.5914    8.7726   54.6020 N   0  0  0  0  0  0  0  0  0  0  0  0
   27.9228    8.3110   54.7330 C   0  0  0  0  0  0  0  0  0  0  0  0
   28.4546    8.1807   56.1424 C   0  0  0  0  0  0  0  0  0  0  0  0
   29.2738    9.4160   55.9158 C   0  0  0  0  0  0  0  0  0  0  0  0
   29.0205    9.3015   54.4314 C   0  0  0  0  0  0  0  0  0  0  0  0
   28.0047    7.0558   53.9709 C   0  0  0  0  0  0  0  0  0  0  0  0
   28.9560    6.2604   53.8075 O   0  0  0  0  0  0  0  0  0  0  0  0
   26.6693    6.9166   53.4086 N   0  0  0  0  0  0  0  0  0  0  0  0
   26.4489    6.0997   52.8022 H   0  0  0  0  0  0  0  0  0  0  0  0
   21.9262   10.7635   52.9869 C   0  0  0  0  0  0  0  0  0  0  0  0
   21.8570   11.4294   51.7661 C   0  0  0  0  0  0  0  0  0  0  0  0
   21.1389   12.5885   51.6189 C   0  0  0  0  0  0  0  0  0  0  0  0
   20.4648   13.1260   52.6800 C   0  0  0  0  0  0  0  0  0  0  0  0
   19.5282   14.6025   52.5618 Cl  0  0  0  0  0  0  0  0  0  0  0  0
   20.5111   12.4973   53.8985 C   0  0  0  0  0  0  0  0  0  0  0  0
   21.2495   11.3102   54.0415 C   0  0  0  0  0  0  0  0  0  0  0  0
   21.3012   10.5799   55.6445 Cl  0  0  0  0  0  0  0  0  0  0  0  0
   20.8396    7.8689   53.2753 C   0  0  0  0  0  0  0  0  0  0  0  0
   20.3458    7.1854   54.3540 C   0  0  0  0  0  0  0  0  0  0  0  0
   19.0699    6.6366   54.3351 C   0  0  0  0  0  0  0  0  0  0  0  0
   18.2420    6.7501   53.2421 C   0  0  0  0  0  0  0  0  0  0  0  0
   16.6306    6.0651   53.2030 Cl  0  0  0  0  0  0  0  0  0  0  0  0
   18.7275    7.4360   52.1488 C   0  0  0  0  0  0  0  0  0  0  0  0
   19.9991    7.9746   52.1828 C   0  0  0  0  0  0  0  0  0  0  0  0
   23.5531    5.5611   54.9634 C   0  0  0  0  0  0  0  0  0  0  0  0
   23.3677    6.0087   53.4823 C   0  0  0  0  0  0  0  0  0  0  0  0
 31 32  1  0  0  0
 32  1  1  0  0  0
  1  2  1  0  0  0
  2  6  1  0  0  0
  6  7  2  0  0  0
  7  8  1  0  0  0
  8  9  1  0  0  0
  9 10  1  0  0  0
 10 11  1  0  0  0
  8 12  1  0  0  0
 12 13  2  0  0  0
 12 14  1  0  0  0
  2  3  2  0  0  0
  3  4  1  0  0  0
  4 16  1  0  0  0
 16 17  2  0  0  0
 17 18  1  0  0  0
 18 19  2  0  0  0
 19 20  1  0  0  0
 19 21  1  0  0  0
 21 22  2  0  0  0
 22 23  1  0  0  0
  4  5  1  0  0  0
  5 24  1  0  0  0
 24 25  2  0  0  0
 25 26  1  0  0  0
 26 27  2  0  0  0
 27 28  1  0  0  0
 27 29  1  0  0  0
 29 30  2  0  0  0
  5  1  2  0  0  0
 30 24  1  0  0  0
 14  6  1  0  0  0
 22 16  1  0  0  0
 11  8  1  0  0  0
 14 15  1  0  0  0
M  END
> <minimizedAffinity>
47.62699

> <CNNscore>
0.3387199938

> <CNNaffinity>
6.2015409470

> <CNN_VS>
2.1005859375

> <CNNaffinity_variance>
0.3769099116

$$$$
[H]c1c([H])c(-c2c(C([H])([H])C([H])([H])[H])c(C3=NC4(C(=O)N3[H])C([H])([H])C([H])([H])C4([H])[H])nn2-c2c([H])c([H])c(Cl)c([H])c2Cl)c([H])c([H])c1Cl


 32 36  0  0  0  0  0  0  0  0999 V2000
   23.6458    6.8810   54.2922 C   0  0  0  0  0  0  0  0  0  0  0  0
   24.5235    7.9025   54.0908 C   0  0  0  0  0  0  0  0  0  0  0  0
   23.8471    8.7407   53.2425 N   0  0  0  0  0  0  0  0  0  0  0  0
   22.6467    8.2776   52.9470 N   0  0  0  0  0  0  0  0  0  0  0  0
   22.4564    7.1214   53.5736 C   0  0  0  0  0  0  0  0  0  0  0  0
   25.8476    8.2052   54.6072 C   0  0  0  0  0  0  0  0  0  0  0  0
   26.0035    8.8720   55.7512 N   0  0  0  0  0  0  0  0  0  0  0  0
   27.3675    9.0632   56.0760 C   0  0  0  0  0  0  0  0  0  0  0  0
   27.7917    8.6553   57.4688 C   0  0  0  0  0  0  0  0  0  0  0  0
   27.8594   10.1062   57.8410 C   0  0  0  0  0  0  0  0  0  0  0  0
   27.8050   10.4756   56.3777 C   0  0  0  0  0  0  0  0  0  0  0  0
   28.1440    8.3942   55.0212 C   0  0  0  0  0  0  0  0  0  0  0  0
   29.3790    8.2588   54.8777 O   0  0  0  0  0  0  0  0  0  0  0  0
   27.1192    7.8888   54.1193 N   0  0  0  0  0  0  0  0  0  0  0  0
   27.3993    7.3708   53.2610 H   0  0  0  0  0  0  0  0  0  0  0  0
   21.7202    8.9492   52.0923 C   0  0  0  0  0  0  0  0  0  0  0  0
   21.0114    8.3125   51.0771 C   0  0  0  0  0  0  0  0  0  0  0  0
   20.1506    9.0004   50.2605 C   0  0  0  0  0  0  0  0  0  0  0  0
   19.9646   10.3449   50.4246 C   0  0  0  0  0  0  0  0  0  0  0  0
   18.8804   11.2843   49.4181 Cl  0  0  0  0  0  0  0  0  0  0  0  0
   20.6471   11.0055   51.4145 C   0  0  0  0  0  0  0  0  0  0  0  0
   21.5278   10.2938   52.2468 C   0  0  0  0  0  0  0  0  0  0  0  0
   22.4039   11.2131   53.4687 Cl  0  0  0  0  0  0  0  0  0  0  0  0
   21.2472    6.3327   53.6963 C   0  0  0  0  0  0  0  0  0  0  0  0
   21.2741    4.9701   53.5646 C   0  0  0  0  0  0  0  0  0  0  0  0
   20.1019    4.2249   53.5579 C   0  0  0  0  0  0  0  0  0  0  0  0
   18.8632    4.8107   53.6828 C   0  0  0  0  0  0  0  0  0  0  0  0
   17.3764    3.8852   53.6774 Cl  0  0  0  0  0  0  0  0  0  0  0  0
   18.8223    6.1825   53.8158 C   0  0  0  0  0  0  0  0  0  0  0  0
   19.9969    6.9095   53.8191 C   0  0  0  0  0  0  0  0  0  0  0  0
   22.9110    5.4683   56.1732 C   0  0  0  0  0  0  0  0  0  0  0  0
   23.9939    5.6454   55.0667 C   0  0  0  0  0  0  0  0  0  0  0  0
 31 32  1  0  0  0
 32  1  1  0  0  0
  1  2  1  0  0  0
  2  6  1  0  0  0
  6  7  2  0  0  0
  7  8  1  0  0  0
  8  9  1  0  0  0
  9 10  1  0  0  0
 10 11  1  0  0  0
  8 12  1  0  0  0
 12 13  2  0  0  0
 12 14  1  0  0  0
  2  3  2  0  0  0
  3  4  1  0  0  0
  4 16  1  0  0  0
 16 17  2  0  0  0
 17 18  1  0  0  0
 18 19  2  0  0  0
 19 20  1  0  0  0
 19 21  1  0  0  0
 21 22  2  0  0  0
 22 23  1  0  0  0
  4  5  1  0  0  0
  5 24  1  0  0  0
 24 25  2  0  0  0
 25 26  1  0  0  0
 26 27  2  0  0  0
 27 28  1  0  0  0
 27 29  1  0  0  0
 29 30  2  0  0  0
  5  1  2  0  0  0
 30 24  1  0  0  0
 14  6  1  0  0  0
 22 16  1  0  0  0
 11  8  1  0  0  0
 14 15  1  0  0  0
M  END
> <minimizedAffinity>
37.85972

> <CNNscore>
0.3003009558

> <CNNaffinity>
6.8514099121

> <CNN_VS>
2.0574848652

> <CNNaffinity_variance>
0.7473585606

$$$$
[H]c1c([H])c(-c2c(C([H])([H])C([H])([H])[H])c(C3=NC4(C(=O)N3[H])C([H])([H])C([H])([H])C4([H])[H])nn2-c2c([H])c([H])c(Cl)c([H])c2Cl)c([H])c([H])c1Cl


 32 36  0  0  0  0  0  0  0  0999 V2000
   20.6197    7.8915   53.2469 C   0  0  0  0  0  0  0  0  0  0  0  0
   21.5048    8.7942   53.7530 C   0  0  0  0  0  0  0  0  0  0  0  0
   22.1248    8.1014   54.7606 N   0  0  0  0  0  0  0  0  0  0  0  0
   21.6641    6.8688   54.8660 N   0  0  0  0  0  0  0  0  0  0  0  0
   20.7250    6.6718   53.9468 C   0  0  0  0  0  0  0  0  0  0  0  0
   21.8625   10.1571   53.3982 C   0  0  0  0  0  0  0  0  0  0  0  0
   21.2588   10.7859   52.3893 N   0  0  0  0  0  0  0  0  0  0  0  0
   21.7509   12.1004   52.2086 C   0  0  0  0  0  0  0  0  0  0  0  0
   20.7180   13.2023   52.1381 C   0  0  0  0  0  0  0  0  0  0  0  0
   20.9507   13.2852   50.6591 C   0  0  0  0  0  0  0  0  0  0  0  0
   22.2122   12.4708   50.8204 C   0  0  0  0  0  0  0  0  0  0  0  0
   22.7512   12.3188   53.2645 C   0  0  0  0  0  0  0  0  0  0  0  0
   23.4393   13.3257   53.5416 O   0  0  0  0  0  0  0  0  0  0  0  0
   22.7810   11.0445   53.9674 N   0  0  0  0  0  0  0  0  0  0  0  0
   23.4273   10.9165   54.7734 H   0  0  0  0  0  0  0  0  0  0  0  0
   22.1352    5.9197   55.8238 C   0  0  0  0  0  0  0  0  0  0  0  0
   21.4807    5.6488   57.0225 C   0  0  0  0  0  0  0  0  0  0  0  0
   21.9817    4.7488   57.9278 C   0  0  0  0  0  0  0  0  0  0  0  0
   23.1505    4.0867   57.6732 C   0  0  0  0  0  0  0  0  0  0  0  0
   23.8462    2.9243   58.7850 Cl  0  0  0  0  0  0  0  0  0  0  0  0
   23.8231    4.3291   56.5023 C   0  0  0  0  0  0  0  0  0  0  0  0
   23.3036    5.2533   55.5799 C   0  0  0  0  0  0  0  0  0  0  0  0
   24.2414    5.5479   54.1172 Cl  0  0  0  0  0  0  0  0  0  0  0  0
   20.0608    5.4426   53.5627 C   0  0  0  0  0  0  0  0  0  0  0  0
   18.7453    5.2222   53.8716 C   0  0  0  0  0  0  0  0  0  0  0  0
   18.1418    3.9976   53.6151 C   0  0  0  0  0  0  0  0  0  0  0  0
   18.8271    2.9513   53.0419 C   0  0  0  0  0  0  0  0  0  0  0  0
   18.0804    1.4020   52.7111 Cl  0  0  0  0  0  0  0  0  0  0  0  0
   20.1530    3.1603   52.7263 C   0  0  0  0  0  0  0  0  0  0  0  0
   20.7390    4.3834   52.9890 C   0  0  0  0  0  0  0  0  0  0  0  0
   20.3307    8.1221   50.8104 C   0  0  0  0  0  0  0  0  0  0  0  0
   19.6146    8.2373   52.1896 C   0  0  0  0  0  0  0  0  0  0  0  0
 31 32  1  0  0  0
 32  1  1  0  0  0
  1  2  1  0  0  0
  2  6  1  0  0  0
  6  7  2  0  0  0
  7  8  1  0  0  0
  8  9  1  0  0  0
  9 10  1  0  0  0
 10 11  1  0  0  0
  8 12  1  0  0  0
 12 13  2  0  0  0
 12 14  1  0  0  0
  2  3  2  0  0  0
  3  4  1  0  0  0
  4 16  1  0  0  0
 16 17  2  0  0  0
 17 18  1  0  0  0
 18 19  2  0  0  0
 19 20  1  0  0  0
 19 21  1  0  0  0
 21 22  2  0  0  0
 22 23  1  0  0  0
  4  5  1  0  0  0
  5 24  1  0  0  0
 24 25  2  0  0  0
 25 26  1  0  0  0
 26 27  2  0  0  0
 27 28  1  0  0  0
 27 29  1  0  0  0
 29 30  2  0  0  0
  5  1  2  0  0  0
 30 24  1  0  0  0
 14  6  1  0  0  0
 22 16  1  0  0  0
 11  8  1  0  0  0
 14 15  1  0  0  0
M  END
> <minimizedAffinity>
60.53180

> <CNNscore>
0.2938742042

> <CNNaffinity>
6.2262144089

> <CNN_VS>
1.8297238350

> <CNNaffinity_variance>
0.6305231452

$$$$
[H]c1c([H])c(-c2c(C([H])([H])C([H])([H])[H])c(C3=NC4(C(=O)N3[H])C([H])([H])C([H])([H])C4([H])[H])nn2-c2c([H])c([H])c(Cl)c([H])c2Cl)c([H])c([H])c1Cl


 32 36  0  0  0  0  0  0  0  0999 V2000
   21.9122    9.2702   54.0312 C   0  0  0  0  0  0  0  0  0  0  0  0
   22.3516   10.4780   53.5809 C   0  0  0  0  0  0  0  0  0  0  0  0
   23.6263   10.5588   54.0791 N   0  0  0  0  0  0  0  0  0  0  0  0
   23.9508    9.4861   54.7768 N   0  0  0  0  0  0  0  0  0  0  0  0
   22.9259    8.6403   54.7823 C   0  0  0  0  0  0  0  0  0  0  0  0
   21.7686   11.5080   52.7378 C   0  0  0  0  0  0  0  0  0  0  0  0
   21.5440   11.2899   51.4418 N   0  0  0  0  0  0  0  0  0  0  0  0
   20.9734   12.4159   50.8020 C   0  0  0  0  0  0  0  0  0  0  0  0
   19.7224   12.1669   49.9902 C   0  0  0  0  0  0  0  0  0  0  0  0
   20.5404   12.3079   48.7415 C   0  0  0  0  0  0  0  0  0  0  0  0
   21.6610   12.9121   49.5539 C   0  0  0  0  0  0  0  0  0  0  0  0
   20.7866   13.4363   51.8446 C   0  0  0  0  0  0  0  0  0  0  0  0
   20.2940   14.5843   51.7846 O   0  0  0  0  0  0  0  0  0  0  0  0
   21.3258   12.7999   53.0377 N   0  0  0  0  0  0  0  0  0  0  0  0
   21.3284   13.3180   53.9406 H   0  0  0  0  0  0  0  0  0  0  0  0
   25.2200    9.2952   55.4034 C   0  0  0  0  0  0  0  0  0  0  0  0
   25.4951    9.6787   56.7133 C   0  0  0  0  0  0  0  0  0  0  0  0
   26.7365    9.5017   57.2686 C   0  0  0  0  0  0  0  0  0  0  0  0
   27.7474    8.9373   56.5414 C   0  0  0  0  0  0  0  0  0  0  0  0
   29.3557    8.6813   57.1887 Cl  0  0  0  0  0  0  0  0  0  0  0  0
   27.5127    8.5479   55.2471 C   0  0  0  0  0  0  0  0  0  0  0  0
   26.2381    8.7332   54.6849 C   0  0  0  0  0  0  0  0  0  0  0  0
   26.0192    8.2502   53.0042 Cl  0  0  0  0  0  0  0  0  0  0  0  0
   22.8665    7.2744   55.2619 C   0  0  0  0  0  0  0  0  0  0  0  0
   22.0719    6.9301   56.3225 C   0  0  0  0  0  0  0  0  0  0  0  0
   22.1070    5.6506   56.8619 C   0  0  0  0  0  0  0  0  0  0  0  0
   22.9336    4.6701   56.3634 C   0  0  0  0  0  0  0  0  0  0  0  0
   22.9886    3.0520   57.0314 Cl  0  0  0  0  0  0  0  0  0  0  0  0
   23.7392    5.0040   55.2953 C   0  0  0  0  0  0  0  0  0  0  0  0
   23.6936    6.2813   54.7712 C   0  0  0  0  0  0  0  0  0  0  0  0
   19.9687    8.3479   55.2334 C   0  0  0  0  0  0  0  0  0  0  0  0
   20.5054    8.7891   53.8386 C   0  0  0  0  0  0  0  0  0  0  0  0
 31 32  1  0  0  0
 32  1  1  0  0  0
  1  2  1  0  0  0
  2  6  1  0  0  0
  6  7  2  0  0  0
  7  8  1  0  0  0
  8  9  1  0  0  0
  9 10  1  0  0  0
 10 11  1  0  0  0
  8 12  1  0  0  0
 12 13  2  0  0  0
 12 14  1  0  0  0
  2  3  2  0  0  0
  3  4  1  0  0  0
  4 16  1  0  0  0
 16 17  2  0  0  0
 17 18  1  0  0  0
 18 19  2  0  0  0
 19 20  1  0  0  0
 19 21  1  0  0  0
 21 22  2  0  0  0
 22 23  1  0  0  0
  4  5  1  0  0  0
  5 24  1  0  0  0
 24 25  2  0  0  0
 25 26  1  0  0  0
 26 27  2  0  0  0
 27 28  1  0  0  0
 27 29  1  0  0  0
 29 30  2  0  0  0
  5  1  2  0  0  0
 30 24  1  0  0  0
 14  6  1  0  0  0
 22 16  1  0  0  0
 11  8  1  0  0  0
 14 15  1  0  0  0
M  END
> <minimizedAffinity>
62.93891

> <CNNscore>
0.2302500308

> <CNNaffinity>
5.9743528366

> <CNN_VS>
1.3755949736

> <CNNaffinity_variance>
0.8214732409

$$$$
[H]c1nc(OC([H])([H])C([H])([H])Oc2nc([H])c(Br)c([H])n2)c(-c2c([H])c([H])c(C([H])([H])[H])c([H])c2[H])c(N([H])S(=O)(=O)c2c([H])c([H])c(Cl)c([H])c2[H])n1


 36 39  0  0  0  0  0  0  0  0999 V2000
   25.3965    8.5686   55.0669 C   0  0  0  0  0  0  0  0  0  0  0  0
   26.4787    9.1321   55.6485 C   0  0  0  0  0  0  0  0  0  0  0  0
   27.7488    9.0259   54.9407 N   0  0  0  0  0  0  0  0  0  0  0  0
   27.8556    8.4202   53.7948 C   0  0  0  0  0  0  0  0  0  0  0  0
   26.7915    7.8589   53.2082 N   0  0  0  0  0  0  0  0  0  0  0  0
   25.6494    7.9044   53.7773 C   0  0  0  0  0  0  0  0  0  0  0  0
   19.7284    8.8396   55.1860 C   0  0  0  0  0  0  0  0  0  0  0  0
   21.1858    8.7927   55.4200 C   0  0  0  0  0  0  0  0  0  0  0  0
   21.9978    9.8627   55.4022 C   0  0  0  0  0  0  0  0  0  0  0  0
   23.3610    9.8555   55.4294 C   0  0  0  0  0  0  0  0  0  0  0  0
   24.0396    8.6136   55.4937 C   0  0  0  0  0  0  0  0  0  0  0  0
   23.2230    7.4940   55.5491 C   0  0  0  0  0  0  0  0  0  0  0  0
   21.8251    7.4990   55.5233 C   0  0  0  0  0  0  0  0  0  0  0  0
   26.4790    9.7281   56.8914 N   0  0  0  0  0  0  0  0  0  0  0  0
   25.8106   10.3016   57.3122 H   0  0  0  0  0  0  0  0  0  0  0  0
   27.9716    9.4732   57.8485 S   0  0  0  0  0  0  0  0  0  0  0  0
   27.4927    8.3510   58.8457 O   0  0  0  0  0  0  0  0  0  0  0  0
   29.0161    8.8116   57.0274 O   0  0  0  0  0  0  0  0  0  0  0  0
   28.4910   10.7795   58.7777 C   0  0  0  0  0  0  0  0  0  0  0  0
   29.2520   10.6016   59.8659 C   0  0  0  0  0  0  0  0  0  0  0  0
   29.6730   11.4937   60.7653 C   0  0  0  0  0  0  0  0  0  0  0  0
   29.2682   12.7986   60.5854 C   0  0  0  0  0  0  0  0  0  0  0  0
   29.7418   14.0736   61.7062 Cl  0  0  0  0  0  0  0  0  0  0  0  0
   28.4336   13.1651   59.4935 C   0  0  0  0  0  0  0  0  0  0  0  0
   28.0615   12.1317   58.5977 C   0  0  0  0  0  0  0  0  0  0  0  0
   24.5031    7.3196   53.3275 O   0  0  0  0  0  0  0  0  0  0  0  0
   23.5960    7.4747   52.4709 C   0  0  0  0  0  0  0  0  0  0  0  0
   22.3890    8.2182   52.1597 C   0  0  0  0  0  0  0  0  0  0  0  0
   22.0705    9.4609   52.0998 O   0  0  0  0  0  0  0  0  0  0  0  0
   21.7551   10.6894   52.0486 C   0  0  0  0  0  0  0  0  0  0  0  0
   21.5316   11.3038   50.7315 N   0  0  0  0  0  0  0  0  0  0  0  0
   21.1624   12.5741   50.5786 C   0  0  0  0  0  0  0  0  0  0  0  0
   20.9727   13.3794   51.7090 C   0  0  0  0  0  0  0  0  0  0  0  0
   20.4914   15.2048   51.4839 Br  0  0  0  0  0  0  0  0  0  0  0  0
   21.1873   12.8375   52.9488 C   0  0  0  0  0  0  0  0  0  0  0  0
   21.5473   11.6225   53.0200 N   0  0  0  0  0  0  0  0  0  0  0  0
  7  8  1  0  0  0
  8  9  2  0  0  0
  9 10  1  0  0  0
 10 11  2  0  0  0
 11  1  1  0  0  0
  1  2  1  0  0  0
  2 14  1  0  0  0
 14 16  1  0  0  0
 16 17  2  0  0  0
 16 18  2  0  0  0
 16 19  1  0  0  0
 19 20  2  0  0  0
 20 21  1  0  0  0
 21 22  2  0  0  0
 22 23  1  0  0  0
 22 24  1  0  0  0
 24 25  2  0  0  0
  2  3  2  0  0  0
  3  4  1  0  0  0
  4  5  2  0  0  0
  5  6  1  0  0  0
  6 26  1  0  0  0
 26 27  1  0  0  0
 27 28  1  0  0  0
 28 29  1  0  0  0
 29 30  1  0  0  0
 30 31  2  0  0  0
 31 32  1  0  0  0
 32 33  2  0  0  0
 33 34  1  0  0  0
 33 35  1  0  0  0
 35 36  2  0  0  0
 11 12  1  0  0  0
 12 13  2  0  0  0
 13  8  1  0  0  0
  6  1  2  0  0  0
 36 30  1  0  0  0
 25 19  1  0  0  0
 14 15  1  0  0  0
M  END
> <minimizedAffinity>
16.65654

> <CNNscore>
0.5750336647

> <CNNaffinity>
6.6823730469

> <CNN_VS>
3.8425893784

> <CNNaffinity_variance>
0.1041714326

$$$$
[H]c1nc(OC([H])([H])C([H])([H])Oc2nc([H])c(Br)c([H])n2)c(-c2c([H])c([H])c(C([H])([H])[H])c([H])c2[H])c(N([H])S(=O)(=O)c2c([H])c([H])c(Cl)c([H])c2[H])n1


 36 39  0  0  0  0  0  0  0  0999 V2000
   25.6693    8.5953   55.1881 C   0  0  0  0  0  0  0  0  0  0  0  0
   26.7218    9.2033   55.7794 C   0  0  0  0  0  0  0  0  0  0  0  0
   28.0140    9.1004   55.1124 N   0  0  0  0  0  0  0  0  0  0  0  0
   28.1672    8.4567   53.9927 C   0  0  0  0  0  0  0  0  0  0  0  0
   27.1330    7.8512   53.3968 N   0  0  0  0  0  0  0  0  0  0  0  0
   25.9740    7.8912   53.9312 C   0  0  0  0  0  0  0  0  0  0  0  0
   19.9997    8.8567   55.1415 C   0  0  0  0  0  0  0  0  0  0  0  0
   21.4494    8.8036   55.4186 C   0  0  0  0  0  0  0  0  0  0  0  0
   22.2594    9.8744   55.4605 C   0  0  0  0  0  0  0  0  0  0  0  0
   23.6212    9.8677   55.5294 C   0  0  0  0  0  0  0  0  0  0  0  0
   24.2998    8.6250   55.5742 C   0  0  0  0  0  0  0  0  0  0  0  0
   23.4842    7.5034   55.5681 C   0  0  0  0  0  0  0  0  0  0  0  0
   22.0877    7.5078   55.4994 C   0  0  0  0  0  0  0  0  0  0  0  0
   26.6730    9.8431   56.9993 N   0  0  0  0  0  0  0  0  0  0  0  0
   26.0494   10.5177   57.3293 H   0  0  0  0  0  0  0  0  0  0  0  0
   28.0065    9.4284   58.1212 S   0  0  0  0  0  0  0  0  0  0  0  0
   27.3137    8.3224   59.0043 O   0  0  0  0  0  0  0  0  0  0  0  0
   29.0872    8.7031   57.4079 O   0  0  0  0  0  0  0  0  0  0  0  0
   28.5119   10.6545   59.1608 C   0  0  0  0  0  0  0  0  0  0  0  0
   28.1516   11.9294   58.9618 C   0  0  0  0  0  0  0  0  0  0  0  0
   28.5270   13.0319   59.6141 C   0  0  0  0  0  0  0  0  0  0  0  0
   29.4323   12.8708   60.6405 C   0  0  0  0  0  0  0  0  0  0  0  0
   30.0209   14.2445   61.5747 Cl  0  0  0  0  0  0  0  0  0  0  0  0
   29.9430   11.5861   60.9749 C   0  0  0  0  0  0  0  0  0  0  0  0
   29.4604   10.4890   60.2183 C   0  0  0  0  0  0  0  0  0  0  0  0
   24.8542    7.2653   53.4705 O   0  0  0  0  0  0  0  0  0  0  0  0
   23.9197    7.4144   52.6428 C   0  0  0  0  0  0  0  0  0  0  0  0
   22.6280    8.0413   52.4298 C   0  0  0  0  0  0  0  0  0  0  0  0
   22.2185    9.2370   52.2021 O   0  0  0  0  0  0  0  0  0  0  0  0
   21.8194   10.4217   51.9819 C   0  0  0  0  0  0  0  0  0  0  0  0
   21.6732   11.3380   53.1226 N   0  0  0  0  0  0  0  0  0  0  0  0
   21.2966   12.6082   52.9872 C   0  0  0  0  0  0  0  0  0  0  0  0
   21.0225   13.1153   51.7105 C   0  0  0  0  0  0  0  0  0  0  0  0
   20.4400   14.9156   51.5270 Br  0  0  0  0  0  0  0  0  0  0  0  0
   21.1369   12.2804   50.6304 C   0  0  0  0  0  0  0  0  0  0  0  0
   21.4912   11.0788   50.8338 N   0  0  0  0  0  0  0  0  0  0  0  0
  7  8  1  0  0  0
  8  9  2  0  0  0
  9 10  1  0  0  0
 10 11  2  0  0  0
 11  1  1  0  0  0
  1  2  1  0  0  0
  2 14  1  0  0  0
 14 16  1  0  0  0
 16 17  2  0  0  0
 16 18  2  0  0  0
 16 19  1  0  0  0
 19 20  2  0  0  0
 20 21  1  0  0  0
 21 22  2  0  0  0
 22 23  1  0  0  0
 22 24  1  0  0  0
 24 25  2  0  0  0
  2  3  2  0  0  0
  3  4  1  0  0  0
  4  5  2  0  0  0
  5  6  1  0  0  0
  6 26  1  0  0  0
 26 27  1  0  0  0
 27 28  1  0  0  0
 28 29  1  0  0  0
 29 30  1  0  0  0
 30 31  2  0  0  0
 31 32  1  0  0  0
 32 33  2  0  0  0
 33 34  1  0  0  0
 33 35  1  0  0  0
 35 36  2  0  0  0
 11 12  1  0  0  0
 12 13  2  0  0  0
 13  8  1  0  0  0
  6  1  2  0  0  0
 36 30  1  0  0  0
 25 19  1  0  0  0
 14 15  1  0  0  0
M  END
> <minimizedAffinity>
15.22927

> <CNNscore>
0.5530772209

> <CNNaffinity>
6.6894898415

> <CNN_VS>
3.6998045444

> <CNNaffinity_variance>
0.0698061809

$$$$
[H]c1nc(OC([H])([H])C([H])([H])Oc2nc([H])c(Br)c([H])n2)c(-c2c([H])c([H])c(C([H])([H])[H])c([H])c2[H])c(N([H])S(=O)(=O)c2c([H])c([H])c(Cl)c([H])c2[H])n1


 36 39  0  0  0  0  0  0  0  0999 V2000
   25.9090    8.6992   55.2690 C   0  0  0  0  0  0  0  0  0  0  0  0
   26.9818    9.2749   55.8560 C   0  0  0  0  0  0  0  0  0  0  0  0
   28.2838    9.0425   55.2426 N   0  0  0  0  0  0  0  0  0  0  0  0
   28.4269    8.3164   54.1732 C   0  0  0  0  0  0  0  0  0  0  0  0
   27.3726    7.7416   53.5821 N   0  0  0  0  0  0  0  0  0  0  0  0
   26.2033    7.8938   54.0719 C   0  0  0  0  0  0  0  0  0  0  0  0
   20.2632    9.2207   55.0088 C   0  0  0  0  0  0  0  0  0  0  0  0
   21.7008    9.1363   55.3362 C   0  0  0  0  0  0  0  0  0  0  0  0
   22.5632   10.1635   55.2625 C   0  0  0  0  0  0  0  0  0  0  0  0
   23.9207   10.1015   55.3748 C   0  0  0  0  0  0  0  0  0  0  0  0
   24.5335    8.8449   55.6042 C   0  0  0  0  0  0  0  0  0  0  0  0
   23.6620    7.7724   55.7200 C   0  0  0  0  0  0  0  0  0  0  0  0
   22.2697    7.8340   55.6071 C   0  0  0  0  0  0  0  0  0  0  0  0
   26.9395    9.9970   57.0293 N   0  0  0  0  0  0  0  0  0  0  0  0
   26.3983   10.7732   57.2689 H   0  0  0  0  0  0  0  0  0  0  0  0
   28.1155    9.4772   58.2765 S   0  0  0  0  0  0  0  0  0  0  0  0
   27.2208    8.5067   59.1371 O   0  0  0  0  0  0  0  0  0  0  0  0
   29.1513    8.5931   57.6864 O   0  0  0  0  0  0  0  0  0  0  0  0
   28.6844   10.6809   59.3096 C   0  0  0  0  0  0  0  0  0  0  0  0
   28.2376   11.9410   59.2240 C   0  0  0  0  0  0  0  0  0  0  0  0
   28.6353   13.0317   59.8827 C   0  0  0  0  0  0  0  0  0  0  0  0
   29.6692   12.8753   60.7803 C   0  0  0  0  0  0  0  0  0  0  0  0
   30.2998   14.2357   61.7065 Cl  0  0  0  0  0  0  0  0  0  0  0  0
   30.2825   11.6077   60.9811 C   0  0  0  0  0  0  0  0  0  0  0  0
   29.7651   10.5211   60.2325 C   0  0  0  0  0  0  0  0  0  0  0  0
   25.0580    7.3134   53.6140 O   0  0  0  0  0  0  0  0  0  0  0  0
   24.1779    7.4509   52.7268 C   0  0  0  0  0  0  0  0  0  0  0  0
   22.7473    7.5238   52.4926 C   0  0  0  0  0  0  0  0  0  0  0  0
   21.7319    6.8022   52.8047 O   0  0  0  0  0  0  0  0  0  0  0  0
   20.7312    6.0880   53.1207 C   0  0  0  0  0  0  0  0  0  0  0  0
   19.4130    6.7312   53.2251 N   0  0  0  0  0  0  0  0  0  0  0  0
   18.3004    6.0590   53.5145 C   0  0  0  0  0  0  0  0  0  0  0  0
   18.3652    4.6768   53.7328 C   0  0  0  0  0  0  0  0  0  0  0  0
   16.7821    3.7296   54.1916 Br  0  0  0  0  0  0  0  0  0  0  0  0
   19.5825    4.0530   53.6558 C   0  0  0  0  0  0  0  0  0  0  0  0
   20.6031    4.7572   53.3853 N   0  0  0  0  0  0  0  0  0  0  0  0
  7  8  1  0  0  0
  8  9  2  0  0  0
  9 10  1  0  0  0
 10 11  2  0  0  0
 11  1  1  0  0  0
  1  2  1  0  0  0
  2 14  1  0  0  0
 14 16  1  0  0  0
 16 17  2  0  0  0
 16 18  2  0  0  0
 16 19  1  0  0  0
 19 20  2  0  0  0
 20 21  1  0  0  0
 21 22  2  0  0  0
 22 23  1  0  0  0
 22 24  1  0  0  0
 24 25  2  0  0  0
  2  3  2  0  0  0
  3  4  1  0  0  0
  4  5  2  0  0  0
  5  6  1  0  0  0
  6 26  1  0  0  0
 26 27  1  0  0  0
 27 28  1  0  0  0
 28 29  1  0  0  0
 29 30  1  0  0  0
 30 31  2  0  0  0
 31 32  1  0  0  0
 32 33  2  0  0  0
 33 34  1  0  0  0
 33 35  1  0  0  0
 35 36  2  0  0  0
 11 12  1  0  0  0
 12 13  2  0  0  0
 13  8  1  0  0  0
  6  1  2  0  0  0
 36 30  1  0  0  0
 25 19  1  0  0  0
 14 15  1  0  0  0
M  END
> <minimizedAffinity>
16.79568

> <CNNscore>
0.4216234982

> <CNNaffinity>
6.6644806862

> <CNN_VS>
2.8099017143

> <CNNaffinity_variance>
0.1336030364

$$$$
[H]c1nc(OC([H])([H])C([H])([H])Oc2nc([H])c(Br)c([H])n2)c(-c2c([H])c([H])c(C([H])([H])[H])c([H])c2[H])c(N([H])S(=O)(=O)c2c([H])c([H])c(Cl)c([H])c2[H])n1


 36 39  0  0  0  0  0  0  0  0999 V2000
   22.1376    7.1323   53.7606 C   0  0  0  0  0  0  0  0  0  0  0  0
   21.5146    5.9353   53.6814 C   0  0  0  0  0  0  0  0  0  0  0  0
   22.2165    4.7795   54.2264 N   0  0  0  0  0  0  0  0  0  0  0  0
   23.3928    4.8767   54.7725 C   0  0  0  0  0  0  0  0  0  0  0  0
   24.0198    6.0561   54.8577 N   0  0  0  0  0  0  0  0  0  0  0  0
   23.4682    7.1087   54.3907 C   0  0  0  0  0  0  0  0  0  0  0  0
   21.7130   12.5867   52.2495 C   0  0  0  0  0  0  0  0  0  0  0  0
   21.5588   11.1800   52.6719 C   0  0  0  0  0  0  0  0  0  0  0  0
   21.6537   10.7478   53.9402 C   0  0  0  0  0  0  0  0  0  0  0  0
   21.7018    9.4518   54.3612 C   0  0  0  0  0  0  0  0  0  0  0  0
   21.6378    8.4146   53.3983 C   0  0  0  0  0  0  0  0  0  0  0  0
   21.5035    8.8339   52.0832 C   0  0  0  0  0  0  0  0  0  0  0  0
   21.4521   10.1621   51.6493 C   0  0  0  0  0  0  0  0  0  0  0  0
   20.3048    5.7215   53.0565 N   0  0  0  0  0  0  0  0  0  0  0  0
   19.7402    6.3396   52.5545 H   0  0  0  0  0  0  0  0  0  0  0  0
   19.6295    4.0756   53.2658 S   0  0  0  0  0  0  0  0  0  0  0  0
   18.9376    3.8621   51.8663 O   0  0  0  0  0  0  0  0  0  0  0  0
   20.7137    3.0625   53.2964 O   0  0  0  0  0  0  0  0  0  0  0  0
   18.4370    3.9056   54.4443 C   0  0  0  0  0  0  0  0  0  0  0  0
   18.7270    3.4411   55.6670 C   0  0  0  0  0  0  0  0  0  0  0  0
   17.9113    3.1528   56.6836 C   0  0  0  0  0  0  0  0  0  0  0  0
   16.5619    3.3334   56.4704 C   0  0  0  0  0  0  0  0  0  0  0  0
   15.3749    2.9786   57.7240 Cl  0  0  0  0  0  0  0  0  0  0  0  0
   16.0715    3.7976   55.2186 C   0  0  0  0  0  0  0  0  0  0  0  0
   17.0357    4.0819   54.2194 C   0  0  0  0  0  0  0  0  0  0  0  0
   24.0195    8.3547   54.3499 O   0  0  0  0  0  0  0  0  0  0  0  0
   25.0581    8.9773   54.6883 C   0  0  0  0  0  0  0  0  0  0  0  0
   26.4197    8.8187   55.1651 C   0  0  0  0  0  0  0  0  0  0  0  0
   27.0629    9.1570   56.2239 O   0  0  0  0  0  0  0  0  0  0  0  0
   27.7055    9.4916   57.2662 C   0  0  0  0  0  0  0  0  0  0  0  0
   28.0388   10.9104   57.4618 N   0  0  0  0  0  0  0  0  0  0  0  0
   28.6773   11.3621   58.5397 C   0  0  0  0  0  0  0  0  0  0  0  0
   29.0578   10.4634   59.5446 C   0  0  0  0  0  0  0  0  0  0  0  0
   30.0104   11.1061   61.0591 Br  0  0  0  0  0  0  0  0  0  0  0  0
   28.7728    9.1332   59.3828 C   0  0  0  0  0  0  0  0  0  0  0  0
   28.1704    8.7714   58.3259 N   0  0  0  0  0  0  0  0  0  0  0  0
  7  8  1  0  0  0
  8  9  2  0  0  0
  9 10  1  0  0  0
 10 11  2  0  0  0
 11  1  1  0  0  0
  1  2  1  0  0  0
  2 14  1  0  0  0
 14 16  1  0  0  0
 16 17  2  0  0  0
 16 18  2  0  0  0
 16 19  1  0  0  0
 19 20  2  0  0  0
 20 21  1  0  0  0
 21 22  2  0  0  0
 22 23  1  0  0  0
 22 24  1  0  0  0
 24 25  2  0  0  0
  2  3  2  0  0  0
  3  4  1  0  0  0
  4  5  2  0  0  0
  5  6  1  0  0  0
  6 26  1  0  0  0
 26 27  1  0  0  0
 27 28  1  0  0  0
 28 29  1  0  0  0
 29 30  1  0  0  0
 30 31  2  0  0  0
 31 32  1  0  0  0
 32 33  2  0  0  0
 33 34  1  0  0  0
 33 35  1  0  0  0
 35 36  2  0  0  0
 11 12  1  0  0  0
 12 13  2  0  0  0
 13  8  1  0  0  0
  6  1  2  0  0  0
 36 30  1  0  0  0
 25 19  1  0  0  0
 14 15  1  0  0  0
M  END
> <minimizedAffinity>
18.52561

> <CNNscore>
0.3968398571

> <CNNaffinity>
6.8918938637

> <CNN_VS>
2.7349781990

> <CNNaffinity_variance>
0.3886384070

$$$$
[H]c1nc(OC([H])([H])C([H])([H])Oc2nc([H])c(Br)c([H])n2)c(-c2c([H])c([H])c(C([H])([H])[H])c([H])c2[H])c(N([H])S(=O)(=O)c2c([H])c([H])c(Cl)c([H])c2[H])n1


 36 39  0  0  0  0  0  0  0  0999 V2000
   22.8563    8.6533   54.1850 C   0  0  0  0  0  0  0  0  0  0  0  0
   21.6337    8.2922   53.7357 C   0  0  0  0  0  0  0  0  0  0  0  0
   20.5018    9.1152   54.1444 N   0  0  0  0  0  0  0  0  0  0  0  0
   20.6430   10.1591   54.9071 C   0  0  0  0  0  0  0  0  0  0  0  0
   21.8482   10.5275   55.3579 N   0  0  0  0  0  0  0  0  0  0  0  0
   22.8825    9.8458   55.0484 C   0  0  0  0  0  0  0  0  0  0  0  0
   28.3973    7.4377   54.0011 C   0  0  0  0  0  0  0  0  0  0  0  0
   26.9379    7.5932   53.8371 C   0  0  0  0  0  0  0  0  0  0  0  0
   26.3483    8.5634   53.1191 C   0  0  0  0  0  0  0  0  0  0  0  0
   25.0181    8.8608   53.0830 C   0  0  0  0  0  0  0  0  0  0  0  0
   24.1206    8.0869   53.8594 C   0  0  0  0  0  0  0  0  0  0  0  0
   24.7000    7.0553   54.5828 C   0  0  0  0  0  0  0  0  0  0  0  0
   26.0634    6.7473   54.6199 C   0  0  0  0  0  0  0  0  0  0  0  0
   21.3758    7.1639   52.9871 N   0  0  0  0  0  0  0  0  0  0  0  0
   21.2252    7.0688   52.0274 H   0  0  0  0  0  0  0  0  0  0  0  0
   21.2154    5.6520   53.9344 S   0  0  0  0  0  0  0  0  0  0  0  0
   22.4859    4.8608   53.4416 O   0  0  0  0  0  0  0  0  0  0  0  0
   21.4763    5.9033   55.3737 O   0  0  0  0  0  0  0  0  0  0  0  0
   19.8686    4.6991   53.5913 C   0  0  0  0  0  0  0  0  0  0  0  0
   18.6621    4.9907   54.0954 C   0  0  0  0  0  0  0  0  0  0  0  0
   17.5175    4.3087   54.0128 C   0  0  0  0  0  0  0  0  0  0  0  0
   17.5523    3.1137   53.3273 C   0  0  0  0  0  0  0  0  0  0  0  0
   16.1152    2.1081   53.1543 Cl  0  0  0  0  0  0  0  0  0  0  0  0
   18.7590    2.6347   52.7464 C   0  0  0  0  0  0  0  0  0  0  0  0
   19.9071    3.4533   52.8901 C   0  0  0  0  0  0  0  0  0  0  0  0
   24.1530   10.0670   55.4902 O   0  0  0  0  0  0  0  0  0  0  0  0
   24.9823    9.6465   56.3363 C   0  0  0  0  0  0  0  0  0  0  0  0
   26.3747    9.2912   56.5403 C   0  0  0  0  0  0  0  0  0  0  0  0
   27.2439    9.4927   57.4641 O   0  0  0  0  0  0  0  0  0  0  0  0
   28.1069    9.6970   58.3722 C   0  0  0  0  0  0  0  0  0  0  0  0
   28.6066   11.0653   58.5726 N   0  0  0  0  0  0  0  0  0  0  0  0
   29.4838   11.3838   59.5226 C   0  0  0  0  0  0  0  0  0  0  0  0
   29.9654   10.3868   60.3807 C   0  0  0  0  0  0  0  0  0  0  0  0
   31.2529   10.8376   61.7048 Br  0  0  0  0  0  0  0  0  0  0  0  0
   29.5279    9.1001   60.2084 C   0  0  0  0  0  0  0  0  0  0  0  0
   28.6986    8.8665   59.2765 N   0  0  0  0  0  0  0  0  0  0  0  0
  7  8  1  0  0  0
  8  9  2  0  0  0
  9 10  1  0  0  0
 10 11  2  0  0  0
 11  1  1  0  0  0
  1  2  1  0  0  0
  2 14  1  0  0  0
 14 16  1  0  0  0
 16 17  2  0  0  0
 16 18  2  0  0  0
 16 19  1  0  0  0
 19 20  2  0  0  0
 20 21  1  0  0  0
 21 22  2  0  0  0
 22 23  1  0  0  0
 22 24  1  0  0  0
 24 25  2  0  0  0
  2  3  2  0  0  0
  3  4  1  0  0  0
  4  5  2  0  0  0
  5  6  1  0  0  0
  6 26  1  0  0  0
 26 27  1  0  0  0
 27 28  1  0  0  0
 28 29  1  0  0  0
 29 30  1  0  0  0
 30 31  2  0  0  0
 31 32  1  0  0  0
 32 33  2  0  0  0
 33 34  1  0  0  0
 33 35  1  0  0  0
 35 36  2  0  0  0
 11 12  1  0  0  0
 12 13  2  0  0  0
 13  8  1  0  0  0
  6  1  2  0  0  0
 36 30  1  0  0  0
 25 19  1  0  0  0
 14 15  1  0  0  0
M  END
> <minimizedAffinity>
21.34112

> <CNNscore>
0.3823501468

> <CNNaffinity>
6.5362267494

> <CNN_VS>
2.4991271496

> <CNNaffinity_variance>
0.2866633534

$$$$
[H]c1nc(OC([H])([H])C([H])([H])Oc2nc([H])c(Br)c([H])n2)c(-c2c([H])c([H])c(C([H])([H])[H])c([H])c2[H])c(N([H])S(=O)(=O)c2c([H])c([H])c(Cl)c([H])c2[H])n1


 36 39  0  0  0  0  0  0  0  0999 V2000
   25.1030    8.0569   54.2994 C   0  0  0  0  0  0  0  0  0  0  0  0
   26.2704    8.4956   54.8206 C   0  0  0  0  0  0  0  0  0  0  0  0
   27.4928    7.8486   54.3595 N   0  0  0  0  0  0  0  0  0  0  0  0
   27.4810    6.8891   53.4817 C   0  0  0  0  0  0  0  0  0  0  0  0
   26.3318    6.4463   52.9576 N   0  0  0  0  0  0  0  0  0  0  0  0
   25.2218    6.9601   53.3242 C   0  0  0  0  0  0  0  0  0  0  0  0
   20.6468   11.5218   54.8928 C   0  0  0  0  0  0  0  0  0  0  0  0
   21.6375   10.4292   54.8162 C   0  0  0  0  0  0  0  0  0  0  0  0
   22.4623   10.0737   55.8151 C   0  0  0  0  0  0  0  0  0  0  0  0
   23.5102    9.2045   55.7405 C   0  0  0  0  0  0  0  0  0  0  0  0
   23.7935    8.5760   54.5029 C   0  0  0  0  0  0  0  0  0  0  0  0
   22.9342    8.8988   53.4634 C   0  0  0  0  0  0  0  0  0  0  0  0
   21.8580    9.7883   53.5381 C   0  0  0  0  0  0  0  0  0  0  0  0
   26.3777    9.4521   55.8073 N   0  0  0  0  0  0  0  0  0  0  0  0
   25.6873    9.9976   56.2297 H   0  0  0  0  0  0  0  0  0  0  0  0
   28.0523    9.8012   56.3389 S   0  0  0  0  0  0  0  0  0  0  0  0
   28.6259    8.3404   56.4801 O   0  0  0  0  0  0  0  0  0  0  0  0
   28.8412   10.3987   55.2329 O   0  0  0  0  0  0  0  0  0  0  0  0
   28.2150   10.5496   57.8399 C   0  0  0  0  0  0  0  0  0  0  0  0
   28.1085   11.8786   57.9710 C   0  0  0  0  0  0  0  0  0  0  0  0
   28.2993   12.6459   59.0466 C   0  0  0  0  0  0  0  0  0  0  0  0
   28.6793   12.0081   60.2075 C   0  0  0  0  0  0  0  0  0  0  0  0
   28.9766   12.9034   61.6963 Cl  0  0  0  0  0  0  0  0  0  0  0  0
   28.8653   10.5985   60.2444 C   0  0  0  0  0  0  0  0  0  0  0  0
   28.6208    9.8893   59.0419 C   0  0  0  0  0  0  0  0  0  0  0  0
   23.9808    6.5619   52.9250 O   0  0  0  0  0  0  0  0  0  0  0  0
   23.0158    5.8465   53.2959 C   0  0  0  0  0  0  0  0  0  0  0  0
   21.8500    5.8024   54.1594 C   0  0  0  0  0  0  0  0  0  0  0  0
   20.6259    5.4381   54.0250 O   0  0  0  0  0  0  0  0  0  0  0  0
   19.4135    5.0851   53.8953 C   0  0  0  0  0  0  0  0  0  0  0  0
   19.0969    3.6493   53.8789 N   0  0  0  0  0  0  0  0  0  0  0  0
   17.8530    3.1832   53.7841 C   0  0  0  0  0  0  0  0  0  0  0  0
   16.7830    4.0829   53.6951 C   0  0  0  0  0  0  0  0  0  0  0  0
   15.0134    3.4127   53.5126 Br  0  0  0  0  0  0  0  0  0  0  0  0
   17.0492    5.4268   53.6939 C   0  0  0  0  0  0  0  0  0  0  0  0
   18.2592    5.8003   53.7774 N   0  0  0  0  0  0  0  0  0  0  0  0
  7  8  1  0  0  0
  8  9  2  0  0  0
  9 10  1  0  0  0
 10 11  2  0  0  0
 11  1  1  0  0  0
  1  2  1  0  0  0
  2 14  1  0  0  0
 14 16  1  0  0  0
 16 17  2  0  0  0
 16 18  2  0  0  0
 16 19  1  0  0  0
 19 20  2  0  0  0
 20 21  1  0  0  0
 21 22  2  0  0  0
 22 23  1  0  0  0
 22 24  1  0  0  0
 24 25  2  0  0  0
  2  3  2  0  0  0
  3  4  1  0  0  0
  4  5  2  0  0  0
  5  6  1  0  0  0
  6 26  1  0  0  0
 26 27  1  0  0  0
 27 28  1  0  0  0
 28 29  1  0  0  0
 29 30  1  0  0  0
 30 31  2  0  0  0
 31 32  1  0  0  0
 32 33  2  0  0  0
 33 34  1  0  0  0
 33 35  1  0  0  0
 35 36  2  0  0  0
 11 12  1  0  0  0
 12 13  2  0  0  0
 13  8  1  0  0  0
  6  1  2  0  0  0
 36 30  1  0  0  0
 25 19  1  0  0  0
 14 15  1  0  0  0
M  END
> <minimizedAffinity>
24.98970

> <CNNscore>
0.3710851073

> <CNNaffinity>
6.4285645485

> <CNN_VS>
2.3855445385

> <CNNaffinity_variance>
0.2708024681

$$$$
[H]c1nc(OC([H])([H])C([H])([H])Oc2nc([H])c(Br)c([H])n2)c(-c2c([H])c([H])c(C([H])([H])[H])c([H])c2[H])c(N([H])S(=O)(=O)c2c([H])c([H])c(Cl)c([H])c2[H])n1


 36 39  0  0  0  0  0  0  0  0999 V2000
   24.5952    8.6042   54.8730 C   0  0  0  0  0  0  0  0  0  0  0  0
   23.3245    8.4085   54.4559 C   0  0  0  0  0  0  0  0  0  0  0  0
   22.2660    9.0798   55.2006 N   0  0  0  0  0  0  0  0  0  0  0  0
   22.5147    9.8415   56.2250 C   0  0  0  0  0  0  0  0  0  0  0  0
   23.7685   10.0438   56.6474 N   0  0  0  0  0  0  0  0  0  0  0  0
   24.7441    9.4781   56.0487 C   0  0  0  0  0  0  0  0  0  0  0  0
   30.0407    7.3934   53.8262 C   0  0  0  0  0  0  0  0  0  0  0  0
   28.5828    7.6284   53.8476 C   0  0  0  0  0  0  0  0  0  0  0  0
   27.9922    8.7966   53.5458 C   0  0  0  0  0  0  0  0  0  0  0  0
   26.6794    9.1194   53.7236 C   0  0  0  0  0  0  0  0  0  0  0  0
   25.8028    8.1508   54.2716 C   0  0  0  0  0  0  0  0  0  0  0  0
   26.3805    6.9232   54.5590 C   0  0  0  0  0  0  0  0  0  0  0  0
   27.7259    6.5894   54.3759 C   0  0  0  0  0  0  0  0  0  0  0  0
   22.9577    7.5631   53.4308 N   0  0  0  0  0  0  0  0  0  0  0  0
   23.3763    6.7390   53.1172 H   0  0  0  0  0  0  0  0  0  0  0  0
   21.5393    8.1038   52.4798 S   0  0  0  0  0  0  0  0  0  0  0  0
   21.8737    7.4784   51.0727 O   0  0  0  0  0  0  0  0  0  0  0  0
   20.3121    7.3911   52.9146 O   0  0  0  0  0  0  0  0  0  0  0  0
   21.3801    9.7673   52.2626 C   0  0  0  0  0  0  0  0  0  0  0  0
   21.3367   10.3091   51.0381 C   0  0  0  0  0  0  0  0  0  0  0  0
   21.3103   11.5937   50.6761 C   0  0  0  0  0  0  0  0  0  0  0  0
   21.3490   12.5274   51.6889 C   0  0  0  0  0  0  0  0  0  0  0  0
   21.3331   14.2568   51.3495 Cl  0  0  0  0  0  0  0  0  0  0  0  0
   21.4224   12.1297   53.0525 C   0  0  0  0  0  0  0  0  0  0  0  0
   21.4321   10.7365   53.3129 C   0  0  0  0  0  0  0  0  0  0  0  0
   26.0564    9.5423   56.4119 O   0  0  0  0  0  0  0  0  0  0  0  0
   26.8837    9.0055   57.1918 C   0  0  0  0  0  0  0  0  0  0  0  0
   28.0089    9.2656   58.0708 C   0  0  0  0  0  0  0  0  0  0  0  0
   28.4448   10.2836   58.7213 O   0  0  0  0  0  0  0  0  0  0  0  0
   28.8791   11.2848   59.3696 C   0  0  0  0  0  0  0  0  0  0  0  0
   28.1687   12.5660   59.2439 N   0  0  0  0  0  0  0  0  0  0  0  0
   28.5267   13.6609   59.9121 C   0  0  0  0  0  0  0  0  0  0  0  0
   29.6260   13.6128   60.7790 C   0  0  0  0  0  0  0  0  0  0  0  0
   30.1618   15.1903   61.6947 Br  0  0  0  0  0  0  0  0  0  0  0  0
   30.3156   12.4358   60.9054 C   0  0  0  0  0  0  0  0  0  0  0  0
   29.9247   11.4343   60.2310 N   0  0  0  0  0  0  0  0  0  0  0  0
  7  8  1  0  0  0
  8  9  2  0  0  0
  9 10  1  0  0  0
 10 11  2  0  0  0
 11  1  1  0  0  0
  1  2  1  0  0  0
  2 14  1  0  0  0
 14 16  1  0  0  0
 16 17  2  0  0  0
 16 18  2  0  0  0
 16 19  1  0  0  0
 19 20  2  0  0  0
 20 21  1  0  0  0
 21 22  2  0  0  0
 22 23  1  0  0  0
 22 24  1  0  0  0
 24 25  2  0  0  0
  2  3  2  0  0  0
  3  4  1  0  0  0
  4  5  2  0  0  0
  5  6  1  0  0  0
  6 26  1  0  0  0
 26 27  1  0  0  0
 27 28  1  0  0  0
 28 29  1  0  0  0
 29 30  1  0  0  0
 30 31  2  0  0  0
 31 32  1  0  0  0
 32 33  2  0  0  0
 33 34  1  0  0  0
 33 35  1  0  0  0
 35 36  2  0  0  0
 11 12  1  0  0  0
 12 13  2  0  0  0
 13  8  1  0  0  0
  6  1  2  0  0  0
 36 30  1  0  0  0
 25 19  1  0  0  0
 14 15  1  0  0  0
M  END
> <minimizedAffinity>
19.53864

> <CNNscore>
0.3653391004

> <CNNaffinity>
6.3828315735

> <CNN_VS>
2.3318979740

> <CNNaffinity_variance>
0.1731289625

$$$$
[H]c1nc(OC([H])([H])C([H])([H])Oc2nc([H])c(Br)c([H])n2)c(-c2c([H])c([H])c(C([H])([H])[H])c([H])c2[H])c(N([H])S(=O)(=O)c2c([H])c([H])c(Cl)c([H])c2[H])n1


 36 39  0  0  0  0  0  0  0  0999 V2000
   26.4621    8.5985   55.1589 C   0  0  0  0  0  0  0  0  0  0  0  0
   27.4531    9.2300   55.8268 C   0  0  0  0  0  0  0  0  0  0  0  0
   28.8234    8.9292   55.4300 N   0  0  0  0  0  0  0  0  0  0  0  0
   29.1006    8.0927   54.4735 C   0  0  0  0  0  0  0  0  0  0  0  0
   28.1284    7.4617   53.8042 N   0  0  0  0  0  0  0  0  0  0  0  0
   26.9053    7.6691   54.1064 C   0  0  0  0  0  0  0  0  0  0  0  0
   21.2178   10.7635   55.0009 C   0  0  0  0  0  0  0  0  0  0  0  0
   22.4701   10.0014   55.1797 C   0  0  0  0  0  0  0  0  0  0  0  0
   23.3361   10.1803   56.1909 C   0  0  0  0  0  0  0  0  0  0  0  0
   24.5827    9.6396   56.3055 C   0  0  0  0  0  0  0  0  0  0  0  0
   25.0563    8.7837   55.2807 C   0  0  0  0  0  0  0  0  0  0  0  0
   24.1668    8.5540   54.2417 C   0  0  0  0  0  0  0  0  0  0  0  0
   22.8876    9.1058   54.1230 C   0  0  0  0  0  0  0  0  0  0  0  0
   27.2611   10.0733   56.9001 N   0  0  0  0  0  0  0  0  0  0  0  0
   26.7468   10.9005   56.9637 H   0  0  0  0  0  0  0  0  0  0  0  0
   28.1580    9.6210   58.3832 S   0  0  0  0  0  0  0  0  0  0  0  0
   27.0582    8.7933   59.1503 O   0  0  0  0  0  0  0  0  0  0  0  0
   29.2158    8.6265   58.0752 O   0  0  0  0  0  0  0  0  0  0  0  0
   28.6200   10.8915   59.3893 C   0  0  0  0  0  0  0  0  0  0  0  0
   28.1590   12.1347   59.1980 C   0  0  0  0  0  0  0  0  0  0  0  0
   28.4827   13.2683   59.8242 C   0  0  0  0  0  0  0  0  0  0  0  0
   29.4436   13.1841   60.8084 C   0  0  0  0  0  0  0  0  0  0  0  0
   29.9729   14.6067   61.7042 Cl  0  0  0  0  0  0  0  0  0  0  0  0
   30.0614   11.9434   61.1279 C   0  0  0  0  0  0  0  0  0  0  0  0
   29.6256   10.8063   60.4026 C   0  0  0  0  0  0  0  0  0  0  0  0
   25.8245    7.0470   53.5559 O   0  0  0  0  0  0  0  0  0  0  0  0
   24.9879    6.1405   53.7988 C   0  0  0  0  0  0  0  0  0  0  0  0
   23.5837    5.7838   53.7111 C   0  0  0  0  0  0  0  0  0  0  0  0
   22.5303    6.3308   53.2206 O   0  0  0  0  0  0  0  0  0  0  0  0
   21.4847    6.8678   52.7415 C   0  0  0  0  0  0  0  0  0  0  0  0
   21.6247    7.7853   51.6009 N   0  0  0  0  0  0  0  0  0  0  0  0
   20.5840    8.3673   51.0080 C   0  0  0  0  0  0  0  0  0  0  0  0
   19.2889    8.1082   51.4750 C   0  0  0  0  0  0  0  0  0  0  0  0
   17.8103    8.9778   50.6555 Br  0  0  0  0  0  0  0  0  0  0  0  0
   19.1292    7.2682   52.5454 C   0  0  0  0  0  0  0  0  0  0  0  0
   20.1662    6.7559   53.0678 N   0  0  0  0  0  0  0  0  0  0  0  0
  7  8  1  0  0  0
  8  9  2  0  0  0
  9 10  1  0  0  0
 10 11  2  0  0  0
 11  1  1  0  0  0
  1  2  1  0  0  0
  2 14  1  0  0  0
 14 16  1  0  0  0
 16 17  2  0  0  0
 16 18  2  0  0  0
 16 19  1  0  0  0
 19 20  2  0  0  0
 20 21  1  0  0  0
 21 22  2  0  0  0
 22 23  1  0  0  0
 22 24  1  0  0  0
 24 25  2  0  0  0
  2  3  2  0  0  0
  3  4  1  0  0  0
  4  5  2  0  0  0
  5  6  1  0  0  0
  6 26  1  0  0  0
 26 27  1  0  0  0
 27 28  1  0  0  0
 28 29  1  0  0  0
 29 30  1  0  0  0
 30 31  2  0  0  0
 31 32  1  0  0  0
 32 33  2  0  0  0
 33 34  1  0  0  0
 33 35  1  0  0  0
 35 36  2  0  0  0
 11 12  1  0  0  0
 12 13  2  0  0  0
 13  8  1  0  0  0
  6  1  2  0  0  0
 36 30  1  0  0  0
 25 19  1  0  0  0
 14 15  1  0  0  0
M  END
> <minimizedAffinity>
18.38675

> <CNNscore>
0.3577329218

> <CNNaffinity>
6.7182426453

> <CNN_VS>
2.4033365250

> <CNNaffinity_variance>
0.3428341746

$$$$
[H]c1nc(OC([H])([H])C([H])([H])Oc2nc([H])c(Br)c([H])n2)c(-c2c([H])c([H])c(C([H])([H])[H])c([H])c2[H])c(N([H])S(=O)(=O)c2c([H])c([H])c(Cl)c([H])c2[H])n1


 36 39  0  0  0  0  0  0  0  0999 V2000
   23.4643    8.5788   54.6181 C   0  0  0  0  0  0  0  0  0  0  0  0
   23.4911    9.8564   55.0585 C   0  0  0  0  0  0  0  0  0  0  0  0
   24.6894   10.2949   55.7636 N   0  0  0  0  0  0  0  0  0  0  0  0
   25.7021    9.5049   55.9679 C   0  0  0  0  0  0  0  0  0  0  0  0
   25.6881    8.2381   55.5363 N   0  0  0  0  0  0  0  0  0  0  0  0
   24.6660    7.7835   54.9206 C   0  0  0  0  0  0  0  0  0  0  0  0
   19.0017    7.5333   51.2704 C   0  0  0  0  0  0  0  0  0  0  0  0
   20.1757    7.5402   52.1664 C   0  0  0  0  0  0  0  0  0  0  0  0
   20.1154    7.6387   53.5047 C   0  0  0  0  0  0  0  0  0  0  0  0
   21.1608    7.8324   54.3585 C   0  0  0  0  0  0  0  0  0  0  0  0
   22.4701    7.9368   53.8276 C   0  0  0  0  0  0  0  0  0  0  0  0
   22.5640    7.8028   52.4505 C   0  0  0  0  0  0  0  0  0  0  0  0
   21.4938    7.6023   51.5732 C   0  0  0  0  0  0  0  0  0  0  0  0
   22.4407   10.7430   54.9552 N   0  0  0  0  0  0  0  0  0  0  0  0
   22.0405   11.3226   55.6310 H   0  0  0  0  0  0  0  0  0  0  0  0
   21.6387   10.7773   53.3539 S   0  0  0  0  0  0  0  0  0  0  0  0
   22.6493    9.9204   52.5011 O   0  0  0  0  0  0  0  0  0  0  0  0
   20.3955    9.9667   53.3711 O   0  0  0  0  0  0  0  0  0  0  0  0
   21.5164   12.2873   52.6159 C   0  0  0  0  0  0  0  0  0  0  0  0
   20.6476   13.2084   53.0536 C   0  0  0  0  0  0  0  0  0  0  0  0
   20.3470   14.4050   52.5441 C   0  0  0  0  0  0  0  0  0  0  0  0
   20.9982   14.7706   51.3859 C   0  0  0  0  0  0  0  0  0  0  0  0
   20.6854   16.3175   50.6014 Cl  0  0  0  0  0  0  0  0  0  0  0  0
   21.9384   13.9018   50.7660 C   0  0  0  0  0  0  0  0  0  0  0  0
   22.1834   12.6619   51.4076 C   0  0  0  0  0  0  0  0  0  0  0  0
   24.4914    6.5023   54.4891 O   0  0  0  0  0  0  0  0  0  0  0  0
   23.6057    5.6160   54.3864 C   0  0  0  0  0  0  0  0  0  0  0  0
   22.7598    4.9040   53.4460 C   0  0  0  0  0  0  0  0  0  0  0  0
   21.5418    4.4969   53.4386 O   0  0  0  0  0  0  0  0  0  0  0  0
   20.3378    4.0952   53.4232 C   0  0  0  0  0  0  0  0  0  0  0  0
   19.3286    4.8693   54.1609 N   0  0  0  0  0  0  0  0  0  0  0  0
   18.0363    4.5477   54.1734 C   0  0  0  0  0  0  0  0  0  0  0  0
   17.5965    3.4260   53.4588 C   0  0  0  0  0  0  0  0  0  0  0  0
   15.7585    2.9439   53.5179 Br  0  0  0  0  0  0  0  0  0  0  0  0
   18.5169    2.6776   52.7735 C   0  0  0  0  0  0  0  0  0  0  0  0
   19.7336    3.0367   52.8130 N   0  0  0  0  0  0  0  0  0  0  0  0
  7  8  1  0  0  0
  8  9  2  0  0  0
  9 10  1  0  0  0
 10 11  2  0  0  0
 11  1  1  0  0  0
  1  2  1  0  0  0
  2 14  1  0  0  0
 14 16  1  0  0  0
 16 17  2  0  0  0
 16 18  2  0  0  0
 16 19  1  0  0  0
 19 20  2  0  0  0
 20 21  1  0  0  0
 21 22  2  0  0  0
 22 23  1  0  0  0
 22 24  1  0  0  0
 24 25  2  0  0  0
  2  3  2  0  0  0
  3  4  1  0  0  0
  4  5  2  0  0  0
  5  6  1  0  0  0
  6 26  1  0  0  0
 26 27  1  0  0  0
 27 28  1  0  0  0
 28 29  1  0  0  0
 29 30  1  0  0  0
 30 31  2  0  0  0
 31 32  1  0  0  0
 32 33  2  0  0  0
 33 34  1  0  0  0
 33 35  1  0  0  0
 35 36  2  0  0  0
 11 12  1  0  0  0
 12 13  2  0  0  0
 13  8  1  0  0  0
  6  1  2  0  0  0
 36 30  1  0  0  0
 25 19  1  0  0  0
 14 15  1  0  0  0
M  END
> <minimizedAffinity>
36.05435

> <CNNscore>
0.3309423923

> <CNNaffinity>
6.2432832718

> <CNN_VS>
2.0661671162

> <CNNaffinity_variance>
0.3697472811

$$$$
[H]c1nc(N([H])[C@@]([H])(c2c([H])c([H])c(Cl)c([H])c2[H])C([H])([H])N([H])C([H])([H])[H])c2nc([H])c([H])c(C(=O)N([H])[H])c2n1


 29 31  0  0  0  0  0  0  0  0999 V2000
   20.5675    7.9397   52.4214 C   0  0  0  0  0  0  0  0  0  0  0  0
   20.2918    7.9315   51.1048 N   0  0  0  0  0  0  0  0  0  0  0  0
   20.4258    9.0572   50.3513 C   0  0  0  0  0  0  0  0  0  0  0  0
   20.8407   10.2262   50.8950 N   0  0  0  0  0  0  0  0  0  0  0  0
   21.1273   10.2902   52.1938 C   0  0  0  0  0  0  0  0  0  0  0  0
   21.5505   11.4804   52.7487 C   0  0  0  0  0  0  0  0  0  0  0  0
   21.8281   11.4684   54.0980 C   0  0  0  0  0  0  0  0  0  0  0  0
   21.6853   10.3195   54.8395 C   0  0  0  0  0  0  0  0  0  0  0  0
   21.2717    9.1815   54.2651 N   0  0  0  0  0  0  0  0  0  0  0  0
   20.9884    9.1336   52.9630 C   0  0  0  0  0  0  0  0  0  0  0  0
   21.7091   12.7065   51.9751 C   0  0  0  0  0  0  0  0  0  0  0  0
   20.7417   13.7195   52.0793 N   0  0  0  0  0  0  0  0  0  0  0  0
   22.7013   12.8815   51.2086 O   0  0  0  0  0  0  0  0  0  0  0  0
   20.4788   14.2172   51.1827 H   0  0  0  0  0  0  0  0  0  0  0  0
   20.3158   13.9573   52.9892 H   0  0  0  0  0  0  0  0  0  0  0  0
   20.4246    6.7546   53.1937 N   0  0  0  0  0  0  0  0  0  0  0  0
   19.5403    6.6474   53.7454 H   0  0  0  0  0  0  0  0  0  0  0  0
   21.4456    5.7321   53.2276 C   0  0  0  0  0  0  0  0  0  0  0  0
   22.7357    6.3154   53.5967 C   0  0  0  0  0  0  0  0  0  0  0  0
   23.4005    6.0440   54.7725 C   0  0  0  0  0  0  0  0  0  0  0  0
   24.6163    6.6210   55.0720 C   0  0  0  0  0  0  0  0  0  0  0  0
   25.2011    7.4960   54.1862 C   0  0  0  0  0  0  0  0  0  0  0  0
   26.7511    8.2335   54.5648 Cl  0  0  0  0  0  0  0  0  0  0  0  0
   24.5548    7.7846   53.0001 C   0  0  0  0  0  0  0  0  0  0  0  0
   23.3447    7.1953   52.7280 C   0  0  0  0  0  0  0  0  0  0  0  0
   20.9883    4.6070   54.1224 C   0  0  0  0  0  0  0  0  0  0  0  0
   19.6553    2.9881   52.9344 C   0  0  0  0  0  0  0  0  0  0  0  0
   19.6825    4.1186   53.8128 N   0  0  0  0  0  0  0  0  0  0  0  0
   19.1988    3.8733   54.6859 H   0  0  0  0  0  0  0  0  0  0  0  0
 27 28  1  0  0  0
 28 26  1  0  0  0
 26 18  1  0  0  0
 18 16  1  0  0  0
 16  1  1  0  0  0
  1  2  2  0  0  0
  2  3  1  0  0  0
  3  4  2  0  0  0
  4  5  1  0  0  0
  5  6  2  0  0  0
  6 11  1  0  0  0
 11 12  1  0  0  0
 11 13  2  0  0  0
  6  7  1  0  0  0
  7  8  2  0  0  0
  8  9  1  0  0  0
  9 10  2  0  0  0
 18 19  1  0  0  0
 19 20  2  0  0  0
 20 21  1  0  0  0
 21 22  2  0  0  0
 22 23  1  0  0  0
 22 24  1  0  0  0
 24 25  2  0  0  0
 10  1  1  0  0  0
 25 19  1  0  0  0
 10  5  1  0  0  0
 28 29  1  0  0  0
 16 17  1  0  0  0
 12 14  1  0  0  0
 12 15  1  0  0  0
M  END
> <minimizedAffinity>
11.81755

> <CNNscore>
0.6344352961

> <CNNaffinity>
6.4315032959

> <CNN_VS>
4.0803728104

> <CNNaffinity_variance>
0.3330442607

$$$$
[H]c1nc(N([H])[C@@]([H])(c2c([H])c([H])c(Cl)c([H])c2[H])C([H])([H])N([H])C([H])([H])[H])c2nc([H])c([H])c(C(=O)N([H])[H])c2n1


 29 31  0  0  0  0  0  0  0  0999 V2000
   21.9392    9.0049   54.5367 C   0  0  0  0  0  0  0  0  0  0  0  0
   22.0592    9.7471   55.6523 N   0  0  0  0  0  0  0  0  0  0  0  0
   21.9466   11.1030   55.6102 C   0  0  0  0  0  0  0  0  0  0  0  0
   21.7100   11.7567   54.4478 N   0  0  0  0  0  0  0  0  0  0  0  0
   21.5824   11.0706   53.3138 C   0  0  0  0  0  0  0  0  0  0  0  0
   21.3409   11.7354   52.1291 C   0  0  0  0  0  0  0  0  0  0  0  0
   21.2209   10.9580   50.9982 C   0  0  0  0  0  0  0  0  0  0  0  0
   21.3386    9.5898   51.0644 C   0  0  0  0  0  0  0  0  0  0  0  0
   21.5733    8.9791   52.2341 N   0  0  0  0  0  0  0  0  0  0  0  0
   21.6988    9.6803   53.3613 C   0  0  0  0  0  0  0  0  0  0  0  0
   21.2113   13.1855   52.0432 C   0  0  0  0  0  0  0  0  0  0  0  0
   20.2408   13.8399   52.8195 N   0  0  0  0  0  0  0  0  0  0  0  0
   21.9549   13.8723   51.2829 O   0  0  0  0  0  0  0  0  0  0  0  0
   19.7206   14.6362   52.3547 H   0  0  0  0  0  0  0  0  0  0  0  0
   20.0530   13.5498   53.7923 H   0  0  0  0  0  0  0  0  0  0  0  0
   22.0571    7.5895   54.5983 N   0  0  0  0  0  0  0  0  0  0  0  0
   21.4516    7.0892   55.2919 H   0  0  0  0  0  0  0  0  0  0  0  0
   22.9681    6.8568   53.7483 C   0  0  0  0  0  0  0  0  0  0  0  0
   24.3236    7.3926   53.8766 C   0  0  0  0  0  0  0  0  0  0  0  0
   25.0567    7.9042   52.8283 C   0  0  0  0  0  0  0  0  0  0  0  0
   26.3319    8.3981   53.0036 C   0  0  0  0  0  0  0  0  0  0  0  0
   26.9088    8.3898   54.2523 C   0  0  0  0  0  0  0  0  0  0  0  0
   28.5345    9.0188   54.4794 Cl  0  0  0  0  0  0  0  0  0  0  0  0
   26.1945    7.8824   55.3200 C   0  0  0  0  0  0  0  0  0  0  0  0
   24.9263    7.3968   55.1162 C   0  0  0  0  0  0  0  0  0  0  0  0
   22.8463    5.3834   54.0481 C   0  0  0  0  0  0  0  0  0  0  0  0
   20.6210    5.7740   53.2089 C   0  0  0  0  0  0  0  0  0  0  0  0
   21.5699    4.8323   53.7218 N   0  0  0  0  0  0  0  0  0  0  0  0
   21.6943    4.0777   53.0351 H   0  0  0  0  0  0  0  0  0  0  0  0
 27 28  1  0  0  0
 28 26  1  0  0  0
 26 18  1  0  0  0
 18 16  1  0  0  0
 16  1  1  0  0  0
  1  2  2  0  0  0
  2  3  1  0  0  0
  3  4  2  0  0  0
  4  5  1  0  0  0
  5  6  2  0  0  0
  6 11  1  0  0  0
 11 12  1  0  0  0
 11 13  2  0  0  0
  6  7  1  0  0  0
  7  8  2  0  0  0
  8  9  1  0  0  0
  9 10  2  0  0  0
 18 19  1  0  0  0
 19 20  2  0  0  0
 20 21  1  0  0  0
 21 22  2  0  0  0
 22 23  1  0  0  0
 22 24  1  0  0  0
 24 25  2  0  0  0
 10  1  1  0  0  0
 25 19  1  0  0  0
 10  5  1  0  0  0
 28 29  1  0  0  0
 16 17  1  0  0  0
 12 14  1  0  0  0
 12 15  1  0  0  0
M  END
> <minimizedAffinity>
14.04223

> <CNNscore>
0.6088826060

> <CNNaffinity>
6.3417081833

> <CNN_VS>
3.8613557816

> <CNNaffinity_variance>
0.3334425986

$$$$
[H]c1nc(N([H])[C@@]([H])(c2c([H])c([H])c(Cl)c([H])c2[H])C([H])([H])N([H])C([H])([H])[H])c2nc([H])c([H])c(C(=O)N([H])[H])c2n1


 29 31  0  0  0  0  0  0  0  0999 V2000
   23.6230    9.3213   55.4282 C   0  0  0  0  0  0  0  0  0  0  0  0
   23.9273    9.6602   56.6940 N   0  0  0  0  0  0  0  0  0  0  0  0
   25.2182    9.6797   57.1256 C   0  0  0  0  0  0  0  0  0  0  0  0
   26.2439    9.3600   56.3009 N   0  0  0  0  0  0  0  0  0  0  0  0
   25.9989    9.0174   55.0378 C   0  0  0  0  0  0  0  0  0  0  0  0
   27.0431    8.6920   54.1966 C   0  0  0  0  0  0  0  0  0  0  0  0
   26.7111    8.3481   52.9047 C   0  0  0  0  0  0  0  0  0  0  0  0
   25.4001    8.3351   52.4906 C   0  0  0  0  0  0  0  0  0  0  0  0
   24.4122    8.6576   53.3369 N   0  0  0  0  0  0  0  0  0  0  0  0
   24.6738    8.9984   54.5992 C   0  0  0  0  0  0  0  0  0  0  0  0
   28.4386    8.7034   54.6202 C   0  0  0  0  0  0  0  0  0  0  0  0
   29.1617    7.4997   54.6504 N   0  0  0  0  0  0  0  0  0  0  0  0
   29.0171    9.7761   54.9629 O   0  0  0  0  0  0  0  0  0  0  0  0
   29.8188    7.3624   55.4690 H   0  0  0  0  0  0  0  0  0  0  0  0
   29.0493    6.7925   53.9067 H   0  0  0  0  0  0  0  0  0  0  0  0
   22.2697    9.3083   54.9926 N   0  0  0  0  0  0  0  0  0  0  0  0
   21.5830    9.8706   55.5495 H   0  0  0  0  0  0  0  0  0  0  0  0
   21.8428    8.5569   53.8339 C   0  0  0  0  0  0  0  0  0  0  0  0
   22.5545    7.2802   53.7668 C   0  0  0  0  0  0  0  0  0  0  0  0
   22.8417    6.4951   54.8619 C   0  0  0  0  0  0  0  0  0  0  0  0
   23.5155    5.2981   54.7436 C   0  0  0  0  0  0  0  0  0  0  0  0
   23.9224    4.8553   53.5064 C   0  0  0  0  0  0  0  0  0  0  0  0
   24.7817    3.3297   53.3519 Cl  0  0  0  0  0  0  0  0  0  0  0  0
   23.6464    5.6241   52.3926 C   0  0  0  0  0  0  0  0  0  0  0  0
   22.9738    6.8122   52.5401 C   0  0  0  0  0  0  0  0  0  0  0  0
   20.3393    8.4355   53.8505 C   0  0  0  0  0  0  0  0  0  0  0  0
   19.6429    6.1759   53.3837 C   0  0  0  0  0  0  0  0  0  0  0  0
   19.8252    7.5087   52.8933 N   0  0  0  0  0  0  0  0  0  0  0  0
   18.9269    7.8575   52.5356 H   0  0  0  0  0  0  0  0  0  0  0  0
 27 28  1  0  0  0
 28 26  1  0  0  0
 26 18  1  0  0  0
 18 16  1  0  0  0
 16  1  1  0  0  0
  1  2  2  0  0  0
  2  3  1  0  0  0
  3  4  2  0  0  0
  4  5  1  0  0  0
  5  6  2  0  0  0
  6 11  1  0  0  0
 11 12  1  0  0  0
 11 13  2  0  0  0
  6  7  1  0  0  0
  7  8  2  0  0  0
  8  9  1  0  0  0
  9 10  2  0  0  0
 18 19  1  0  0  0
 19 20  2  0  0  0
 20 21  1  0  0  0
 21 22  2  0  0  0
 22 23  1  0  0  0
 22 24  1  0  0  0
 24 25  2  0  0  0
 10  1  1  0  0  0
 25 19  1  0  0  0
 10  5  1  0  0  0
 28 29  1  0  0  0
 16 17  1  0  0  0
 12 14  1  0  0  0
 12 15  1  0  0  0
M  END
> <minimizedAffinity>
20.08868

> <CNNscore>
0.5617936850

> <CNNaffinity>
6.1145334244

> <CNN_VS>
3.4351062775

> <CNNaffinity_variance>
0.7019658089

$$$$
[H]c1nc(N([H])[C@@]([H])(c2c([H])c([H])c(Cl)c([H])c2[H])C([H])([H])N([H])C([H])([H])[H])c2nc([H])c([H])c(C(=O)N([H])[H])c2n1


 29 31  0  0  0  0  0  0  0  0999 V2000
   24.4611    8.8825   53.4589 C   0  0  0  0  0  0  0  0  0  0  0  0
   25.3815    8.4710   52.5682 N   0  0  0  0  0  0  0  0  0  0  0  0
   26.6848    8.3112   52.9270 C   0  0  0  0  0  0  0  0  0  0  0  0
   27.1055    8.5590   54.1903 N   0  0  0  0  0  0  0  0  0  0  0  0
   26.2360    8.9683   55.1119 C   0  0  0  0  0  0  0  0  0  0  0  0
   26.6633    9.2205   56.3993 C   0  0  0  0  0  0  0  0  0  0  0  0
   25.7060    9.6405   57.2965 C   0  0  0  0  0  0  0  0  0  0  0  0
   24.3952    9.7953   56.9118 C   0  0  0  0  0  0  0  0  0  0  0  0
   24.0174    9.5403   55.6514 N   0  0  0  0  0  0  0  0  0  0  0  0
   24.9004    9.1311   54.7399 C   0  0  0  0  0  0  0  0  0  0  0  0
   28.0493    9.0588   56.8232 C   0  0  0  0  0  0  0  0  0  0  0  0
   28.3855    9.2468   58.1739 N   0  0  0  0  0  0  0  0  0  0  0  0
   28.9612    8.7518   56.0004 O   0  0  0  0  0  0  0  0  0  0  0  0
   29.2952    9.7517   58.3696 H   0  0  0  0  0  0  0  0  0  0  0  0
   27.7688    8.9058   58.9284 H   0  0  0  0  0  0  0  0  0  0  0  0
   23.1034    9.0421   53.0685 N   0  0  0  0  0  0  0  0  0  0  0  0
   22.8338    9.9599   52.6409 H   0  0  0  0  0  0  0  0  0  0  0  0
   22.1244    7.9937   53.2471 C   0  0  0  0  0  0  0  0  0  0  0  0
   22.7857    6.6913   53.3320 C   0  0  0  0  0  0  0  0  0  0  0  0
   22.7278    5.8635   54.4318 C   0  0  0  0  0  0  0  0  0  0  0  0
   23.3698    4.6437   54.4600 C   0  0  0  0  0  0  0  0  0  0  0  0
   24.0948    4.2207   53.3703 C   0  0  0  0  0  0  0  0  0  0  0  0
   24.9146    2.6660   53.4029 Cl  0  0  0  0  0  0  0  0  0  0  0  0
   24.1683    5.0323   52.2551 C   0  0  0  0  0  0  0  0  0  0  0  0
   23.5190    6.2423   52.2547 C   0  0  0  0  0  0  0  0  0  0  0  0
   21.2505    8.3304   54.4297 C   0  0  0  0  0  0  0  0  0  0  0  0
   21.4198   10.5623   53.5360 C   0  0  0  0  0  0  0  0  0  0  0  0
   21.1076    9.7325   54.6604 N   0  0  0  0  0  0  0  0  0  0  0  0
   20.1444    9.9280   54.9610 H   0  0  0  0  0  0  0  0  0  0  0  0
 27 28  1  0  0  0
 28 26  1  0  0  0
 26 18  1  0  0  0
 18 16  1  0  0  0
 16  1  1  0  0  0
  1  2  2  0  0  0
  2  3  1  0  0  0
  3  4  2  0  0  0
  4  5  1  0  0  0
  5  6  2  0  0  0
  6 11  1  0  0  0
 11 12  1  0  0  0
 11 13  2  0  0  0
  6  7  1  0  0  0
  7  8  2  0  0  0
  8  9  1  0  0  0
  9 10  2  0  0  0
 18 19  1  0  0  0
 19 20  2  0  0  0
 20 21  1  0  0  0
 21 22  2  0  0  0
 22 23  1  0  0  0
 22 24  1  0  0  0
 24 25  2  0  0  0
 10  1  1  0  0  0
 25 19  1  0  0  0
 10  5  1  0  0  0
 28 29  1  0  0  0
 16 17  1  0  0  0
 12 14  1  0  0  0
 12 15  1  0  0  0
M  END
> <minimizedAffinity>
25.74701

> <CNNscore>
0.5615834594

> <CNNaffinity>
5.8845996857

> <CNN_VS>
3.3046939373

> <CNNaffinity_variance>
0.4320000708

$$$$
[H]c1nc(N([H])[C@@]([H])(c2c([H])c([H])c(Cl)c([H])c2[H])C([H])([H])N([H])C([H])([H])[H])c2nc([H])c([H])c(C(=O)N([H])[H])c2n1


 29 31  0  0  0  0  0  0  0  0999 V2000
   25.9924    7.8707   53.7992 C   0  0  0  0  0  0  0  0  0  0  0  0
   27.2145    7.4962   53.3798 N   0  0  0  0  0  0  0  0  0  0  0  0
   28.3294    7.8062   54.0966 C   0  0  0  0  0  0  0  0  0  0  0  0
   28.2532    8.5013   55.2564 N   0  0  0  0  0  0  0  0  0  0  0  0
   27.0682    8.8964   55.7176 C   0  0  0  0  0  0  0  0  0  0  0  0
   26.9893    9.6042   56.8993 C   0  0  0  0  0  0  0  0  0  0  0  0
   25.7293    9.9783   57.3121 C   0  0  0  0  0  0  0  0  0  0  0  0
   24.6171    9.6544   56.5717 C   0  0  0  0  0  0  0  0  0  0  0  0
   24.7333    8.9652   55.4282 N   0  0  0  0  0  0  0  0  0  0  0  0
   25.9274    8.5767   54.9794 C   0  0  0  0  0  0  0  0  0  0  0  0
   28.1594    9.9533   57.6969 C   0  0  0  0  0  0  0  0  0  0  0  0
   28.6552    9.0339   58.6358 N   0  0  0  0  0  0  0  0  0  0  0  0
   28.7420   11.0693   57.5634 O   0  0  0  0  0  0  0  0  0  0  0  0
   28.9856    9.4319   59.5594 H   0  0  0  0  0  0  0  0  0  0  0  0
   28.6903    8.0239   58.4246 H   0  0  0  0  0  0  0  0  0  0  0  0
   24.8378    7.5368   53.0399 N   0  0  0  0  0  0  0  0  0  0  0  0
   24.9702    7.3808   52.0123 H   0  0  0  0  0  0  0  0  0  0  0  0
   23.5303    7.4141   53.6438 C   0  0  0  0  0  0  0  0  0  0  0  0
   22.7880    8.6674   53.5054 C   0  0  0  0  0  0  0  0  0  0  0  0
   22.4442    9.2347   52.2978 C   0  0  0  0  0  0  0  0  0  0  0  0
   21.7424   10.4190   52.2228 C   0  0  0  0  0  0  0  0  0  0  0  0
   21.3642   11.0705   53.3737 C   0  0  0  0  0  0  0  0  0  0  0  0
   20.4693   12.5806   53.2817 Cl  0  0  0  0  0  0  0  0  0  0  0  0
   21.6966   10.5223   54.5971 C   0  0  0  0  0  0  0  0  0  0  0  0
   22.3962    9.3415   54.6420 C   0  0  0  0  0  0  0  0  0  0  0  0
   22.8324    6.2064   53.0694 C   0  0  0  0  0  0  0  0  0  0  0  0
   20.4454    6.5200   53.1825 C   0  0  0  0  0  0  0  0  0  0  0  0
   21.6064    5.8823   53.7263 N   0  0  0  0  0  0  0  0  0  0  0  0
   21.4695    4.8640   53.7008 H   0  0  0  0  0  0  0  0  0  0  0  0
 27 28  1  0  0  0
 28 26  1  0  0  0
 26 18  1  0  0  0
 18 16  1  0  0  0
 16  1  1  0  0  0
  1  2  2  0  0  0
  2  3  1  0  0  0
  3  4  2  0  0  0
  4  5  1  0  0  0
  5  6  2  0  0  0
  6 11  1  0  0  0
 11 12  1  0  0  0
 11 13  2  0  0  0
  6  7  1  0  0  0
  7  8  2  0  0  0
  8  9  1  0  0  0
  9 10  2  0  0  0
 18 19  1  0  0  0
 19 20  2  0  0  0
 20 21  1  0  0  0
 21 22  2  0  0  0
 22 23  1  0  0  0
 22 24  1  0  0  0
 24 25  2  0  0  0
 10  1  1  0  0  0
 25 19  1  0  0  0
 10  5  1  0  0  0
 28 29  1  0  0  0
 16 17  1  0  0  0
 12 14  1  0  0  0
 12 15  1  0  0  0
M  END
> <minimizedAffinity>
10.22221

> <CNNscore>
0.5592306852

> <CNNaffinity>
6.1260700226

> <CNN_VS>
3.4258863926

> <CNNaffinity_variance>
0.5063502789

$$$$
[H]c1nc(N([H])[C@@]([H])(c2c([H])c([H])c(Cl)c([H])c2[H])C([H])([H])N([H])C([H])([H])[H])c2nc([H])c([H])c(C(=O)N([H])[H])c2n1


 29 31  0  0  0  0  0  0  0  0999 V2000
   24.2988    8.8455   54.2285 C   0  0  0  0  0  0  0  0  0  0  0  0
   23.4602    9.3779   55.1356 N   0  0  0  0  0  0  0  0  0  0  0  0
   23.9174    9.8301   56.3354 C   0  0  0  0  0  0  0  0  0  0  0  0
   25.2299    9.7624   56.6625 N   0  0  0  0  0  0  0  0  0  0  0  0
   26.1035    9.2448   55.8012 C   0  0  0  0  0  0  0  0  0  0  0  0
   27.4409    9.1757   56.1332 C   0  0  0  0  0  0  0  0  0  0  0  0
   28.2835    8.6277   55.1911 C   0  0  0  0  0  0  0  0  0  0  0  0
   27.7994    8.1771   53.9858 C   0  0  0  0  0  0  0  0  0  0  0  0
   26.4930    8.2610   53.6987 N   0  0  0  0  0  0  0  0  0  0  0  0
   25.6306    8.7820   54.5720 C   0  0  0  0  0  0  0  0  0  0  0  0
   27.9698    9.6514   57.4063 C   0  0  0  0  0  0  0  0  0  0  0  0
   28.0669    8.7629   58.4898 N   0  0  0  0  0  0  0  0  0  0  0  0
   28.3454   10.8507   57.5601 O   0  0  0  0  0  0  0  0  0  0  0  0
   27.8131    9.1484   59.4425 H   0  0  0  0  0  0  0  0  0  0  0  0
   28.3710    7.7861   58.3515 H   0  0  0  0  0  0  0  0  0  0  0  0
   23.8054    8.3800   52.9790 N   0  0  0  0  0  0  0  0  0  0  0  0
   24.1872    8.8341   52.1153 H   0  0  0  0  0  0  0  0  0  0  0  0
   22.8196    7.3270   52.8865 C   0  0  0  0  0  0  0  0  0  0  0  0
   23.4664    6.0175   52.9751 C   0  0  0  0  0  0  0  0  0  0  0  0
   23.3234    5.1535   54.0387 C   0  0  0  0  0  0  0  0  0  0  0  0
   23.9555    3.9286   54.0724 C   0  0  0  0  0  0  0  0  0  0  0  0
   24.7567    3.5372   53.0250 C   0  0  0  0  0  0  0  0  0  0  0  0
   25.5640    1.9762   53.0646 Cl  0  0  0  0  0  0  0  0  0  0  0  0
   24.9162    4.3854   51.9466 C   0  0  0  0  0  0  0  0  0  0  0  0
   24.2747    5.5996   51.9399 C   0  0  0  0  0  0  0  0  0  0  0  0
   21.7443    7.5653   53.9173 C   0  0  0  0  0  0  0  0  0  0  0  0
   20.8341    8.8934   52.1239 C   0  0  0  0  0  0  0  0  0  0  0  0
   20.7139    8.4525   53.4809 N   0  0  0  0  0  0  0  0  0  0  0  0
   19.8015    7.9951   53.6026 H   0  0  0  0  0  0  0  0  0  0  0  0
 27 28  1  0  0  0
 28 26  1  0  0  0
 26 18  1  0  0  0
 18 16  1  0  0  0
 16  1  1  0  0  0
  1  2  2  0  0  0
  2  3  1  0  0  0
  3  4  2  0  0  0
  4  5  1  0  0  0
  5  6  2  0  0  0
  6 11  1  0  0  0
 11 12  1  0  0  0
 11 13  2  0  0  0
  6  7  1  0  0  0
  7  8  2  0  0  0
  8  9  1  0  0  0
  9 10  2  0  0  0
 18 19  1  0  0  0
 19 20  2  0  0  0
 20 21  1  0  0  0
 21 22  2  0  0  0
 22 23  1  0  0  0
 22 24  1  0  0  0
 24 25  2  0  0  0
 10  1  1  0  0  0
 25 19  1  0  0  0
 10  5  1  0  0  0
 28 29  1  0  0  0
 16 17  1  0  0  0
 12 14  1  0  0  0
 12 15  1  0  0  0
M  END
> <minimizedAffinity>
21.71696

> <CNNscore>
0.5462112427

> <CNNaffinity>
6.1658411026

> <CNN_VS>
3.3678517342

> <CNNaffinity_variance>
0.3687564731

$$$$
[H]c1nc(N([H])[C@@]([H])(c2c([H])c([H])c(Cl)c([H])c2[H])C([H])([H])N([H])C([H])([H])[H])c2nc([H])c([H])c(C(=O)N([H])[H])c2n1


 29 31  0  0  0  0  0  0  0  0999 V2000
   21.1202    7.5511   53.4097 C   0  0  0  0  0  0  0  0  0  0  0  0
   20.8540    7.0932   52.1731 N   0  0  0  0  0  0  0  0  0  0  0  0
   20.7998    7.9381   51.1071 C   0  0  0  0  0  0  0  0  0  0  0  0
   21.0112    9.2683   51.2483 N   0  0  0  0  0  0  0  0  0  0  0  0
   21.2789    9.7747   52.4503 C   0  0  0  0  0  0  0  0  0  0  0  0
   21.4949   11.1297   52.5953 C   0  0  0  0  0  0  0  0  0  0  0  0
   21.7663   11.5789   53.8690 C   0  0  0  0  0  0  0  0  0  0  0  0
   21.8158   10.7073   54.9311 C   0  0  0  0  0  0  0  0  0  0  0  0
   21.6006    9.3967   54.7512 N   0  0  0  0  0  0  0  0  0  0  0  0
   21.3334    8.9050   53.5409 C   0  0  0  0  0  0  0  0  0  0  0  0
   21.4481   12.0663   51.4784 C   0  0  0  0  0  0  0  0  0  0  0  0
   21.7992   13.4100   51.6881 N   0  0  0  0  0  0  0  0  0  0  0  0
   21.0975   11.6969   50.3194 O   0  0  0  0  0  0  0  0  0  0  0  0
   21.2102   14.1363   51.1917 H   0  0  0  0  0  0  0  0  0  0  0  0
   22.5928   13.6640   52.2975 H   0  0  0  0  0  0  0  0  0  0  0  0
   21.1756    6.6550   54.5121 N   0  0  0  0  0  0  0  0  0  0  0  0
   20.3063    6.5514   55.0878 H   0  0  0  0  0  0  0  0  0  0  0  0
   22.3714    5.9115   54.8384 C   0  0  0  0  0  0  0  0  0  0  0  0
   23.5620    6.6933   54.5034 C   0  0  0  0  0  0  0  0  0  0  0  0
   24.0560    7.7216   55.2760 C   0  0  0  0  0  0  0  0  0  0  0  0
   25.1840    8.4273   54.9146 C   0  0  0  0  0  0  0  0  0  0  0  0
   25.8513    8.1131   53.7535 C   0  0  0  0  0  0  0  0  0  0  0  0
   27.2897    9.0108   53.2898 Cl  0  0  0  0  0  0  0  0  0  0  0  0
   25.3763    7.0861   52.9615 C   0  0  0  0  0  0  0  0  0  0  0  0
   24.2504    6.4002   53.3459 C   0  0  0  0  0  0  0  0  0  0  0  0
   22.2990    5.4669   56.2781 C   0  0  0  0  0  0  0  0  0  0  0  0
   23.1647    3.8180   57.8079 C   0  0  0  0  0  0  0  0  0  0  0  0
   23.4182    4.6850   56.6969 N   0  0  0  0  0  0  0  0  0  0  0  0
   23.7511    4.1216   55.9043 H   0  0  0  0  0  0  0  0  0  0  0  0
 27 28  1  0  0  0
 28 26  1  0  0  0
 26 18  1  0  0  0
 18 16  1  0  0  0
 16  1  1  0  0  0
  1  2  2  0  0  0
  2  3  1  0  0  0
  3  4  2  0  0  0
  4  5  1  0  0  0
  5  6  2  0  0  0
  6 11  1  0  0  0
 11 12  1  0  0  0
 11 13  2  0  0  0
  6  7  1  0  0  0
  7  8  2  0  0  0
  8  9  1  0  0  0
  9 10  2  0  0  0
 18 19  1  0  0  0
 19 20  2  0  0  0
 20 21  1  0  0  0
 21 22  2  0  0  0
 22 23  1  0  0  0
 22 24  1  0  0  0
 24 25  2  0  0  0
 10  1  1  0  0  0
 25 19  1  0  0  0
 10  5  1  0  0  0
 28 29  1  0  0  0
 16 17  1  0  0  0
 12 14  1  0  0  0
 12 15  1  0  0  0
M  END
> <minimizedAffinity>
8.68400

> <CNNscore>
0.5442168117

> <CNNaffinity>
6.3366928101

> <CNN_VS>
3.4485347271

> <CNNaffinity_variance>
0.2294195592

$$$$
[H]c1nc(N([H])[C@@]([H])(c2c([H])c([H])c(Cl)c([H])c2[H])C([H])([H])N([H])C([H])([H])[H])c2nc([H])c([H])c(C(=O)N([H])[H])c2n1


 29 31  0  0  0  0  0  0  0  0999 V2000
   24.5276    7.9473   55.2004 C   0  0  0  0  0  0  0  0  0  0  0  0
   24.8312    6.6972   54.8069 N   0  0  0  0  0  0  0  0  0  0  0  0
   24.0062    6.0013   53.9774 C   0  0  0  0  0  0  0  0  0  0  0  0
   22.8511    6.5378   53.5167 N   0  0  0  0  0  0  0  0  0  0  0  0
   22.5024    7.7719   53.8747 C   0  0  0  0  0  0  0  0  0  0  0  0
   21.3261    8.3197   53.4056 C   0  0  0  0  0  0  0  0  0  0  0  0
   21.0332    9.6005   53.8194 C   0  0  0  0  0  0  0  0  0  0  0  0
   21.8813   10.2845   54.6579 C   0  0  0  0  0  0  0  0  0  0  0  0
   23.0159    9.7193   55.0931 N   0  0  0  0  0  0  0  0  0  0  0  0
   23.3511    8.4821   54.7257 C   0  0  0  0  0  0  0  0  0  0  0  0
   20.4175    7.6079   52.5140 C   0  0  0  0  0  0  0  0  0  0  0  0
   19.7195    6.4860   52.9903 N   0  0  0  0  0  0  0  0  0  0  0  0
   20.2414    7.9776   51.3161 O   0  0  0  0  0  0  0  0  0  0  0  0
   19.6245    5.6692   52.3236 H   0  0  0  0  0  0  0  0  0  0  0  0
   19.3242    6.4704   53.9439 H   0  0  0  0  0  0  0  0  0  0  0  0
   25.4014    8.6613   56.0653 N   0  0  0  0  0  0  0  0  0  0  0  0
   24.9625    9.2006   56.8491 H   0  0  0  0  0  0  0  0  0  0  0  0
   26.8355    8.6543   55.8848 C   0  0  0  0  0  0  0  0  0  0  0  0
   27.1708    8.8728   54.4774 C   0  0  0  0  0  0  0  0  0  0  0  0
   26.3661    8.5009   53.4228 C   0  0  0  0  0  0  0  0  0  0  0  0
   26.7293    8.7309   52.1128 C   0  0  0  0  0  0  0  0  0  0  0  0
   27.9249    9.3481   51.8270 C   0  0  0  0  0  0  0  0  0  0  0  0
   28.3911    9.6430   50.1580 Cl  0  0  0  0  0  0  0  0  0  0  0  0
   28.7497    9.7310   52.8667 C   0  0  0  0  0  0  0  0  0  0  0  0
   28.3626    9.4891   54.1619 C   0  0  0  0  0  0  0  0  0  0  0  0
   27.4579    9.6444   56.8377 C   0  0  0  0  0  0  0  0  0  0  0  0
   28.6274    9.9426   58.9239 C   0  0  0  0  0  0  0  0  0  0  0  0
   28.1841    9.0372   57.9070 N   0  0  0  0  0  0  0  0  0  0  0  0
   27.6008    8.3101   58.3401 H   0  0  0  0  0  0  0  0  0  0  0  0
 27 28  1  0  0  0
 28 26  1  0  0  0
 26 18  1  0  0  0
 18 16  1  0  0  0
 16  1  1  0  0  0
  1  2  2  0  0  0
  2  3  1  0  0  0
  3  4  2  0  0  0
  4  5  1  0  0  0
  5  6  2  0  0  0
  6 11  1  0  0  0
 11 12  1  0  0  0
 11 13  2  0  0  0
  6  7  1  0  0  0
  7  8  2  0  0  0
  8  9  1  0  0  0
  9 10  2  0  0  0
 18 19  1  0  0  0
 19 20  2  0  0  0
 20 21  1  0  0  0
 21 22  2  0  0  0
 22 23  1  0  0  0
 22 24  1  0  0  0
 24 25  2  0  0  0
 10  1  1  0  0  0
 25 19  1  0  0  0
 10  5  1  0  0  0
 28 29  1  0  0  0
 16 17  1  0  0  0
 12 14  1  0  0  0
 12 15  1  0  0  0
M  END
> <minimizedAffinity>
10.51038

> <CNNscore>
0.5285877585

> <CNNaffinity>
6.3735742569

> <CNN_VS>
3.3689932823

> <CNNaffinity_variance>
0.3541253209

$$$$
[H]c1nc(N([H])[C@@]([H])(c2c([H])c([H])c(Cl)c([H])c2[H])C([H])([H])N([H])C([H])([H])[H])c2nc([H])c([H])c(C(=O)N([H])[H])c2n1


 29 31  0  0  0  0  0  0  0  0999 V2000
   25.8567    7.9644   53.4172 C   0  0  0  0  0  0  0  0  0  0  0  0
   27.1073    7.6073   53.0737 N   0  0  0  0  0  0  0  0  0  0  0  0
   28.1669    7.8958   53.8781 C   0  0  0  0  0  0  0  0  0  0  0  0
   28.0049    8.5513   55.0522 N   0  0  0  0  0  0  0  0  0  0  0  0
   26.7882    8.9276   55.4406 C   0  0  0  0  0  0  0  0  0  0  0  0
   26.6218    9.5951   56.6367 C   0  0  0  0  0  0  0  0  0  0  0  0
   25.3339    9.9518   56.9708 C   0  0  0  0  0  0  0  0  0  0  0  0
   24.2788    9.6502   56.1427 C   0  0  0  0  0  0  0  0  0  0  0  0
   24.4795    9.0002   54.9879 N   0  0  0  0  0  0  0  0  0  0  0  0
   25.7043    8.6300   54.6127 C   0  0  0  0  0  0  0  0  0  0  0  0
   27.7305    9.9200   57.5268 C   0  0  0  0  0  0  0  0  0  0  0  0
   28.2078    8.9468   58.4200 N   0  0  0  0  0  0  0  0  0  0  0  0
   28.2758   11.0625   57.5145 O   0  0  0  0  0  0  0  0  0  0  0  0
   28.4697    9.2817   59.3895 H   0  0  0  0  0  0  0  0  0  0  0  0
   28.2941    7.9586   58.1342 H   0  0  0  0  0  0  0  0  0  0  0  0
   24.7606    7.6533   52.5668 N   0  0  0  0  0  0  0  0  0  0  0  0
   24.9833    7.2174   51.6403 H   0  0  0  0  0  0  0  0  0  0  0  0
   23.3923    7.9205   52.9484 C   0  0  0  0  0  0  0  0  0  0  0  0
   23.0302    7.1296   54.1249 C   0  0  0  0  0  0  0  0  0  0  0  0
   23.6418    5.9478   54.4820 C   0  0  0  0  0  0  0  0  0  0  0  0
   23.2621    5.2407   55.6030 C   0  0  0  0  0  0  0  0  0  0  0  0
   22.2458    5.7097   56.4026 C   0  0  0  0  0  0  0  0  0  0  0  0
   21.7592    4.8107   57.8326 Cl  0  0  0  0  0  0  0  0  0  0  0  0
   21.6166    6.8924   56.0664 C   0  0  0  0  0  0  0  0  0  0  0  0
   22.0154    7.5758   54.9440 C   0  0  0  0  0  0  0  0  0  0  0  0
   23.2072    9.4085   53.1131 C   0  0  0  0  0  0  0  0  0  0  0  0
   21.1475    9.4503   51.8622 C   0  0  0  0  0  0  0  0  0  0  0  0
   21.8439    9.8298   53.0544 N   0  0  0  0  0  0  0  0  0  0  0  0
   21.3400    9.4546   53.8679 H   0  0  0  0  0  0  0  0  0  0  0  0
 27 28  1  0  0  0
 28 26  1  0  0  0
 26 18  1  0  0  0
 18 16  1  0  0  0
 16  1  1  0  0  0
  1  2  2  0  0  0
  2  3  1  0  0  0
  3  4  2  0  0  0
  4  5  1  0  0  0
  5  6  2  0  0  0
  6 11  1  0  0  0
 11 12  1  0  0  0
 11 13  2  0  0  0
  6  7  1  0  0  0
  7  8  2  0  0  0
  8  9  1  0  0  0
  9 10  2  0  0  0
 18 19  1  0  0  0
 19 20  2  0  0  0
 20 21  1  0  0  0
 21 22  2  0  0  0
 22 23  1  0  0  0
 22 24  1  0  0  0
 24 25  2  0  0  0
 10  1  1  0  0  0
 25 19  1  0  0  0
 10  5  1  0  0  0
 28 29  1  0  0  0
 16 17  1  0  0  0
 12 14  1  0  0  0
 12 15  1  0  0  0
M  END
> <minimizedAffinity>
14.38188

> <CNNscore>
0.5094722509

> <CNNaffinity>
5.9383478165

> <CNN_VS>
3.0254235268

> <CNNaffinity_variance>
0.4310490489

$$$$
[H]Oc1c(OC([H])([H])[H])c(OC([H])([H])[H])c2c3c1-c1c([H])c([H])c([H])c([H])c1C([H])([H])[C@@]3([H])N([H])C([H])([H])C2([H])[H]


 24 27  0  0  0  0  0  0  0  0999 V2000
   26.2209    8.6978   55.1391 C   0  0  0  0  0  0  0  0  0  0  0  0
   24.9696    9.2496   55.3772 C   0  0  0  0  0  0  0  0  0  0  0  0
   24.9717   10.4091   56.1052 O   0  0  0  0  0  0  0  0  0  0  0  0
   23.8638    8.6023   54.8743 C   0  0  0  0  0  0  0  0  0  0  0  0
   23.9708    7.4352   54.1515 C   0  0  0  0  0  0  0  0  0  0  0  0
   25.2427    6.9153   53.9342 C   0  0  0  0  0  0  0  0  0  0  0  0
   26.3685    7.5265   54.4155 C   0  0  0  0  0  0  0  0  0  0  0  0
   25.3463    5.6649   53.1621 C   0  0  0  0  0  0  0  0  0  0  0  0
   24.3090    5.4940   52.1206 C   0  0  0  0  0  0  0  0  0  0  0  0
   23.0499    6.0575   52.3681 N   0  0  0  0  0  0  0  0  0  0  0  0
   22.8447    6.6867   53.6450 C   0  0  0  0  0  0  0  0  0  0  0  0
   21.5595    7.4080   53.5993 C   0  0  0  0  0  0  0  0  0  0  0  0
   21.4364    8.5687   54.4855 C   0  0  0  0  0  0  0  0  0  0  0  0
   20.1550    9.1001   54.7198 C   0  0  0  0  0  0  0  0  0  0  0  0
   19.9601   10.2089   55.4854 C   0  0  0  0  0  0  0  0  0  0  0  0
   21.0666   10.7960   56.0259 C   0  0  0  0  0  0  0  0  0  0  0  0
   22.3703   10.3182   55.8335 C   0  0  0  0  0  0  0  0  0  0  0  0
   22.5401    9.2024   55.0613 C   0  0  0  0  0  0  0  0  0  0  0  0
   25.7805   10.8698   56.4641 H   0  0  0  0  0  0  0  0  0  0  0  0
   22.2560    5.3695   52.2422 H   0  0  0  0  0  0  0  0  0  0  0  0
   27.7474    9.3389   56.9714 C   0  0  0  0  0  0  0  0  0  0  0  0
   27.3455    9.3275   55.6329 O   0  0  0  0  0  0  0  0  0  0  0  0
   27.6175    6.9724   54.1747 O   0  0  0  0  0  0  0  0  0  0  0  0
   28.7605    7.7953   54.1413 C   0  0  0  0  0  0  0  0  0  0  0  0
 21 22  1  0  0  0
 22  1  1  0  0  0
  1  2  2  0  0  0
  2  3  1  0  0  0
  2  4  1  0  0  0
  4  5  2  0  0  0
  5  6  1  0  0  0
  6  7  2  0  0  0
  7 23  1  0  0  0
 23 24  1  0  0  0
  6  8  1  0  0  0
  8  9  1  0  0  0
  9 10  1  0  0  0
 10 11  1  0  0  0
 11 12  1  0  0  0
 12 13  1  0  0  0
 13 14  2  0  0  0
 14 15  1  0  0  0
 15 16  2  0  0  0
 16 17  1  0  0  0
 17 18  2  0  0  0
  7  1  1  0  0  0
 18 13  1  0  0  0
 18  4  1  0  0  0
 11  5  1  0  0  0
  3 19  1  0  0  0
 10 20  1  0  0  0
M  END
> <minimizedAffinity>
18.44863

> <CNNscore>
0.6306485534

> <CNNaffinity>
5.4869756699

> <CNN_VS>
3.4603533745

> <CNNaffinity_variance>
0.2386596203

$$$$
[H]Oc1c(OC([H])([H])[H])c(OC([H])([H])[H])c2c3c1-c1c([H])c([H])c([H])c([H])c1C([H])([H])[C@@]3([H])N([H])C([H])([H])C2([H])[H]


 24 27  0  0  0  0  0  0  0  0999 V2000
   22.3253    9.4561   55.3406 C   0  0  0  0  0  0  0  0  0  0  0  0
   23.6854    9.4478   55.6179 C   0  0  0  0  0  0  0  0  0  0  0  0
   24.0541   10.1198   56.7523 O   0  0  0  0  0  0  0  0  0  0  0  0
   24.5243    8.7822   54.7531 C   0  0  0  0  0  0  0  0  0  0  0  0
   24.0500    8.1349   53.6340 C   0  0  0  0  0  0  0  0  0  0  0  0
   22.6804    8.1662   53.3923 C   0  0  0  0  0  0  0  0  0  0  0  0
   21.8109    8.8153   54.2261 C   0  0  0  0  0  0  0  0  0  0  0  0
   22.1833    7.4729   52.1911 C   0  0  0  0  0  0  0  0  0  0  0  0
   22.9570    6.2717   51.8063 C   0  0  0  0  0  0  0  0  0  0  0  0
   24.3288    6.2708   52.0934 N   0  0  0  0  0  0  0  0  0  0  0  0
   24.8870    7.4662   52.6659 C   0  0  0  0  0  0  0  0  0  0  0  0
   26.2633    7.1663   53.1018 C   0  0  0  0  0  0  0  0  0  0  0  0
   26.7813    7.9717   54.2111 C   0  0  0  0  0  0  0  0  0  0  0  0
   28.1655    7.9552   54.4622 C   0  0  0  0  0  0  0  0  0  0  0  0
   28.7200    8.6312   55.5057 C   0  0  0  0  0  0  0  0  0  0  0  0
   27.8749    9.3361   56.3119 C   0  0  0  0  0  0  0  0  0  0  0  0
   26.4878    9.3958   56.1180 C   0  0  0  0  0  0  0  0  0  0  0  0
   25.9548    8.7091   55.0623 C   0  0  0  0  0  0  0  0  0  0  0  0
   23.4364   10.5982   57.3725 H   0  0  0  0  0  0  0  0  0  0  0  0
   24.9276    6.0328   51.2542 H   0  0  0  0  0  0  0  0  0  0  0  0
   20.0828    9.9111   56.2695 C   0  0  0  0  0  0  0  0  0  0  0  0
   21.4630   10.1167   56.1922 O   0  0  0  0  0  0  0  0  0  0  0  0
   20.4520    8.8207   53.9460 O   0  0  0  0  0  0  0  0  0  0  0  0
   19.7311    7.6105   53.9227 C   0  0  0  0  0  0  0  0  0  0  0  0
 21 22  1  0  0  0
 22  1  1  0  0  0
  1  2  2  0  0  0
  2  3  1  0  0  0
  2  4  1  0  0  0
  4  5  2  0  0  0
  5  6  1  0  0  0
  6  7  2  0  0  0
  7 23  1  0  0  0
 23 24  1  0  0  0
  6  8  1  0  0  0
  8  9  1  0  0  0
  9 10  1  0  0  0
 10 11  1  0  0  0
 11 12  1  0  0  0
 12 13  1  0  0  0
 13 14  2  0  0  0
 14 15  1  0  0  0
 15 16  2  0  0  0
 16 17  1  0  0  0
 17 18  2  0  0  0
  7  1  1  0  0  0
 18 13  1  0  0  0
 18  4  1  0  0  0
 11  5  1  0  0  0
  3 19  1  0  0  0
 10 20  1  0  0  0
M  END
> <minimizedAffinity>
19.23557

> <CNNscore>
0.6160089970

> <CNNaffinity>
5.7585182190

> <CNN_VS>
3.5472991467

> <CNNaffinity_variance>
0.2318067104

$$$$
[H]Oc1c(OC([H])([H])[H])c(OC([H])([H])[H])c2c3c1-c1c([H])c([H])c([H])c([H])c1C([H])([H])[C@@]3([H])N([H])C([H])([H])C2([H])[H]


 24 27  0  0  0  0  0  0  0  0999 V2000
   22.2637    6.4482   53.3963 C   0  0  0  0  0  0  0  0  0  0  0  0
   23.6181    6.6483   53.6257 C   0  0  0  0  0  0  0  0  0  0  0  0
   24.4477    5.7027   53.0854 O   0  0  0  0  0  0  0  0  0  0  0  0
   24.0010    7.7504   54.3560 C   0  0  0  0  0  0  0  0  0  0  0  0
   23.0823    8.6452   54.8577 C   0  0  0  0  0  0  0  0  0  0  0  0
   21.7349    8.4092   54.6049 C   0  0  0  0  0  0  0  0  0  0  0  0
   21.3106    7.3267   53.8832 C   0  0  0  0  0  0  0  0  0  0  0  0
   20.7599    9.3708   55.1482 C   0  0  0  0  0  0  0  0  0  0  0  0
   21.2461   10.7662   55.2266 C   0  0  0  0  0  0  0  0  0  0  0  0
   22.6154   10.9585   55.4550 N   0  0  0  0  0  0  0  0  0  0  0  0
   23.4220    9.7878   55.6726 C   0  0  0  0  0  0  0  0  0  0  0  0
   24.8385   10.1966   55.6510 C   0  0  0  0  0  0  0  0  0  0  0  0
   25.8020    9.1719   55.2394 C   0  0  0  0  0  0  0  0  0  0  0  0
   27.1674    9.3944   55.4956 C   0  0  0  0  0  0  0  0  0  0  0  0
   28.1307    8.5188   55.0968 C   0  0  0  0  0  0  0  0  0  0  0  0
   27.7206    7.4014   54.4302 C   0  0  0  0  0  0  0  0  0  0  0  0
   26.3780    7.1183   54.1434 C   0  0  0  0  0  0  0  0  0  0  0  0
   25.4289    8.0126   54.5552 C   0  0  0  0  0  0  0  0  0  0  0  0
   24.1584    4.9078   52.5567 H   0  0  0  0  0  0  0  0  0  0  0  0
   22.8129   11.6126   56.2628 H   0  0  0  0  0  0  0  0  0  0  0  0
   20.8070    4.4913   53.0125 C   0  0  0  0  0  0  0  0  0  0  0  0
   21.8538    5.3504   52.6669 O   0  0  0  0  0  0  0  0  0  0  0  0
   19.9561    7.1306   53.6553 O   0  0  0  0  0  0  0  0  0  0  0  0
   19.3968    7.4539   52.4033 C   0  0  0  0  0  0  0  0  0  0  0  0
 21 22  1  0  0  0
 22  1  1  0  0  0
  1  2  2  0  0  0
  2  3  1  0  0  0
  2  4  1  0  0  0
  4  5  2  0  0  0
  5  6  1  0  0  0
  6  7  2  0  0  0
  7 23  1  0  0  0
 23 24  1  0  0  0
  6  8  1  0  0  0
  8  9  1  0  0  0
  9 10  1  0  0  0
 10 11  1  0  0  0
 11 12  1  0  0  0
 12 13  1  0  0  0
 13 14  2  0  0  0
 14 15  1  0  0  0
 15 16  2  0  0  0
 16 17  1  0  0  0
 17 18  2  0  0  0
  7  1  1  0  0  0
 18 13  1  0  0  0
 18  4  1  0  0  0
 11  5  1  0  0  0
  3 19  1  0  0  0
 10 20  1  0  0  0
M  END
> <minimizedAffinity>
14.49027

> <CNNscore>
0.5581998229

> <CNNaffinity>
5.8199234009

> <CNN_VS>
3.2486801147

> <CNNaffinity_variance>
0.2815127969

$$$$
[H]Oc1c(OC([H])([H])[H])c(OC([H])([H])[H])c2c3c1-c1c([H])c([H])c([H])c([H])c1C([H])([H])[C@@]3([H])N([H])C([H])([H])C2([H])[H]


 24 27  0  0  0  0  0  0  0  0999 V2000
   24.2567    7.2365   54.5365 C   0  0  0  0  0  0  0  0  0  0  0  0
   23.8189    8.3698   53.8650 C   0  0  0  0  0  0  0  0  0  0  0  0
   24.7177    9.4012   53.8127 O   0  0  0  0  0  0  0  0  0  0  0  0
   22.5536    8.3599   53.3230 C   0  0  0  0  0  0  0  0  0  0  0  0
   21.7245    7.2659   53.4324 C   0  0  0  0  0  0  0  0  0  0  0  0
   22.2012    6.1499   54.1123 C   0  0  0  0  0  0  0  0  0  0  0  0
   23.4523    6.1168   54.6657 C   0  0  0  0  0  0  0  0  0  0  0  0
   21.3054    4.9858   54.2261 C   0  0  0  0  0  0  0  0  0  0  0  0
   20.3904    4.7957   53.0787 C   0  0  0  0  0  0  0  0  0  0  0  0
   19.9564    5.9452   52.4047 N   0  0  0  0  0  0  0  0  0  0  0  0
   20.3716    7.2181   52.9299 C   0  0  0  0  0  0  0  0  0  0  0  0
   20.0113    8.2582   51.9490 C   0  0  0  0  0  0  0  0  0  0  0  0
   20.8375    9.4687   51.9555 C   0  0  0  0  0  0  0  0  0  0  0  0
   20.3640   10.6070   51.2780 C   0  0  0  0  0  0  0  0  0  0  0  0
   21.0941   11.7528   51.1898 C   0  0  0  0  0  0  0  0  0  0  0  0
   22.3191   11.7595   51.7900 C   0  0  0  0  0  0  0  0  0  0  0  0
   22.8501   10.6617   52.4813 C   0  0  0  0  0  0  0  0  0  0  0  0
   22.0972    9.5226   52.5568 C   0  0  0  0  0  0  0  0  0  0  0  0
   25.6331    9.3965   54.2089 H   0  0  0  0  0  0  0  0  0  0  0  0
   18.9045    5.9926   52.3013 H   0  0  0  0  0  0  0  0  0  0  0  0
   26.6119    7.9720   54.6414 C   0  0  0  0  0  0  0  0  0  0  0  0
   25.5215    7.2212   55.0892 O   0  0  0  0  0  0  0  0  0  0  0  0
   23.8867    4.9820   55.3354 O   0  0  0  0  0  0  0  0  0  0  0  0
   23.3883    4.6857   56.6193 C   0  0  0  0  0  0  0  0  0  0  0  0
 21 22  1  0  0  0
 22  1  1  0  0  0
  1  2  2  0  0  0
  2  3  1  0  0  0
  2  4  1  0  0  0
  4  5  2  0  0  0
  5  6  1  0  0  0
  6  7  2  0  0  0
  7 23  1  0  0  0
 23 24  1  0  0  0
  6  8  1  0  0  0
  8  9  1  0  0  0
  9 10  1  0  0  0
 10 11  1  0  0  0
 11 12  1  0  0  0
 12 13  1  0  0  0
 13 14  2  0  0  0
 14 15  1  0  0  0
 15 16  2  0  0  0
 16 17  1  0  0  0
 17 18  2  0  0  0
  7  1  1  0  0  0
 18 13  1  0  0  0
 18  4  1  0  0  0
 11  5  1  0  0  0
  3 19  1  0  0  0
 10 20  1  0  0  0
M  END
> <minimizedAffinity>
22.55906

> <CNNscore>
0.5295220613

> <CNNaffinity>
5.7952013016

> <CNN_VS>
3.0686869621

> <CNNaffinity_variance>
0.5027495623

$$$$
[H]Oc1c(OC([H])([H])[H])c(OC([H])([H])[H])c2c3c1-c1c([H])c([H])c([H])c([H])c1C([H])([H])[C@@]3([H])N([H])C([H])([H])C2([H])[H]


 24 27  0  0  0  0  0  0  0  0999 V2000
   23.8337    6.4064   53.3485 C   0  0  0  0  0  0  0  0  0  0  0  0
   24.8987    6.9914   54.0198 C   0  0  0  0  0  0  0  0  0  0  0  0
   26.1001    6.3500   53.8801 O   0  0  0  0  0  0  0  0  0  0  0  0
   24.6626    8.1354   54.7479 C   0  0  0  0  0  0  0  0  0  0  0  0
   23.4103    8.7030   54.8245 C   0  0  0  0  0  0  0  0  0  0  0  0
   22.3702    8.0865   54.1365 C   0  0  0  0  0  0  0  0  0  0  0  0
   22.5608    6.9488   53.4005 C   0  0  0  0  0  0  0  0  0  0  0  0
   21.0338    8.7001   54.2270 C   0  0  0  0  0  0  0  0  0  0  0  0
   21.0382   10.1739   54.3592 C   0  0  0  0  0  0  0  0  0  0  0  0
   22.1190   10.7559   55.0354 N   0  0  0  0  0  0  0  0  0  0  0  0
   23.0940    9.8704   55.6132 C   0  0  0  0  0  0  0  0  0  0  0  0
   24.2439   10.6805   56.0553 C   0  0  0  0  0  0  0  0  0  0  0  0
   25.5411    9.9995   56.0889 C   0  0  0  0  0  0  0  0  0  0  0  0
   26.5998   10.6083   56.7873 C   0  0  0  0  0  0  0  0  0  0  0  0
   27.8496   10.0692   56.8209 C   0  0  0  0  0  0  0  0  0  0  0  0
   28.0432    8.9007   56.1440 C   0  0  0  0  0  0  0  0  0  0  0  0
   27.0330    8.2415   55.4298 C   0  0  0  0  0  0  0  0  0  0  0  0
   25.7859    8.8024   55.4118 C   0  0  0  0  0  0  0  0  0  0  0  0
   26.2594    5.5211   53.3485 H   0  0  0  0  0  0  0  0  0  0  0  0
   21.8188   11.4151   55.8067 H   0  0  0  0  0  0  0  0  0  0  0  0
   24.7292    5.1891   51.3953 C   0  0  0  0  0  0  0  0  0  0  0  0
   24.0442    5.2584   52.6115 O   0  0  0  0  0  0  0  0  0  0  0  0
   21.4941    6.3675   52.7302 O   0  0  0  0  0  0  0  0  0  0  0  0
   20.5597    5.5837   53.4354 C   0  0  0  0  0  0  0  0  0  0  0  0
 21 22  1  0  0  0
 22  1  1  0  0  0
  1  2  2  0  0  0
  2  3  1  0  0  0
  2  4  1  0  0  0
  4  5  2  0  0  0
  5  6  1  0  0  0
  6  7  2  0  0  0
  7 23  1  0  0  0
 23 24  1  0  0  0
  6  8  1  0  0  0
  8  9  1  0  0  0
  9 10  1  0  0  0
 10 11  1  0  0  0
 11 12  1  0  0  0
 12 13  1  0  0  0
 13 14  2  0  0  0
 14 15  1  0  0  0
 15 16  2  0  0  0
 16 17  1  0  0  0
 17 18  2  0  0  0
  7  1  1  0  0  0
 18 13  1  0  0  0
 18  4  1  0  0  0
 11  5  1  0  0  0
  3 19  1  0  0  0
 10 20  1  0  0  0
M  END
> <minimizedAffinity>
20.53911

> <CNNscore>
0.5202792883

> <CNNaffinity>
5.5615992546

> <CNN_VS>
2.8935849667

> <CNNaffinity_variance>
0.1596948206

$$$$
[H]Oc1c(OC([H])([H])[H])c(OC([H])([H])[H])c2c3c1-c1c([H])c([H])c([H])c([H])c1C([H])([H])[C@@]3([H])N([H])C([H])([H])C2([H])[H]


 24 27  0  0  0  0  0  0  0  0999 V2000
   22.4185   10.7915   54.3738 C   0  0  0  0  0  0  0  0  0  0  0  0
   22.8232    9.5112   54.7260 C   0  0  0  0  0  0  0  0  0  0  0  0
   23.5164    9.4211   55.9032 O   0  0  0  0  0  0  0  0  0  0  0  0
   22.5012    8.4700   53.8853 C   0  0  0  0  0  0  0  0  0  0  0  0
   21.7974    8.6687   52.7185 C   0  0  0  0  0  0  0  0  0  0  0  0
   21.4096    9.9666   52.4021 C   0  0  0  0  0  0  0  0  0  0  0  0
   21.7080   11.0304   53.2096 C   0  0  0  0  0  0  0  0  0  0  0  0
   20.6594   10.1690   51.1504 C   0  0  0  0  0  0  0  0  0  0  0  0
   19.7839    9.0398   50.7653 C   0  0  0  0  0  0  0  0  0  0  0  0
   20.1988    7.7513   51.1281 N   0  0  0  0  0  0  0  0  0  0  0  0
   21.4773    7.6240   51.7745 C   0  0  0  0  0  0  0  0  0  0  0  0
   21.6023    6.2427   52.2750 C   0  0  0  0  0  0  0  0  0  0  0  0
   22.4702    6.0522   53.4404 C   0  0  0  0  0  0  0  0  0  0  0  0
   22.8761    4.7454   53.7673 C   0  0  0  0  0  0  0  0  0  0  0  0
   23.6363    4.4767   54.8644 C   0  0  0  0  0  0  0  0  0  0  0  0
   23.9966    5.5339   55.6477 C   0  0  0  0  0  0  0  0  0  0  0  0
   23.6278    6.8594   55.3791 C   0  0  0  0  0  0  0  0  0  0  0  0
   22.8649    7.1038   54.2708 C   0  0  0  0  0  0  0  0  0  0  0  0
   23.7432   10.1834   56.5052 H   0  0  0  0  0  0  0  0  0  0  0  0
   20.2054    7.0739   50.3153 H   0  0  0  0  0  0  0  0  0  0  0  0
   24.0118   12.3625   55.4189 C   0  0  0  0  0  0  0  0  0  0  0  0
   22.7290   11.8528   55.1999 O   0  0  0  0  0  0  0  0  0  0  0  0
   21.3010   12.3084   52.8547 O   0  0  0  0  0  0  0  0  0  0  0  0
   21.7297   12.8734   51.6374 C   0  0  0  0  0  0  0  0  0  0  0  0
 21 22  1  0  0  0
 22  1  1  0  0  0
  1  2  2  0  0  0
  2  3  1  0  0  0
  2  4  1  0  0  0
  4  5  2  0  0  0
  5  6  1  0  0  0
  6  7  2  0  0  0
  7 23  1  0  0  0
 23 24  1  0  0  0
  6  8  1  0  0  0
  8  9  1  0  0  0
  9 10  1  0  0  0
 10 11  1  0  0  0
 11 12  1  0  0  0
 12 13  1  0  0  0
 13 14  2  0  0  0
 14 15  1  0  0  0
 15 16  2  0  0  0
 16 17  1  0  0  0
 17 18  2  0  0  0
  7  1  1  0  0  0
 18 13  1  0  0  0
 18  4  1  0  0  0
 11  5  1  0  0  0
  3 19  1  0  0  0
 10 20  1  0  0  0
M  END
> <minimizedAffinity>
29.04951

> <CNNscore>
0.5109344721

> <CNNaffinity>
5.8129172325

> <CNN_VS>
2.9700198174

> <CNNaffinity_variance>
1.0098433495

$$$$
[H]Oc1c(OC([H])([H])[H])c(OC([H])([H])[H])c2c3c1-c1c([H])c([H])c([H])c([H])c1C([H])([H])[C@@]3([H])N([H])C([H])([H])C2([H])[H]


 24 27  0  0  0  0  0  0  0  0999 V2000
   23.0216    8.3480   53.8030 C   0  0  0  0  0  0  0  0  0  0  0  0
   24.3143    7.8600   53.6696 C   0  0  0  0  0  0  0  0  0  0  0  0
   24.4714    6.8702   52.7369 O   0  0  0  0  0  0  0  0  0  0  0  0
   25.3011    8.3988   54.4638 C   0  0  0  0  0  0  0  0  0  0  0  0
   25.0367    9.3961   55.3757 C   0  0  0  0  0  0  0  0  0  0  0  0
   23.7285    9.8581   55.4781 C   0  0  0  0  0  0  0  0  0  0  0  0
   22.7175    9.3512   54.7077 C   0  0  0  0  0  0  0  0  0  0  0  0
   23.4556   10.9234   56.4585 C   0  0  0  0  0  0  0  0  0  0  0  0
   24.5738   11.8691   56.6707 C   0  0  0  0  0  0  0  0  0  0  0  0
   25.8752   11.3684   56.5305 N   0  0  0  0  0  0  0  0  0  0  0  0
   26.0196    9.9614   56.2697 C   0  0  0  0  0  0  0  0  0  0  0  0
   27.4295    9.7015   55.9249 C   0  0  0  0  0  0  0  0  0  0  0  0
   27.6820    8.5467   55.0587 C   0  0  0  0  0  0  0  0  0  0  0  0
   28.9993    8.0645   54.9516 C   0  0  0  0  0  0  0  0  0  0  0  0
   29.3274    7.0319   54.1272 C   0  0  0  0  0  0  0  0  0  0  0  0
   28.3199    6.4721   53.3974 C   0  0  0  0  0  0  0  0  0  0  0  0
   26.9872    6.9027   53.4572 C   0  0  0  0  0  0  0  0  0  0  0  0
   26.6826    7.9410   54.2934 C   0  0  0  0  0  0  0  0  0  0  0  0
   23.7481    6.4880   52.1660 H   0  0  0  0  0  0  0  0  0  0  0  0
   26.4939   11.5841   57.3612 H   0  0  0  0  0  0  0  0  0  0  0  0
   22.1460    6.7425   52.1434 C   0  0  0  0  0  0  0  0  0  0  0  0
   22.0141    7.8243   53.0182 O   0  0  0  0  0  0  0  0  0  0  0  0
   21.4269    9.8421   54.8433 O   0  0  0  0  0  0  0  0  0  0  0  0
   20.8764   10.6669   53.8427 C   0  0  0  0  0  0  0  0  0  0  0  0
 21 22  1  0  0  0
 22  1  1  0  0  0
  1  2  2  0  0  0
  2  3  1  0  0  0
  2  4  1  0  0  0
  4  5  2  0  0  0
  5  6  1  0  0  0
  6  7  2  0  0  0
  7 23  1  0  0  0
 23 24  1  0  0  0
  6  8  1  0  0  0
  8  9  1  0  0  0
  9 10  1  0  0  0
 10 11  1  0  0  0
 11 12  1  0  0  0
 12 13  1  0  0  0
 13 14  2  0  0  0
 14 15  1  0  0  0
 15 16  2  0  0  0
 16 17  1  0  0  0
 17 18  2  0  0  0
  7  1  1  0  0  0
 18 13  1  0  0  0
 18  4  1  0  0  0
 11  5  1  0  0  0
  3 19  1  0  0  0
 10 20  1  0  0  0
M  END
> <minimizedAffinity>
36.11333

> <CNNscore>
0.5106392503

> <CNNaffinity>
5.2617249489

> <CNN_VS>
2.6868433952

> <CNNaffinity_variance>
0.1513289660

$$$$
[H]Oc1c(OC([H])([H])[H])c(OC([H])([H])[H])c2c3c1-c1c([H])c([H])c([H])c([H])c1C([H])([H])[C@@]3([H])N([H])C([H])([H])C2([H])[H]


 24 27  0  0  0  0  0  0  0  0999 V2000
   25.3882    6.5284   53.2287 C   0  0  0  0  0  0  0  0  0  0  0  0
   24.1065    7.0201   53.4351 C   0  0  0  0  0  0  0  0  0  0  0  0
   23.1086    6.3363   52.7941 O   0  0  0  0  0  0  0  0  0  0  0  0
   23.9524    8.1224   54.2450 C   0  0  0  0  0  0  0  0  0  0  0  0
   25.0272    8.7396   54.8452 C   0  0  0  0  0  0  0  0  0  0  0  0
   26.2948    8.2154   54.6136 C   0  0  0  0  0  0  0  0  0  0  0  0
   26.4931    7.1212   53.8162 C   0  0  0  0  0  0  0  0  0  0  0  0
   27.4383    8.8845   55.2581 C   0  0  0  0  0  0  0  0  0  0  0  0
   27.1376    9.4920   56.5735 C   0  0  0  0  0  0  0  0  0  0  0  0
   25.8402    9.9825   56.7740 N   0  0  0  0  0  0  0  0  0  0  0  0
   24.9311    9.9271   55.6609 C   0  0  0  0  0  0  0  0  0  0  0  0
   23.5825   10.2633   56.1534 C   0  0  0  0  0  0  0  0  0  0  0  0
   22.4589    9.6944   55.4039 C   0  0  0  0  0  0  0  0  0  0  0  0
   21.1725   10.2201   55.6228 C   0  0  0  0  0  0  0  0  0  0  0  0
   20.0687    9.7121   55.0086 C   0  0  0  0  0  0  0  0  0  0  0  0
   20.2556    8.6599   54.1607 C   0  0  0  0  0  0  0  0  0  0  0  0
   21.5085    8.0894   53.8969 C   0  0  0  0  0  0  0  0  0  0  0  0
   22.6021    8.6179   54.5253 C   0  0  0  0  0  0  0  0  0  0  0  0
   23.2325    5.5374   52.2098 H   0  0  0  0  0  0  0  0  0  0  0  0
   25.8241   10.9808   57.1244 H   0  0  0  0  0  0  0  0  0  0  0  0
   24.9077    4.2010   52.5573 C   0  0  0  0  0  0  0  0  0  0  0  0
   25.5695    5.4242   52.4205 O   0  0  0  0  0  0  0  0  0  0  0  0
   27.7755    6.6321   53.6130 O   0  0  0  0  0  0  0  0  0  0  0  0
   28.8910    7.3699   54.0558 C   0  0  0  0  0  0  0  0  0  0  0  0
 21 22  1  0  0  0
 22  1  1  0  0  0
  1  2  2  0  0  0
  2  3  1  0  0  0
  2  4  1  0  0  0
  4  5  2  0  0  0
  5  6  1  0  0  0
  6  7  2  0  0  0
  7 23  1  0  0  0
 23 24  1  0  0  0
  6  8  1  0  0  0
  8  9  1  0  0  0
  9 10  1  0  0  0
 10 11  1  0  0  0
 11 12  1  0  0  0
 12 13  1  0  0  0
 13 14  2  0  0  0
 14 15  1  0  0  0
 15 16  2  0  0  0
 16 17  1  0  0  0
 17 18  2  0  0  0
  7  1  1  0  0  0
 18 13  1  0  0  0
 18  4  1  0  0  0
 11  5  1  0  0  0
  3 19  1  0  0  0
 10 20  1  0  0  0
M  END
> <minimizedAffinity>
23.91471

> <CNNscore>
0.4919676185

> <CNNaffinity>
5.2454519272

> <CNN_VS>
2.5805923939

> <CNNaffinity_variance>
0.1414435208

$$$$
[H]Oc1c(OC([H])([H])[H])c(OC([H])([H])[H])c2c3c1-c1c([H])c([H])c([H])c([H])c1C([H])([H])[C@@]3([H])N([H])C([H])([H])C2([H])[H]


 24 27  0  0  0  0  0  0  0  0999 V2000
   25.7246   10.2479   56.3019 C   0  0  0  0  0  0  0  0  0  0  0  0
   24.4822    9.9238   55.7743 C   0  0  0  0  0  0  0  0  0  0  0  0
   23.4542   10.7439   56.1552 O   0  0  0  0  0  0  0  0  0  0  0  0
   24.3923    8.8360   54.9356 C   0  0  0  0  0  0  0  0  0  0  0  0
   25.4924    8.0727   54.6145 C   0  0  0  0  0  0  0  0  0  0  0  0
   26.7194    8.4313   55.1634 C   0  0  0  0  0  0  0  0  0  0  0  0
   26.8538    9.5051   56.0009 C   0  0  0  0  0  0  0  0  0  0  0  0
   27.8897    7.6067   54.8157 C   0  0  0  0  0  0  0  0  0  0  0  0
   27.8503    7.0189   53.4583 C   0  0  0  0  0  0  0  0  0  0  0  0
   26.5914    6.6982   52.9325 N   0  0  0  0  0  0  0  0  0  0  0  0
   25.4484    6.8927   53.7835 C   0  0  0  0  0  0  0  0  0  0  0  0
   24.2336    6.7261   52.9646 C   0  0  0  0  0  0  0  0  0  0  0  0
   23.0430    7.4508   53.4173 C   0  0  0  0  0  0  0  0  0  0  0  0
   21.7946    7.0934   52.8759 C   0  0  0  0  0  0  0  0  0  0  0  0
   20.6488    7.7526   53.2018 C   0  0  0  0  0  0  0  0  0  0  0  0
   20.7541    8.7872   54.0848 C   0  0  0  0  0  0  0  0  0  0  0  0
   21.9650    9.1942   54.6618 C   0  0  0  0  0  0  0  0  0  0  0  0
   23.1019    8.5158   54.3194 C   0  0  0  0  0  0  0  0  0  0  0  0
   23.5317   11.5307   56.7635 H   0  0  0  0  0  0  0  0  0  0  0  0
   26.5328    5.7042   52.5748 H   0  0  0  0  0  0  0  0  0  0  0  0
   26.8649   12.2848   57.1076 C   0  0  0  0  0  0  0  0  0  0  0  0
   25.8413   11.3340   57.1457 O   0  0  0  0  0  0  0  0  0  0  0  0
   28.0974    9.8264   56.5255 O   0  0  0  0  0  0  0  0  0  0  0  0
   28.4152    9.4775   57.8529 C   0  0  0  0  0  0  0  0  0  0  0  0
 21 22  1  0  0  0
 22  1  1  0  0  0
  1  2  2  0  0  0
  2  3  1  0  0  0
  2  4  1  0  0  0
  4  5  2  0  0  0
  5  6  1  0  0  0
  6  7  2  0  0  0
  7 23  1  0  0  0
 23 24  1  0  0  0
  6  8  1  0  0  0
  8  9  1  0  0  0
  9 10  1  0  0  0
 10 11  1  0  0  0
 11 12  1  0  0  0
 12 13  1  0  0  0
 13 14  2  0  0  0
 14 15  1  0  0  0
 15 16  2  0  0  0
 16 17  1  0  0  0
 17 18  2  0  0  0
  7  1  1  0  0  0
 18 13  1  0  0  0
 18  4  1  0  0  0
 11  5  1  0  0  0
  3 19  1  0  0  0
 10 20  1  0  0  0
M  END
> <minimizedAffinity>
22.52105

> <CNNscore>
0.4914943278

> <CNNaffinity>
5.2957415581

> <CNN_VS>
2.6028268337

> <CNNaffinity_variance>
0.4838596284

$$$$
[H]c1c([H])c([H])c(N([H])[C@@]2([H])c3c([H])c(-c4c([H])c([H])c(C(F)(F)F)c([H])c4[H])c([H])c([H])c3N(C(=O)C([H])([H])[H])[C@@]([H])(C([H])([H])[H])C2([H])[H])c([H])c1[H]


 32 35  0  0  0  0  0  0  0  0999 V2000
   20.6451    3.0253   53.5352 C   0  0  0  0  0  0  0  0  0  0  0  0
   19.6424    4.0509   53.2198 C   0  0  0  0  0  0  0  0  0  0  0  0
   18.4370    3.6557   53.0616 O   0  0  0  0  0  0  0  0  0  0  0  0
   19.9442    5.4204   53.0788 N   0  0  0  0  0  0  0  0  0  0  0  0
   21.1431    6.0702   53.4437 C   0  0  0  0  0  0  0  0  0  0  0  0
   21.8804    5.5825   54.5169 C   0  0  0  0  0  0  0  0  0  0  0  0
   23.0794    6.1921   54.7989 C   0  0  0  0  0  0  0  0  0  0  0  0
   23.6024    7.2572   54.0907 C   0  0  0  0  0  0  0  0  0  0  0  0
   22.8470    7.7214   53.0410 C   0  0  0  0  0  0  0  0  0  0  0  0
   21.6206    7.1325   52.7157 C   0  0  0  0  0  0  0  0  0  0  0  0
   20.8760    7.7601   51.6165 C   0  0  0  0  0  0  0  0  0  0  0  0
   19.6064    7.0316   51.2728 C   0  0  0  0  0  0  0  0  0  0  0  0
   18.9697    6.3062   52.4101 C   0  0  0  0  0  0  0  0  0  0  0  0
   18.2170    7.1078   53.4046 C   0  0  0  0  0  0  0  0  0  0  0  0
   24.9049    7.8540   54.4050 C   0  0  0  0  0  0  0  0  0  0  0  0
   25.0471    8.6704   55.5191 C   0  0  0  0  0  0  0  0  0  0  0  0
   26.2521    9.2181   55.8988 C   0  0  0  0  0  0  0  0  0  0  0  0
   27.3737    8.9435   55.1288 C   0  0  0  0  0  0  0  0  0  0  0  0
   27.2700    8.1398   54.0144 C   0  0  0  0  0  0  0  0  0  0  0  0
   26.0292    7.6029   53.6646 C   0  0  0  0  0  0  0  0  0  0  0  0
   28.6838    9.5434   55.5697 C   0  0  0  0  0  0  0  0  0  0  0  0
   28.4587   10.5339   56.5113 F   0  0  0  0  0  0  0  0  0  0  0  0
   29.3790   10.0922   54.5348 F   0  0  0  0  0  0  0  0  0  0  0  0
   29.3791    8.5405   56.2399 F   0  0  0  0  0  0  0  0  0  0  0  0
   20.5463    9.1376   52.0365 N   0  0  0  0  0  0  0  0  0  0  0  0
   19.9367    9.6860   51.3907 H   0  0  0  0  0  0  0  0  0  0  0  0
   21.0499    9.6694   53.2571 C   0  0  0  0  0  0  0  0  0  0  0  0
   21.8148   10.8250   53.2492 C   0  0  0  0  0  0  0  0  0  0  0  0
   22.2317   11.3396   54.4527 C   0  0  0  0  0  0  0  0  0  0  0  0
   21.9386   10.7769   55.6694 C   0  0  0  0  0  0  0  0  0  0  0  0
   21.1743    9.6175   55.6936 C   0  0  0  0  0  0  0  0  0  0  0  0
   20.7482    9.0911   54.4940 C   0  0  0  0  0  0  0  0  0  0  0  0
  1  2  1  0  0  0
  2  3  2  0  0  0
  2  4  1  0  0  0
  4  5  1  0  0  0
  5  6  2  0  0  0
  6  7  1  0  0  0
  7  8  2  0  0  0
  8 15  1  0  0  0
 15 16  2  0  0  0
 16 17  1  0  0  0
 17 18  2  0  0  0
 18 21  1  0  0  0
 21 22  1  0  0  0
 21 23  1  0  0  0
 21 24  1  0  0  0
 18 19  1  0  0  0
 19 20  2  0  0  0
  8  9  1  0  0  0
  9 10  2  0  0  0
 10 11  1  0  0  0
 11 25  1  0  0  0
 25 27  1  0  0  0
 27 28  2  0  0  0
 28 29  1  0  0  0
 29 30  2  0  0  0
 30 31  1  0  0  0
 31 32  2  0  0  0
 11 12  1  0  0  0
 12 13  1  0  0  0
 13 14  1  0  0  0
 13  4  1  0  0  0
 10  5  1  0  0  0
 32 27  1  0  0  0
 20 15  1  0  0  0
 25 26  1  0  0  0
M  END
> <minimizedAffinity>
28.54179

> <CNNscore>
0.5110377073

> <CNNaffinity>
6.6043090820

> <CNN_VS>
3.3750510216

> <CNNaffinity_variance>
0.4070691168

$$$$
[H]c1c([H])c([H])c(N([H])[C@@]2([H])c3c([H])c(-c4c([H])c([H])c(C(F)(F)F)c([H])c4[H])c([H])c([H])c3N(C(=O)C([H])([H])[H])[C@@]([H])(C([H])([H])[H])C2([H])[H])c([H])c1[H]


 32 35  0  0  0  0  0  0  0  0999 V2000
   20.7173    2.9864   53.3009 C   0  0  0  0  0  0  0  0  0  0  0  0
   19.6638    4.0051   53.2055 C   0  0  0  0  0  0  0  0  0  0  0  0
   18.4613    3.5881   53.0867 O   0  0  0  0  0  0  0  0  0  0  0  0
   19.9144    5.3919   53.2302 N   0  0  0  0  0  0  0  0  0  0  0  0
   21.1199    6.0332   53.5884 C   0  0  0  0  0  0  0  0  0  0  0  0
   21.9546    5.4354   54.5259 C   0  0  0  0  0  0  0  0  0  0  0  0
   23.1548    6.0480   54.7966 C   0  0  0  0  0  0  0  0  0  0  0  0
   23.5887    7.2178   54.2028 C   0  0  0  0  0  0  0  0  0  0  0  0
   22.7384    7.7886   53.2867 C   0  0  0  0  0  0  0  0  0  0  0  0
   21.5070    7.2012   52.9781 C   0  0  0  0  0  0  0  0  0  0  0  0
   20.6589    7.9408   52.0345 C   0  0  0  0  0  0  0  0  0  0  0  0
   19.3869    7.2159   51.6919 C   0  0  0  0  0  0  0  0  0  0  0  0
   18.8645    6.3207   52.7645 C   0  0  0  0  0  0  0  0  0  0  0  0
   18.1720    6.9520   53.9134 C   0  0  0  0  0  0  0  0  0  0  0  0
   24.8948    7.8174   54.4959 C   0  0  0  0  0  0  0  0  0  0  0  0
   25.0454    8.6609   55.5885 C   0  0  0  0  0  0  0  0  0  0  0  0
   26.2541    9.2135   55.9486 C   0  0  0  0  0  0  0  0  0  0  0  0
   27.3710    8.9156   55.1804 C   0  0  0  0  0  0  0  0  0  0  0  0
   27.2591    8.0846   54.0870 C   0  0  0  0  0  0  0  0  0  0  0  0
   26.0146    7.5437   53.7567 C   0  0  0  0  0  0  0  0  0  0  0  0
   28.6854    9.5214   55.5999 C   0  0  0  0  0  0  0  0  0  0  0  0
   28.4682   10.5380   56.5151 F   0  0  0  0  0  0  0  0  0  0  0  0
   29.3789   10.0388   54.5479 F   0  0  0  0  0  0  0  0  0  0  0  0
   29.3790    8.5339   56.2944 F   0  0  0  0  0  0  0  0  0  0  0  0
   20.3252    9.2357   52.6624 N   0  0  0  0  0  0  0  0  0  0  0  0
   19.5860    9.2172   53.3991 H   0  0  0  0  0  0  0  0  0  0  0  0
   20.9844   10.4326   52.2633 C   0  0  0  0  0  0  0  0  0  0  0  0
   20.9252   10.8525   50.9440 C   0  0  0  0  0  0  0  0  0  0  0  0
   21.5236   12.0433   50.6110 C   0  0  0  0  0  0  0  0  0  0  0  0
   22.1821   12.8470   51.5073 C   0  0  0  0  0  0  0  0  0  0  0  0
   22.2515   12.4388   52.8330 C   0  0  0  0  0  0  0  0  0  0  0  0
   21.6546   11.2471   53.1814 C   0  0  0  0  0  0  0  0  0  0  0  0
  1  2  1  0  0  0
  2  3  2  0  0  0
  2  4  1  0  0  0
  4  5  1  0  0  0
  5  6  2  0  0  0
  6  7  1  0  0  0
  7  8  2  0  0  0
  8 15  1  0  0  0
 15 16  2  0  0  0
 16 17  1  0  0  0
 17 18  2  0  0  0
 18 21  1  0  0  0
 21 22  1  0  0  0
 21 23  1  0  0  0
 21 24  1  0  0  0
 18 19  1  0  0  0
 19 20  2  0  0  0
  8  9  1  0  0  0
  9 10  2  0  0  0
 10 11  1  0  0  0
 11 25  1  0  0  0
 25 27  1  0  0  0
 27 28  2  0  0  0
 28 29  1  0  0  0
 29 30  2  0  0  0
 30 31  1  0  0  0
 31 32  2  0  0  0
 11 12  1  0  0  0
 12 13  1  0  0  0
 13 14  1  0  0  0
 13  4  1  0  0  0
 10  5  1  0  0  0
 32 27  1  0  0  0
 20 15  1  0  0  0
 25 26  1  0  0  0
M  END
> <minimizedAffinity>
34.74188

> <CNNscore>
0.4637692869

> <CNNaffinity>
6.2112183571

> <CNN_VS>
2.8805723190

> <CNNaffinity_variance>
0.4978014529

$$$$
[H]c1c([H])c([H])c(N([H])[C@@]2([H])c3c([H])c(-c4c([H])c([H])c(C(F)(F)F)c([H])c4[H])c([H])c([H])c3N(C(=O)C([H])([H])[H])[C@@]([H])(C([H])([H])[H])C2([H])[H])c([H])c1[H]


 32 35  0  0  0  0  0  0  0  0999 V2000
   26.2928    6.2812   54.2600 C   0  0  0  0  0  0  0  0  0  0  0  0
   25.9362    7.7020   54.3634 C   0  0  0  0  0  0  0  0  0  0  0  0
   26.8983    8.5437   54.3682 O   0  0  0  0  0  0  0  0  0  0  0  0
   24.6100    8.1688   54.4634 N   0  0  0  0  0  0  0  0  0  0  0  0
   23.4281    7.4305   54.2381 C   0  0  0  0  0  0  0  0  0  0  0  0
   23.4424    6.3907   53.3152 C   0  0  0  0  0  0  0  0  0  0  0  0
   22.2968    5.6447   53.1742 C   0  0  0  0  0  0  0  0  0  0  0  0
   21.1311    5.8573   53.8850 C   0  0  0  0  0  0  0  0  0  0  0  0
   21.1456    6.8968   54.7834 C   0  0  0  0  0  0  0  0  0  0  0  0
   22.2885    7.6832   54.9620 C   0  0  0  0  0  0  0  0  0  0  0  0
   22.1585    8.8048   55.9010 C   0  0  0  0  0  0  0  0  0  0  0  0
   23.4438    9.5593   56.1000 C   0  0  0  0  0  0  0  0  0  0  0  0
   24.3668    9.5495   54.9283 C   0  0  0  0  0  0  0  0  0  0  0  0
   24.0435   10.4402   53.7880 C   0  0  0  0  0  0  0  0  0  0  0  0
   19.9426    5.0122   53.7278 C   0  0  0  0  0  0  0  0  0  0  0  0
   18.6833    5.5186   54.0208 C   0  0  0  0  0  0  0  0  0  0  0  0
   17.5246    4.7958   53.8449 C   0  0  0  0  0  0  0  0  0  0  0  0
   17.6225    3.5006   53.3560 C   0  0  0  0  0  0  0  0  0  0  0  0
   18.8557    2.9636   53.0571 C   0  0  0  0  0  0  0  0  0  0  0  0
   20.0067    3.7309   53.2488 C   0  0  0  0  0  0  0  0  0  0  0  0
   16.3410    2.7325   53.1599 C   0  0  0  0  0  0  0  0  0  0  0  0
   15.5040    3.4194   52.2963 F   0  0  0  0  0  0  0  0  0  0  0  0
   15.6713    2.5311   54.3288 F   0  0  0  0  0  0  0  0  0  0  0  0
   16.6766    1.5542   52.4985 F   0  0  0  0  0  0  0  0  0  0  0  0
   21.1373    9.7218   55.3547 N   0  0  0  0  0  0  0  0  0  0  0  0
   20.4077   10.0546   56.0229 H   0  0  0  0  0  0  0  0  0  0  0  0
   21.1627   10.1116   53.9859 C   0  0  0  0  0  0  0  0  0  0  0  0
   21.4107   11.4311   53.6429 C   0  0  0  0  0  0  0  0  0  0  0  0
   21.4863   11.7556   52.3102 C   0  0  0  0  0  0  0  0  0  0  0  0
   21.3287   10.8503   51.2911 C   0  0  0  0  0  0  0  0  0  0  0  0
   21.0779    9.5242   51.6189 C   0  0  0  0  0  0  0  0  0  0  0  0
   21.0007    9.1844   52.9517 C   0  0  0  0  0  0  0  0  0  0  0  0
  1  2  1  0  0  0
  2  3  2  0  0  0
  2  4  1  0  0  0
  4  5  1  0  0  0
  5  6  2  0  0  0
  6  7  1  0  0  0
  7  8  2  0  0  0
  8 15  1  0  0  0
 15 16  2  0  0  0
 16 17  1  0  0  0
 17 18  2  0  0  0
 18 21  1  0  0  0
 21 22  1  0  0  0
 21 23  1  0  0  0
 21 24  1  0  0  0
 18 19  1  0  0  0
 19 20  2  0  0  0
  8  9  1  0  0  0
  9 10  2  0  0  0
 10 11  1  0  0  0
 11 25  1  0  0  0
 25 27  1  0  0  0
 27 28  2  0  0  0
 28 29  1  0  0  0
 29 30  2  0  0  0
 30 31  1  0  0  0
 31 32  2  0  0  0
 11 12  1  0  0  0
 12 13  1  0  0  0
 13 14  1  0  0  0
 13  4  1  0  0  0
 10  5  1  0  0  0
 32 27  1  0  0  0
 20 15  1  0  0  0
 25 26  1  0  0  0
M  END
> <minimizedAffinity>
36.03476

> <CNNscore>
0.4162974656

> <CNNaffinity>
5.7895202637

> <CNN_VS>
2.4101626873

> <CNNaffinity_variance>
0.0697892681

$$$$
[H]c1nc(OC2([H])C([H])([H])[C@@]3([H])N(C(=O)OC(C([H])([H])[H])(C([H])([H])[H])C([H])([H])[H])[C@]([H])(C2([H])[H])C([H])([H])C3([H])[H])c([N+](=O)[O-])c(N([H])c2c([H])c([H])c(S(=O)(=O)C([H])([H])[H])c([H])c2[H])n1


 37 40  0  0  0  0  0  0  0  0999 V2000
   23.9238    8.1942   53.7605 C   0  0  0  0  0  0  0  0  0  0  0  0
   25.0162    7.4943   53.0077 N   0  0  0  0  0  0  0  0  0  0  0  0
   26.4525    7.7729   53.3384 C   0  0  0  0  0  0  0  0  0  0  0  0
   26.7964    8.7515   54.4220 N   0  0  0  0  0  0  0  0  0  0  0  0
   25.7040    9.4515   55.1747 C   0  0  0  0  0  0  0  0  0  0  0  0
   24.2677    9.1729   54.8440 C   0  0  0  0  0  0  0  0  0  0  0  0
   23.1753    9.8728   55.5968 N   0  0  0  0  0  0  0  0  0  0  0  0
   22.6536   11.1915   55.1079 O   0  0  0  0  0  0  0  0  0  0  0  0
   22.3961    9.5546   56.8384 O   0  0  0  0  0  0  0  0  0  0  0  0
   26.0480   10.4301   56.2583 N   0  0  0  0  0  0  0  0  0  0  0  0
   25.3881   11.7768   56.2897 H   0  0  0  0  0  0  0  0  0  0  0  0
   27.0517   10.0619   57.3104 C   0  0  0  0  0  0  0  0  0  0  0  0
   27.9323   11.1182   57.9093 C   0  0  0  0  0  0  0  0  0  0  0  0
   28.9360   10.7500   58.9614 C   0  0  0  0  0  0  0  0  0  0  0  0
   29.0591    9.3253   59.4146 C   0  0  0  0  0  0  0  0  0  0  0  0
   28.1785    8.2690   58.8157 C   0  0  0  0  0  0  0  0  0  0  0  0
   27.1748    8.6373   57.7636 C   0  0  0  0  0  0  0  0  0  0  0  0
   30.0628    8.9571   60.4667 S   0  0  0  0  0  0  0  0  0  0  0  0
   31.0665    8.5888   61.5189 C   0  0  0  0  0  0  0  0  0  0  0  0
   29.9703    7.5186   60.0516 O   0  0  0  0  0  0  0  0  0  0  0  0
   30.1554   10.3955   60.8819 O   0  0  0  0  0  0  0  0  0  0  0  0
   22.4875    7.9157   53.4298 O   0  0  0  0  0  0  0  0  0  0  0  0
   22.0489    6.6449   53.4276 C   0  0  0  0  0  0  0  0  0  0  0  0
   23.4868    6.2371   53.3000 O   0  0  0  0  0  0  0  0  0  0  0  0
   20.7551    5.8903   53.5094 N   0  0  0  0  0  0  0  0  0  0  0  0
   19.3883    6.4950   53.6371 C   0  0  0  0  0  0  0  0  0  0  0  0
   18.3894    5.3770   53.6845 C   0  0  0  0  0  0  0  0  0  0  0  0
   19.1388    4.0814   53.5861 C   0  0  0  0  0  0  0  0  0  0  0  0
   20.6009    4.3986   53.4779 C   0  0  0  0  0  0  0  0  0  0  0  0
   21.9802    5.0054   53.3849 C   0  0  0  0  0  0  0  0  0  0  0  0
   21.9780    6.5048   53.4292 C   0  0  0  0  0  0  0  0  0  0  0  0
   20.6822    7.2496   53.5553 C   0  0  0  0  0  0  0  0  0  0  0  0
   22.0469    8.1442   53.4719 O   0  0  0  0  0  0  0  0  0  0  0  0
   21.2599   10.0963   53.2072 C   0  0  0  0  0  0  0  0  0  0  0  0
   21.5257    8.9284   52.3042 C   0  0  0  0  0  0  0  0  0  0  0  0
   21.7915    7.7604   51.4013 C   0  0  0  0  0  0  0  0  0  0  0  0
   21.0045    9.7125   51.1366 C   0  0  0  0  0  0  0  0  0  0  0  0
 34 35  1  0  0  0
 35 36  1  0  0  0
 35 37  1  0  0  0
 35 33  1  0  0  0
 33 23  1  0  0  0
 23 24  2  0  0  0
 23 25  1  0  0  0
 25 26  1  0  0  0
 26 27  1  0  0  0
 27 28  1  0  0  0
 28 29  1  0  0  0
 29 30  1  0  0  0
 30 31  1  0  0  0
 31 22  1  0  0  0
 22  1  1  0  0  0
  1  2  2  0  0  0
  2  3  1  0  0  0
  3  4  2  0  0  0
  4  5  1  0  0  0
  5 10  1  0  0  0
 10 12  1  0  0  0
 12 13  2  0  0  0
 13 14  1  0  0  0
 14 15  2  0  0  0
 15 18  1  0  0  0
 18 19  1  0  0  0
 18 20  2  0  0  0
 18 21  2  0  0  0
 15 16  1  0  0  0
 16 17  2  0  0  0
  5  6  2  0  0  0
  6  7  1  0  0  0
  7  8  2  0  0  0
  7  9  1  0  0  0
 31 32  1  0  0  0
 29 25  1  0  0  0
  6  1  1  0  0  0
 32 26  1  0  0  0
 17 12  1  0  0  0
 10 11  1  0  0  0
M  CHG 1   7   1
M  CHG 1   9  -1
M  END
> <minimizedAffinity>
22.23574

> <CNNscore>
0.3207142055

> <CNNaffinity>
6.2575812340

> <CNN_VS>
2.0068953037

> <CNNaffinity_variance>
0.2287823707

$$$$
[H]c1nc(OC2([H])C([H])([H])[C@@]3([H])N(C(=O)OC(C([H])([H])[H])(C([H])([H])[H])C([H])([H])[H])[C@]([H])(C2([H])[H])C([H])([H])C3([H])[H])c([N+](=O)[O-])c(N([H])c2c([H])c([H])c(S(=O)(=O)C([H])([H])[H])c([H])c2[H])n1


 37 40  0  0  0  0  0  0  0  0999 V2000
   25.2444    8.5334   53.5920 C   0  0  0  0  0  0  0  0  0  0  0  0
   26.4604    8.7975   52.7544 N   0  0  0  0  0  0  0  0  0  0  0  0
   27.8038    8.9394   53.4062 C   0  0  0  0  0  0  0  0  0  0  0  0
   27.9314    8.8173   54.8959 N   0  0  0  0  0  0  0  0  0  0  0  0
   26.7154    8.5532   55.7335 C   0  0  0  0  0  0  0  0  0  0  0  0
   25.3720    8.4113   55.0817 C   0  0  0  0  0  0  0  0  0  0  0  0
   24.1560    8.1473   55.9193 N   0  0  0  0  0  0  0  0  0  0  0  0
   23.5261    9.2629   56.6996 O   0  0  0  0  0  0  0  0  0  0  0  0
   23.3294    6.9277   56.2011 O   0  0  0  0  0  0  0  0  0  0  0  0
   26.8429    8.4311   57.2231 N   0  0  0  0  0  0  0  0  0  0  0  0
   26.2150    7.2709   57.9370 H   0  0  0  0  0  0  0  0  0  0  0  0
   27.5984    9.4692   57.9988 C   0  0  0  0  0  0  0  0  0  0  0  0
   27.5394   10.9085   57.5804 C   0  0  0  0  0  0  0  0  0  0  0  0
   28.2949   11.9465   58.3561 C   0  0  0  0  0  0  0  0  0  0  0  0
   29.1093   11.5453   59.5501 C   0  0  0  0  0  0  0  0  0  0  0  0
   29.1683   10.1061   59.9685 C   0  0  0  0  0  0  0  0  0  0  0  0
   28.4128    9.0680   59.1928 C   0  0  0  0  0  0  0  0  0  0  0  0
   29.8648   12.5834   60.3258 S   0  0  0  0  0  0  0  0  0  0  0  0
   30.6202   13.6215   61.1015 C   0  0  0  0  0  0  0  0  0  0  0  0
   30.9127   11.5659   60.6670 O   0  0  0  0  0  0  0  0  0  0  0  0
   28.8168   13.6010   59.9847 O   0  0  0  0  0  0  0  0  0  0  0  0
   23.9009    8.3915   52.9402 O   0  0  0  0  0  0  0  0  0  0  0  0
   23.2185    7.2421   53.0829 C   0  0  0  0  0  0  0  0  0  0  0  0
   24.5508    6.5546   53.1319 O   0  0  0  0  0  0  0  0  0  0  0  0
   21.7978    6.7682   53.1655 N   0  0  0  0  0  0  0  0  0  0  0  0
   20.5742    7.6330   53.0944 C   0  0  0  0  0  0  0  0  0  0  0  0
   19.3714    6.7455   53.2186 C   0  0  0  0  0  0  0  0  0  0  0  0
   19.8514    5.3321   53.3665 C   0  0  0  0  0  0  0  0  0  0  0  0
   21.3510    5.3461   53.3337 C   0  0  0  0  0  0  0  0  0  0  0  0
   22.8265    5.6589   53.2680 C   0  0  0  0  0  0  0  0  0  0  0  0
   23.1211    7.1199   53.0986 C   0  0  0  0  0  0  0  0  0  0  0  0
   21.9950    8.1069   53.0118 C   0  0  0  0  0  0  0  0  0  0  0  0
   23.5131    8.7031   52.9135 O   0  0  0  0  0  0  0  0  0  0  0  0
   22.0577    9.6247   51.6757 C   0  0  0  0  0  0  0  0  0  0  0  0
   22.4281    9.7166   53.1264 C   0  0  0  0  0  0  0  0  0  0  0  0
   22.7985    9.8085   54.5770 C   0  0  0  0  0  0  0  0  0  0  0  0
   21.3430   10.7302   53.3392 C   0  0  0  0  0  0  0  0  0  0  0  0
 34 35  1  0  0  0
 35 36  1  0  0  0
 35 37  1  0  0  0
 35 33  1  0  0  0
 33 23  1  0  0  0
 23 24  2  0  0  0
 23 25  1  0  0  0
 25 26  1  0  0  0
 26 27  1  0  0  0
 27 28  1  0  0  0
 28 29  1  0  0  0
 29 30  1  0  0  0
 30 31  1  0  0  0
 31 22  1  0  0  0
 22  1  1  0  0  0
  1  2  2  0  0  0
  2  3  1  0  0  0
  3  4  2  0  0  0
  4  5  1  0  0  0
  5 10  1  0  0  0
 10 12  1  0  0  0
 12 13  2  0  0  0
 13 14  1  0  0  0
 14 15  2  0  0  0
 15 18  1  0  0  0
 18 19  1  0  0  0
 18 20  2  0  0  0
 18 21  2  0  0  0
 15 16  1  0  0  0
 16 17  2  0  0  0
  5  6  2  0  0  0
  6  7  1  0  0  0
  7  8  2  0  0  0
  7  9  1  0  0  0
 31 32  1  0  0  0
 29 25  1  0  0  0
  6  1  1  0  0  0
 32 26  1  0  0  0
 17 12  1  0  0  0
 10 11  1  0  0  0
M  CHG 1   7   1
M  CHG 1   9  -1
M  END
> <minimizedAffinity>
16.01812

> <CNNscore>
0.3159174025

> <CNNaffinity>
6.3568453789

> <CNN_VS>
2.0082380772

> <CNNaffinity_variance>
0.0953714997

$$$$
[H]c1nc(OC2([H])C([H])([H])[C@@]3([H])N(C(=O)OC(C([H])([H])[H])(C([H])([H])[H])C([H])([H])[H])[C@]([H])(C2([H])[H])C([H])([H])C3([H])[H])c([N+](=O)[O-])c(N([H])c2c([H])c([H])c(S(=O)(=O)C([H])([H])[H])c([H])c2[H])n1


 37 40  0  0  0  0  0  0  0  0999 V2000
   25.5732    8.7152   54.6500 C   0  0  0  0  0  0  0  0  0  0  0  0
   26.2025    8.7064   53.2885 N   0  0  0  0  0  0  0  0  0  0  0  0
   27.6928    8.8062   53.1505 C   0  0  0  0  0  0  0  0  0  0  0  0
   28.5538    8.9147   54.3740 N   0  0  0  0  0  0  0  0  0  0  0  0
   27.9244    8.9235   55.7355 C   0  0  0  0  0  0  0  0  0  0  0  0
   26.4342    8.8237   55.8736 C   0  0  0  0  0  0  0  0  0  0  0  0
   25.8048    8.8325   57.2351 N   0  0  0  0  0  0  0  0  0  0  0  0
   26.6136    8.4459   58.4377 O   0  0  0  0  0  0  0  0  0  0  0  0
   24.4344    9.1635   57.7476 O   0  0  0  0  0  0  0  0  0  0  0  0
   28.7854    9.0321   56.9591 N   0  0  0  0  0  0  0  0  0  0  0  0
   29.7832    7.9567   57.2718 H   0  0  0  0  0  0  0  0  0  0  0  0
   28.6484   10.2161   57.8697 C   0  0  0  0  0  0  0  0  0  0  0  0
   29.1125   10.1252   59.2933 C   0  0  0  0  0  0  0  0  0  0  0  0
   28.9755   11.3092   60.2038 C   0  0  0  0  0  0  0  0  0  0  0  0
   28.3744   12.5843   59.6910 C   0  0  0  0  0  0  0  0  0  0  0  0
   27.9104   12.6752   58.2675 C   0  0  0  0  0  0  0  0  0  0  0  0
   28.0474   11.4912   57.3569 C   0  0  0  0  0  0  0  0  0  0  0  0
   28.2375   13.7683   60.6016 S   0  0  0  0  0  0  0  0  0  0  0  0
   28.1005   14.9525   61.5122 C   0  0  0  0  0  0  0  0  0  0  0  0
   27.3334   12.9747   61.4976 O   0  0  0  0  0  0  0  0  0  0  0  0
   29.1416   14.5620   59.7056 O   0  0  0  0  0  0  0  0  0  0  0  0
   24.0829    8.6154   54.7882 O   0  0  0  0  0  0  0  0  0  0  0  0
   23.4686    7.4599   54.4803 C   0  0  0  0  0  0  0  0  0  0  0  0
   24.6596    6.7660   55.0720 O   0  0  0  0  0  0  0  0  0  0  0  0
   22.1951    6.9853   53.8455 N   0  0  0  0  0  0  0  0  0  0  0  0
   21.1020    7.8575   53.3029 C   0  0  0  0  0  0  0  0  0  0  0  0
   20.0224    6.9665   52.7639 C   0  0  0  0  0  0  0  0  0  0  0  0
   20.4483    5.5435   52.9734 C   0  0  0  0  0  0  0  0  0  0  0  0
   21.7910    5.5552   53.6419 C   0  0  0  0  0  0  0  0  0  0  0  0
   23.1131    5.8675   54.3006 C   0  0  0  0  0  0  0  0  0  0  0  0
   23.3811    7.3371   54.4365 C   0  0  0  0  0  0  0  0  0  0  0  0
   22.3755    8.3321   53.9377 C   0  0  0  0  0  0  0  0  0  0  0  0
   23.7365    8.9295   54.6163 O   0  0  0  0  0  0  0  0  0  0  0  0
   22.6469   10.2908   53.4082 C   0  0  0  0  0  0  0  0  0  0  0  0
   22.6004    9.8805   54.8502 C   0  0  0  0  0  0  0  0  0  0  0  0
   22.5539    9.4702   56.2923 C   0  0  0  0  0  0  0  0  0  0  0  0
   21.4643   10.8316   55.0841 C   0  0  0  0  0  0  0  0  0  0  0  0
 34 35  1  0  0  0
 35 36  1  0  0  0
 35 37  1  0  0  0
 35 33  1  0  0  0
 33 23  1  0  0  0
 23 24  2  0  0  0
 23 25  1  0  0  0
 25 26  1  0  0  0
 26 27  1  0  0  0
 27 28  1  0  0  0
 28 29  1  0  0  0
 29 30  1  0  0  0
 30 31  1  0  0  0
 31 22  1  0  0  0
 22  1  1  0  0  0
  1  2  2  0  0  0
  2  3  1  0  0  0
  3  4  2  0  0  0
  4  5  1  0  0  0
  5 10  1  0  0  0
 10 12  1  0  0  0
 12 13  2  0  0  0
 13 14  1  0  0  0
 14 15  2  0  0  0
 15 18  1  0  0  0
 18 19  1  0  0  0
 18 20  2  0  0  0
 18 21  2  0  0  0
 15 16  1  0  0  0
 16 17  2  0  0  0
  5  6  2  0  0  0
  6  7  1  0  0  0
  7  8  2  0  0  0
  7  9  1  0  0  0
 31 32  1  0  0  0
 29 25  1  0  0  0
  6  1  1  0  0  0
 32 26  1  0  0  0
 17 12  1  0  0  0
 10 11  1  0  0  0
M  CHG 1   7   1
M  CHG 1   9  -1
M  END
> <minimizedAffinity>
17.31740

> <CNNscore>
0.2981752157

> <CNNaffinity>
6.1840333939

> <CNN_VS>
1.8439254761

> <CNNaffinity_variance>
0.1913300902

$$$$
[H]c1nc(OC2([H])C([H])([H])[C@@]3([H])N(C(=O)OC(C([H])([H])[H])(C([H])([H])[H])C([H])([H])[H])[C@]([H])(C2([H])[H])C([H])([H])C3([H])[H])c([N+](=O)[O-])c(N([H])c2c([H])c([H])c(S(=O)(=O)C([H])([H])[H])c([H])c2[H])n1


 37 40  0  0  0  0  0  0  0  0999 V2000
   25.1919    8.5579   54.6350 C   0  0  0  0  0  0  0  0  0  0  0  0
   25.5868    8.4213   53.1944 N   0  0  0  0  0  0  0  0  0  0  0  0
   27.0352    8.4612   52.8067 C   0  0  0  0  0  0  0  0  0  0  0  0
   28.0889    8.6376   53.8597 N   0  0  0  0  0  0  0  0  0  0  0  0
   27.6940    8.7742   55.3003 C   0  0  0  0  0  0  0  0  0  0  0  0
   26.2456    8.7343   55.6880 C   0  0  0  0  0  0  0  0  0  0  0  0
   25.8507    8.8709   57.1286 N   0  0  0  0  0  0  0  0  0  0  0  0
   24.5706    9.5627   57.4930 O   0  0  0  0  0  0  0  0  0  0  0  0
   26.4756    8.4480   58.4250 O   0  0  0  0  0  0  0  0  0  0  0  0
   28.7477    8.9506   56.3533 N   0  0  0  0  0  0  0  0  0  0  0  0
   29.9462    8.0489   56.3734 H   0  0  0  0  0  0  0  0  0  0  0  0
   28.6027   10.0288   57.3860 C   0  0  0  0  0  0  0  0  0  0  0  0
   28.9630    9.7515   58.8155 C   0  0  0  0  0  0  0  0  0  0  0  0
   28.8180   10.8297   59.8481 C   0  0  0  0  0  0  0  0  0  0  0  0
   28.3127   12.1852   59.4514 C   0  0  0  0  0  0  0  0  0  0  0  0
   27.9525   12.4624   58.0219 C   0  0  0  0  0  0  0  0  0  0  0  0
   28.0975   11.3843   56.9893 C   0  0  0  0  0  0  0  0  0  0  0  0
   28.1677   13.2634   60.4840 S   0  0  0  0  0  0  0  0  0  0  0  0
   28.0228   14.3417   61.5167 C   0  0  0  0  0  0  0  0  0  0  0  0
   27.4240   12.3116   61.3734 O   0  0  0  0  0  0  0  0  0  0  0  0
   28.9115   14.2152   59.5947 O   0  0  0  0  0  0  0  0  0  0  0  0
   23.7434    8.5180   55.0228 O   0  0  0  0  0  0  0  0  0  0  0  0
   22.8367    9.2095   54.3109 C   0  0  0  0  0  0  0  0  0  0  0  0
   23.0308   10.3204   55.3000 O   0  0  0  0  0  0  0  0  0  0  0  0
   21.9807    9.0382   53.0910 N   0  0  0  0  0  0  0  0  0  0  0  0
   21.9280    7.8220   52.2146 C   0  0  0  0  0  0  0  0  0  0  0  0
   20.9418    8.0851   51.1154 C   0  0  0  0  0  0  0  0  0  0  0  0
   20.3850    9.4639   51.3125 C   0  0  0  0  0  0  0  0  0  0  0  0
   21.0271   10.0529   52.5335 C   0  0  0  0  0  0  0  0  0  0  0  0
   21.8196   10.3816   53.7758 C   0  0  0  0  0  0  0  0  0  0  0  0
   22.7298    9.2731   54.2150 C   0  0  0  0  0  0  0  0  0  0  0  0
   22.7840    7.9934   53.4344 C   0  0  0  0  0  0  0  0  0  0  0  0
   23.7469    8.1011   54.7501 O   0  0  0  0  0  0  0  0  0  0  0  0
   22.1813    7.5067   56.0522 C   0  0  0  0  0  0  0  0  0  0  0  0
   23.1714    6.7862   55.1858 C   0  0  0  0  0  0  0  0  0  0  0  0
   24.1615    6.0658   54.3194 C   0  0  0  0  0  0  0  0  0  0  0  0
   22.5959    5.4713   55.6216 C   0  0  0  0  0  0  0  0  0  0  0  0
 34 35  1  0  0  0
 35 36  1  0  0  0
 35 37  1  0  0  0
 35 33  1  0  0  0
 33 23  1  0  0  0
 23 24  2  0  0  0
 23 25  1  0  0  0
 25 26  1  0  0  0
 26 27  1  0  0  0
 27 28  1  0  0  0
 28 29  1  0  0  0
 29 30  1  0  0  0
 30 31  1  0  0  0
 31 22  1  0  0  0
 22  1  1  0  0  0
  1  2  2  0  0  0
  2  3  1  0  0  0
  3  4  2  0  0  0
  4  5  1  0  0  0
  5 10  1  0  0  0
 10 12  1  0  0  0
 12 13  2  0  0  0
 13 14  1  0  0  0
 14 15  2  0  0  0
 15 18  1  0  0  0
 18 19  1  0  0  0
 18 20  2  0  0  0
 18 21  2  0  0  0
 15 16  1  0  0  0
 16 17  2  0  0  0
  5  6  2  0  0  0
  6  7  1  0  0  0
  7  8  2  0  0  0
  7  9  1  0  0  0
 31 32  1  0  0  0
 29 25  1  0  0  0
  6  1  1  0  0  0
 32 26  1  0  0  0
 17 12  1  0  0  0
 10 11  1  0  0  0
M  CHG 1   7   1
M  CHG 1   9  -1
M  END
> <minimizedAffinity>
17.53494

> <CNNscore>
0.2798701227

> <CNNaffinity>
6.2236313820

> <CNN_VS>
1.7418085337

> <CNNaffinity_variance>
0.2984836400

$$$$
[H]c1nc(OC2([H])C([H])([H])[C@@]3([H])N(C(=O)OC(C([H])([H])[H])(C([H])([H])[H])C([H])([H])[H])[C@]([H])(C2([H])[H])C([H])([H])C3([H])[H])c([N+](=O)[O-])c(N([H])c2c([H])c([H])c(S(=O)(=O)C([H])([H])[H])c([H])c2[H])n1


 37 40  0  0  0  0  0  0  0  0999 V2000
   23.8749    7.7630   53.9884 C   0  0  0  0  0  0  0  0  0  0  0  0
   24.9184    6.9190   53.3185 N   0  0  0  0  0  0  0  0  0  0  0  0
   26.3732    7.2155   53.5318 C   0  0  0  0  0  0  0  0  0  0  0  0
   26.7846    8.3561   54.4150 N   0  0  0  0  0  0  0  0  0  0  0  0
   25.7411    9.2000   55.0849 C   0  0  0  0  0  0  0  0  0  0  0  0
   24.2863    8.9035   54.8716 C   0  0  0  0  0  0  0  0  0  0  0  0
   23.2427    9.7475   55.5415 N   0  0  0  0  0  0  0  0  0  0  0  0
   22.9103    9.5222   56.9868 O   0  0  0  0  0  0  0  0  0  0  0  0
   22.3606   10.8714   55.0848 O   0  0  0  0  0  0  0  0  0  0  0  0
   26.1524   10.3406   55.9681 N   0  0  0  0  0  0  0  0  0  0  0  0
   25.5811   11.7088   55.7411 H   0  0  0  0  0  0  0  0  0  0  0  0
   27.1351   10.1128   57.0783 C   0  0  0  0  0  0  0  0  0  0  0  0
   27.4384    8.7172   57.5369 C   0  0  0  0  0  0  0  0  0  0  0  0
   28.4210    8.4895   58.6471 C   0  0  0  0  0  0  0  0  0  0  0  0
   29.1004    9.6574   59.2987 C   0  0  0  0  0  0  0  0  0  0  0  0
   28.7971   11.0530   58.8400 C   0  0  0  0  0  0  0  0  0  0  0  0
   27.8145   11.2807   57.7299 C   0  0  0  0  0  0  0  0  0  0  0  0
   30.0830    9.4297   60.4088 S   0  0  0  0  0  0  0  0  0  0  0  0
   31.0657    9.2019   61.5191 C   0  0  0  0  0  0  0  0  0  0  0  0
   30.4848   10.8736   60.3495 O   0  0  0  0  0  0  0  0  0  0  0  0
   29.6813    7.9857   60.4683 O   0  0  0  0  0  0  0  0  0  0  0  0
   22.4201    7.4665   53.7752 O   0  0  0  0  0  0  0  0  0  0  0  0
   21.7630    7.9958   52.7286 C   0  0  0  0  0  0  0  0  0  0  0  0
   21.4049    6.5895   52.3492 O   0  0  0  0  0  0  0  0  0  0  0  0
   21.4693    9.3420   52.1357 N   0  0  0  0  0  0  0  0  0  0  0  0
   21.9290   10.6632   52.6771 C   0  0  0  0  0  0  0  0  0  0  0  0
   21.4082   11.7411   51.7732 C   0  0  0  0  0  0  0  0  0  0  0  0
   20.6266   11.0860   50.6731 C   0  0  0  0  0  0  0  0  0  0  0  0
   20.6644    9.6033   50.8972 C   0  0  0  0  0  0  0  0  0  0  0  0
   20.8690    8.1824   51.3646 C   0  0  0  0  0  0  0  0  0  0  0  0
   21.6927    8.0767   52.6138 C   0  0  0  0  0  0  0  0  0  0  0  0
   22.2227    9.3170   53.2700 C   0  0  0  0  0  0  0  0  0  0  0  0
   22.5867    7.8900   53.9777 O   0  0  0  0  0  0  0  0  0  0  0  0
   21.0363    8.0332   55.4185 C   0  0  0  0  0  0  0  0  0  0  0  0
   22.1152    7.0357   55.1169 C   0  0  0  0  0  0  0  0  0  0  0  0
   23.1940    6.0381   54.8154 C   0  0  0  0  0  0  0  0  0  0  0  0
   21.6436    6.1813   56.2561 C   0  0  0  0  0  0  0  0  0  0  0  0
 34 35  1  0  0  0
 35 36  1  0  0  0
 35 37  1  0  0  0
 35 33  1  0  0  0
 33 23  1  0  0  0
 23 24  2  0  0  0
 23 25  1  0  0  0
 25 26  1  0  0  0
 26 27  1  0  0  0
 27 28  1  0  0  0
 28 29  1  0  0  0
 29 30  1  0  0  0
 30 31  1  0  0  0
 31 22  1  0  0  0
 22  1  1  0  0  0
  1  2  2  0  0  0
  2  3  1  0  0  0
  3  4  2  0  0  0
  4  5  1  0  0  0
  5 10  1  0  0  0
 10 12  1  0  0  0
 12 13  2  0  0  0
 13 14  1  0  0  0
 14 15  2  0  0  0
 15 18  1  0  0  0
 18 19  1  0  0  0
 18 20  2  0  0  0
 18 21  2  0  0  0
 15 16  1  0  0  0
 16 17  2  0  0  0
  5  6  2  0  0  0
  6  7  1  0  0  0
  7  8  2  0  0  0
  7  9  1  0  0  0
 31 32  1  0  0  0
 29 25  1  0  0  0
  6  1  1  0  0  0
 32 26  1  0  0  0
 17 12  1  0  0  0
 10 11  1  0  0  0
M  CHG 1   7   1
M  CHG 1   9  -1
M  END
> <minimizedAffinity>
15.35401

> <CNNscore>
0.2675342858

> <CNNaffinity>
6.1332840919

> <CNN_VS>
1.6408637762

> <CNNaffinity_variance>
0.0889870524

$$$$
[H]c1nc(OC2([H])C([H])([H])[C@@]3([H])N(C(=O)OC(C([H])([H])[H])(C([H])([H])[H])C([H])([H])[H])[C@]([H])(C2([H])[H])C([H])([H])C3([H])[H])c([N+](=O)[O-])c(N([H])c2c([H])c([H])c(S(=O)(=O)C([H])([H])[H])c([H])c2[H])n1


 37 40  0  0  0  0  0  0  0  0999 V2000
   23.2292    8.6983   54.4165 C   0  0  0  0  0  0  0  0  0  0  0  0
   22.4498    9.4213   55.4747 N   0  0  0  0  0  0  0  0  0  0  0  0
   23.1537    9.9753   56.6778 C   0  0  0  0  0  0  0  0  0  0  0  0
   24.6371    9.8063   56.8228 N   0  0  0  0  0  0  0  0  0  0  0  0
   25.4166    9.0834   55.7646 C   0  0  0  0  0  0  0  0  0  0  0  0
   24.7127    8.5294   54.5615 C   0  0  0  0  0  0  0  0  0  0  0  0
   25.4921    7.8064   53.5033 N   0  0  0  0  0  0  0  0  0  0  0  0
   26.6200    8.4992   52.7977 O   0  0  0  0  0  0  0  0  0  0  0  0
   25.4205    6.4285   52.9147 O   0  0  0  0  0  0  0  0  0  0  0  0
   26.9000    8.9144   55.9096 N   0  0  0  0  0  0  0  0  0  0  0  0
   27.6564    8.0610   54.9352 H   0  0  0  0  0  0  0  0  0  0  0  0
   27.6269    9.5990   57.0290 C   0  0  0  0  0  0  0  0  0  0  0  0
   28.1476    8.7983   58.1856 C   0  0  0  0  0  0  0  0  0  0  0  0
   28.8745    9.4829   59.3049 C   0  0  0  0  0  0  0  0  0  0  0  0
   29.0807   10.9682   59.2676 C   0  0  0  0  0  0  0  0  0  0  0  0
   28.5599   11.7689   58.1110 C   0  0  0  0  0  0  0  0  0  0  0  0
   27.8330   11.0843   56.9917 C   0  0  0  0  0  0  0  0  0  0  0  0
   29.8075   11.6528   60.3870 S   0  0  0  0  0  0  0  0  0  0  0  0
   30.5345   12.3374   61.5064 C   0  0  0  0  0  0  0  0  0  0  0  0
   28.6984   12.6571   60.4931 O   0  0  0  0  0  0  0  0  0  0  0  0
   30.9167   10.6486   60.2809 O   0  0  0  0  0  0  0  0  0  0  0  0
   22.5254    8.1443   53.2134 O   0  0  0  0  0  0  0  0  0  0  0  0
   21.9785    6.9173   53.2644 C   0  0  0  0  0  0  0  0  0  0  0  0
   23.3659    6.3820   53.0681 O   0  0  0  0  0  0  0  0  0  0  0  0
   20.6306    6.2813   53.4339 N   0  0  0  0  0  0  0  0  0  0  0  0
   19.3310    7.0063   53.6218 C   0  0  0  0  0  0  0  0  0  0  0  0
   18.2428    5.9818   53.7493 C   0  0  0  0  0  0  0  0  0  0  0  0
   18.8699    4.6236   53.6401 C   0  0  0  0  0  0  0  0  0  0  0  0
   20.3456    4.8087   53.4452 C   0  0  0  0  0  0  0  0  0  0  0  0
   21.7651    5.2897   53.2632 C   0  0  0  0  0  0  0  0  0  0  0  0
   21.8959    6.7840   53.2730 C   0  0  0  0  0  0  0  0  0  0  0  0
   20.6789    7.6423   53.4523 C   0  0  0  0  0  0  0  0  0  0  0  0
   22.1094    8.4115   53.2742 O   0  0  0  0  0  0  0  0  0  0  0  0
   21.6292    8.0747   51.2355 C   0  0  0  0  0  0  0  0  0  0  0  0
   21.4790    9.2268   52.1843 C   0  0  0  0  0  0  0  0  0  0  0  0
   21.3287   10.3789   53.1330 C   0  0  0  0  0  0  0  0  0  0  0  0
   20.8485   10.0421   51.0944 C   0  0  0  0  0  0  0  0  0  0  0  0
 34 35  1  0  0  0
 35 36  1  0  0  0
 35 37  1  0  0  0
 35 33  1  0  0  0
 33 23  1  0  0  0
 23 24  2  0  0  0
 23 25  1  0  0  0
 25 26  1  0  0  0
 26 27  1  0  0  0
 27 28  1  0  0  0
 28 29  1  0  0  0
 29 30  1  0  0  0
 30 31  1  0  0  0
 31 22  1  0  0  0
 22  1  1  0  0  0
  1  2  2  0  0  0
  2  3  1  0  0  0
  3  4  2  0  0  0
  4  5  1  0  0  0
  5 10  1  0  0  0
 10 12  1  0  0  0
 12 13  2  0  0  0
 13 14  1  0  0  0
 14 15  2  0  0  0
 15 18  1  0  0  0
 18 19  1  0  0  0
 18 20  2  0  0  0
 18 21  2  0  0  0
 15 16  1  0  0  0
 16 17  2  0  0  0
  5  6  2  0  0  0
  6  7  1  0  0  0
  7  8  2  0  0  0
  7  9  1  0  0  0
 31 32  1  0  0  0
 29 25  1  0  0  0
  6  1  1  0  0  0
 32 26  1  0  0  0
 17 12  1  0  0  0
 10 11  1  0  0  0
M  CHG 1   7   1
M  CHG 1   9  -1
M  END
> <minimizedAffinity>
18.07936

> <CNNscore>
0.2650388479

> <CNNaffinity>
6.1965594292

> <CNN_VS>
1.6423289776

> <CNNaffinity_variance>
0.2527824640

$$$$
[H]c1nc(OC2([H])C([H])([H])[C@@]3([H])N(C(=O)OC(C([H])([H])[H])(C([H])([H])[H])C([H])([H])[H])[C@]([H])(C2([H])[H])C([H])([H])C3([H])[H])c([N+](=O)[O-])c(N([H])c2c([H])c([H])c(S(=O)(=O)C([H])([H])[H])c([H])c2[H])n1


 37 40  0  0  0  0  0  0  0  0999 V2000
   24.2238    7.5917   54.4848 C   0  0  0  0  0  0  0  0  0  0  0  0
   24.4177    6.3682   53.6389 N   0  0  0  0  0  0  0  0  0  0  0  0
   25.7805    6.0290   53.1121 C   0  0  0  0  0  0  0  0  0  0  0  0
   26.9495    6.9132   53.4310 N   0  0  0  0  0  0  0  0  0  0  0  0
   26.7556    8.1367   54.2769 C   0  0  0  0  0  0  0  0  0  0  0  0
   25.3928    8.4760   54.8038 C   0  0  0  0  0  0  0  0  0  0  0  0
   25.1988    9.6994   55.6496 N   0  0  0  0  0  0  0  0  0  0  0  0
   25.4614    9.6403   57.1253 O   0  0  0  0  0  0  0  0  0  0  0  0
   24.7655   11.1066   55.3629 O   0  0  0  0  0  0  0  0  0  0  0  0
   27.9245    9.0210   54.5959 N   0  0  0  0  0  0  0  0  0  0  0  0
   28.9265    9.3530   53.5302 H   0  0  0  0  0  0  0  0  0  0  0  0
   28.0913    9.5732   55.9805 C   0  0  0  0  0  0  0  0  0  0  0  0
   28.1798    8.6425   57.1536 C   0  0  0  0  0  0  0  0  0  0  0  0
   28.3466    9.1948   58.5381 C   0  0  0  0  0  0  0  0  0  0  0  0
   28.4249   10.6778   58.7497 C   0  0  0  0  0  0  0  0  0  0  0  0
   28.3365   11.6084   57.5767 C   0  0  0  0  0  0  0  0  0  0  0  0
   28.1697   11.0561   56.1921 C   0  0  0  0  0  0  0  0  0  0  0  0
   28.5917   11.2300   60.1343 S   0  0  0  0  0  0  0  0  0  0  0  0
   28.7586   11.7823   61.5190 C   0  0  0  0  0  0  0  0  0  0  0  0
   28.1387   12.5762   59.6520 O   0  0  0  0  0  0  0  0  0  0  0  0
   29.0448    9.8839   60.6167 O   0  0  0  0  0  0  0  0  0  0  0  0
   22.8610    7.9310   55.0117 O   0  0  0  0  0  0  0  0  0  0  0  0
   22.3382    9.1525   54.8073 C   0  0  0  0  0  0  0  0  0  0  0  0
   22.3671    9.3225   56.2974 O   0  0  0  0  0  0  0  0  0  0  0  0
   21.8989   10.0231   53.6676 N   0  0  0  0  0  0  0  0  0  0  0  0
   21.9513    9.6635   52.2123 C   0  0  0  0  0  0  0  0  0  0  0  0
   21.4148   10.8244   51.4283 C   0  0  0  0  0  0  0  0  0  0  0  0
   21.0309   11.9015   52.3991 C   0  0  0  0  0  0  0  0  0  0  0  0
   21.3300   11.4063   53.7830 C   0  0  0  0  0  0  0  0  0  0  0  0
   21.7255   10.6585   55.0335 C   0  0  0  0  0  0  0  0  0  0  0  0
   22.2777    9.2903   54.7626 C   0  0  0  0  0  0  0  0  0  0  0  0
   22.3905    8.7929   53.3520 C   0  0  0  0  0  0  0  0  0  0  0  0
   22.8903    7.7844   54.5365 O   0  0  0  0  0  0  0  0  0  0  0  0
   22.1473    6.7632   52.8321 C   0  0  0  0  0  0  0  0  0  0  0  0
   21.9586    6.6301   54.3142 C   0  0  0  0  0  0  0  0  0  0  0  0
   21.7698    6.4970   55.7963 C   0  0  0  0  0  0  0  0  0  0  0  0
   21.0268    5.4758   54.0919 C   0  0  0  0  0  0  0  0  0  0  0  0
 34 35  1  0  0  0
 35 36  1  0  0  0
 35 37  1  0  0  0
 35 33  1  0  0  0
 33 23  1  0  0  0
 23 24  2  0  0  0
 23 25  1  0  0  0
 25 26  1  0  0  0
 26 27  1  0  0  0
 27 28  1  0  0  0
 28 29  1  0  0  0
 29 30  1  0  0  0
 30 31  1  0  0  0
 31 22  1  0  0  0
 22  1  1  0  0  0
  1  2  2  0  0  0
  2  3  1  0  0  0
  3  4  2  0  0  0
  4  5  1  0  0  0
  5 10  1  0  0  0
 10 12  1  0  0  0
 12 13  2  0  0  0
 13 14  1  0  0  0
 14 15  2  0  0  0
 15 18  1  0  0  0
 18 19  1  0  0  0
 18 20  2  0  0  0
 18 21  2  0  0  0
 15 16  1  0  0  0
 16 17  2  0  0  0
  5  6  2  0  0  0
  6  7  1  0  0  0
  7  8  2  0  0  0
  7  9  1  0  0  0
 31 32  1  0  0  0
 29 25  1  0  0  0
  6  1  1  0  0  0
 32 26  1  0  0  0
 17 12  1  0  0  0
 10 11  1  0  0  0
M  CHG 1   7   1
M  CHG 1   9  -1
M  END
> <minimizedAffinity>
20.19447

> <CNNscore>
0.1853310168

> <CNNaffinity>
5.9214205742

> <CNN_VS>
1.0974228382

> <CNNaffinity_variance>
0.2038472146

$$$$
[H]c1c([H])c(N([H])c2nc(N3C([H])([H])C([H])([H])C([H])([H])C3([H])[H])c3c([H])c([H])c([H])c([H])c3n2)c([H])c([H])c1OC([H])([H])[H]


 25 28  0  0  0  0  0  0  0  0999 V2000
   27.4655    8.3688   53.4074 C   0  0  0  0  0  0  0  0  0  0  0  0
   26.1399    8.3098   53.5586 N   0  0  0  0  0  0  0  0  0  0  0  0
   25.5099    8.4778   54.7394 C   0  0  0  0  0  0  0  0  0  0  0  0
   26.2816    8.7232   55.8521 C   0  0  0  0  0  0  0  0  0  0  0  0
   25.7206    8.8945   57.0899 C   0  0  0  0  0  0  0  0  0  0  0  0
   26.5545    9.1305   58.1695 C   0  0  0  0  0  0  0  0  0  0  0  0
   27.9171    9.1991   58.0498 C   0  0  0  0  0  0  0  0  0  0  0  0
   28.4936    9.0293   56.8213 C   0  0  0  0  0  0  0  0  0  0  0  0
   27.6724    8.7903   55.7207 C   0  0  0  0  0  0  0  0  0  0  0  0
   28.1861    8.6086   54.5007 N   0  0  0  0  0  0  0  0  0  0  0  0
   24.0844    8.4294   54.7939 N   0  0  0  0  0  0  0  0  0  0  0  0
   23.2329    7.4016   54.2866 C   0  0  0  0  0  0  0  0  0  0  0  0
   21.9196    7.5263   55.0628 C   0  0  0  0  0  0  0  0  0  0  0  0
   22.2215    8.5510   56.1044 C   0  0  0  0  0  0  0  0  0  0  0  0
   23.2501    9.4417   55.3966 C   0  0  0  0  0  0  0  0  0  0  0  0
   28.0378    8.1631   52.1345 N   0  0  0  0  0  0  0  0  0  0  0  0
   28.3550    7.1652   51.9401 H   0  0  0  0  0  0  0  0  0  0  0  0
   28.6833   10.7883   48.8460 C   0  0  0  0  0  0  0  0  0  0  0  0
   28.5547   11.2888   50.1166 C   0  0  0  0  0  0  0  0  0  0  0  0
   28.3322   10.4601   51.2292 C   0  0  0  0  0  0  0  0  0  0  0  0
   28.2323    9.0993   51.1000 C   0  0  0  0  0  0  0  0  0  0  0  0
   28.3663    8.6065   49.7913 C   0  0  0  0  0  0  0  0  0  0  0  0
   28.5836    9.4242   48.7078 C   0  0  0  0  0  0  0  0  0  0  0  0
   28.4366   11.2583   46.4717 C   0  0  0  0  0  0  0  0  0  0  0  0
   28.9028   11.6184   47.7578 O   0  0  0  0  0  0  0  0  0  0  0  0
 24 25  1  0  0  0
 25 18  1  0  0  0
 18 19  2  0  0  0
 19 20  1  0  0  0
 20 21  2  0  0  0
 21 16  1  0  0  0
 16  1  1  0  0  0
  1  2  2  0  0  0
  2  3  1  0  0  0
  3 11  1  0  0  0
 11 12  1  0  0  0
 12 13  1  0  0  0
 13 14  1  0  0  0
 14 15  1  0  0  0
  3  4  2  0  0  0
  4  5  1  0  0  0
  5  6  2  0  0  0
  6  7  1  0  0  0
  7  8  2  0  0  0
  8  9  1  0  0  0
  9 10  2  0  0  0
 21 22  1  0  0  0
 22 23  2  0  0  0
 23 18  1  0  0  0
 10  1  1  0  0  0
 15 11  1  0  0  0
  9  4  1  0  0  0
 16 17  1  0  0  0
M  END
> <minimizedAffinity>
35.81680

> <CNNscore>
0.5325954556

> <CNNaffinity>
5.4147882462

> <CNN_VS>
2.8838915825

> <CNNaffinity_variance>
0.1059664041

$$$$
[H]c1c([H])c(N([H])c2nc(N3C([H])([H])C([H])([H])C([H])([H])C3([H])[H])c3c([H])c([H])c([H])c([H])c3n2)c([H])c([H])c1OC([H])([H])[H]


 25 28  0  0  0  0  0  0  0  0999 V2000
   24.8827    9.3268   55.3611 C   0  0  0  0  0  0  0  0  0  0  0  0
   25.7045    9.8739   56.2606 N   0  0  0  0  0  0  0  0  0  0  0  0
   27.0316    9.6375   56.3081 C   0  0  0  0  0  0  0  0  0  0  0  0
   27.5670    8.7805   55.3738 C   0  0  0  0  0  0  0  0  0  0  0  0
   28.9032    8.4791   55.3602 C   0  0  0  0  0  0  0  0  0  0  0  0
   29.3759    7.6032   54.3980 C   0  0  0  0  0  0  0  0  0  0  0  0
   28.5619    7.0259   53.4600 C   0  0  0  0  0  0  0  0  0  0  0  0
   27.2253    7.3151   53.4602 C   0  0  0  0  0  0  0  0  0  0  0  0
   26.7280    8.1945   54.4206 C   0  0  0  0  0  0  0  0  0  0  0  0
   25.4289    8.5030   54.4694 N   0  0  0  0  0  0  0  0  0  0  0  0
   27.8331   10.2966   57.2881 N   0  0  0  0  0  0  0  0  0  0  0  0
   27.8147   11.6823   57.6321 C   0  0  0  0  0  0  0  0  0  0  0  0
   28.3959   11.7696   59.0454 C   0  0  0  0  0  0  0  0  0  0  0  0
   28.5389   10.3424   59.4565 C   0  0  0  0  0  0  0  0  0  0  0  0
   28.8167    9.6445   58.1194 C   0  0  0  0  0  0  0  0  0  0  0  0
   23.5033    9.6197   55.3993 N   0  0  0  0  0  0  0  0  0  0  0  0
   23.2474   10.5119   55.9216 H   0  0  0  0  0  0  0  0  0  0  0  0
   20.4309    7.2014   53.7157 C   0  0  0  0  0  0  0  0  0  0  0  0
   20.3485    8.5690   53.6522 C   0  0  0  0  0  0  0  0  0  0  0  0
   21.3348    9.4053   54.2019 C   0  0  0  0  0  0  0  0  0  0  0  0
   22.4376    8.8925   54.8336 C   0  0  0  0  0  0  0  0  0  0  0  0
   22.5034    7.4903   54.8886 C   0  0  0  0  0  0  0  0  0  0  0  0
   21.5340    6.6790   54.3484 C   0  0  0  0  0  0  0  0  0  0  0  0
   19.7212    5.0329   52.8710 C   0  0  0  0  0  0  0  0  0  0  0  0
   19.4499    6.3890   53.1686 O   0  0  0  0  0  0  0  0  0  0  0  0
 24 25  1  0  0  0
 25 18  1  0  0  0
 18 19  2  0  0  0
 19 20  1  0  0  0
 20 21  2  0  0  0
 21 16  1  0  0  0
 16  1  1  0  0  0
  1  2  2  0  0  0
  2  3  1  0  0  0
  3 11  1  0  0  0
 11 12  1  0  0  0
 12 13  1  0  0  0
 13 14  1  0  0  0
 14 15  1  0  0  0
  3  4  2  0  0  0
  4  5  1  0  0  0
  5  6  2  0  0  0
  6  7  1  0  0  0
  7  8  2  0  0  0
  8  9  1  0  0  0
  9 10  2  0  0  0
 21 22  1  0  0  0
 22 23  2  0  0  0
 23 18  1  0  0  0
 10  1  1  0  0  0
 15 11  1  0  0  0
  9  4  1  0  0  0
 16 17  1  0  0  0
M  END
> <minimizedAffinity>
16.53434

> <CNNscore>
0.5117022395

> <CNNaffinity>
5.7779912949

> <CNN_VS>
2.9566111565

> <CNNaffinity_variance>
0.2226518691

$$$$
[H]c1c([H])c(N([H])c2nc(N3C([H])([H])C([H])([H])C([H])([H])C3([H])[H])c3c([H])c([H])c([H])c([H])c3n2)c([H])c([H])c1OC([H])([H])[H]


 25 28  0  0  0  0  0  0  0  0999 V2000
   24.8525    8.3726   54.6326 C   0  0  0  0  0  0  0  0  0  0  0  0
   24.1117    7.3704   54.1525 N   0  0  0  0  0  0  0  0  0  0  0  0
   22.7728    7.4311   54.0006 C   0  0  0  0  0  0  0  0  0  0  0  0
   22.1355    8.5956   54.3638 C   0  0  0  0  0  0  0  0  0  0  0  0
   20.7774    8.7345   54.2512 C   0  0  0  0  0  0  0  0  0  0  0  0
   20.1981    9.9297   54.6418 C   0  0  0  0  0  0  0  0  0  0  0  0
   20.9277   10.9779   55.1363 C   0  0  0  0  0  0  0  0  0  0  0  0
   22.2845   10.8555   55.2563 C   0  0  0  0  0  0  0  0  0  0  0  0
   22.8884    9.6603   54.8691 C   0  0  0  0  0  0  0  0  0  0  0  0
   24.2090    9.4867   54.9746 N   0  0  0  0  0  0  0  0  0  0  0  0
   22.0723    6.3176   53.4468 N   0  0  0  0  0  0  0  0  0  0  0  0
   22.3402    4.9318   53.6629 C   0  0  0  0  0  0  0  0  0  0  0  0
   21.0357    4.1991   53.3404 C   0  0  0  0  0  0  0  0  0  0  0  0
   20.0551    5.3029   53.1254 C   0  0  0  0  0  0  0  0  0  0  0  0
   20.9403    6.4187   52.5568 C   0  0  0  0  0  0  0  0  0  0  0  0
   26.2470    8.2118   54.7724 N   0  0  0  0  0  0  0  0  0  0  0  0
   26.7048    7.5960   54.0339 H   0  0  0  0  0  0  0  0  0  0  0  0
   28.6280    9.8341   57.9063 C   0  0  0  0  0  0  0  0  0  0  0  0
   29.0104    9.9841   56.5977 C   0  0  0  0  0  0  0  0  0  0  0  0
   28.2599    9.4578   55.5328 C   0  0  0  0  0  0  0  0  0  0  0  0
   27.0985    8.7632   55.7499 C   0  0  0  0  0  0  0  0  0  0  0  0
   26.7243    8.6201   57.0964 C   0  0  0  0  0  0  0  0  0  0  0  0
   27.4644    9.1379   58.1326 C   0  0  0  0  0  0  0  0  0  0  0  0
   29.1052   11.6521   59.4512 C   0  0  0  0  0  0  0  0  0  0  0  0
   29.3789   10.3592   58.9465 O   0  0  0  0  0  0  0  0  0  0  0  0
 24 25  1  0  0  0
 25 18  1  0  0  0
 18 19  2  0  0  0
 19 20  1  0  0  0
 20 21  2  0  0  0
 21 16  1  0  0  0
 16  1  1  0  0  0
  1  2  2  0  0  0
  2  3  1  0  0  0
  3 11  1  0  0  0
 11 12  1  0  0  0
 12 13  1  0  0  0
 13 14  1  0  0  0
 14 15  1  0  0  0
  3  4  2  0  0  0
  4  5  1  0  0  0
  5  6  2  0  0  0
  6  7  1  0  0  0
  7  8  2  0  0  0
  8  9  1  0  0  0
  9 10  2  0  0  0
 21 22  1  0  0  0
 22 23  2  0  0  0
 23 18  1  0  0  0
 10  1  1  0  0  0
 15 11  1  0  0  0
  9  4  1  0  0  0
 16 17  1  0  0  0
M  END
> <minimizedAffinity>
19.78272

> <CNNscore>
0.4857357442

> <CNNaffinity>
5.7844185829

> <CNN_VS>
2.8096988201

> <CNNaffinity_variance>
0.3733477592

$$$$
[H]c1c([H])c(N([H])c2nc(N3C([H])([H])C([H])([H])C([H])([H])C3([H])[H])c3c([H])c([H])c([H])c([H])c3n2)c([H])c([H])c1OC([H])([H])[H]


 25 28  0  0  0  0  0  0  0  0999 V2000
   24.6020    7.4158   53.8886 C   0  0  0  0  0  0  0  0  0  0  0  0
   24.0329    8.6178   53.7660 N   0  0  0  0  0  0  0  0  0  0  0  0
   22.7152    8.8070   53.5484 C   0  0  0  0  0  0  0  0  0  0  0  0
   21.9129    7.6936   53.4463 C   0  0  0  0  0  0  0  0  0  0  0  0
   20.5668    7.7989   53.2151 C   0  0  0  0  0  0  0  0  0  0  0  0
   19.8181    6.6387   53.1152 C   0  0  0  0  0  0  0  0  0  0  0  0
   20.3687    5.3907   53.2376 C   0  0  0  0  0  0  0  0  0  0  0  0
   21.7112    5.2677   53.4675 C   0  0  0  0  0  0  0  0  0  0  0  0
   22.4840    6.4231   53.5713 C   0  0  0  0  0  0  0  0  0  0  0  0
   23.8011    6.3573   53.7863 N   0  0  0  0  0  0  0  0  0  0  0  0
   22.1953   10.1336   53.4647 N   0  0  0  0  0  0  0  0  0  0  0  0
   21.8467   10.8540   52.2822 C   0  0  0  0  0  0  0  0  0  0  0  0
   20.8551   11.9318   52.7267 C   0  0  0  0  0  0  0  0  0  0  0  0
   20.5909   11.5995   54.1571 C   0  0  0  0  0  0  0  0  0  0  0  0
   21.9236   10.9831   54.5998 C   0  0  0  0  0  0  0  0  0  0  0  0
   25.9933    7.3147   54.0980 N   0  0  0  0  0  0  0  0  0  0  0  0
   26.4662    6.5045   53.5938 H   0  0  0  0  0  0  0  0  0  0  0  0
   28.2892    9.8982   56.5833 C   0  0  0  0  0  0  0  0  0  0  0  0
   28.8421    9.3544   55.4520 C   0  0  0  0  0  0  0  0  0  0  0  0
   28.1240    8.4903   54.6082 C   0  0  0  0  0  0  0  0  0  0  0  0
   26.8247    8.1454   54.8748 C   0  0  0  0  0  0  0  0  0  0  0  0
   26.2768    8.7122   56.0376 C   0  0  0  0  0  0  0  0  0  0  0  0
   26.9863    9.5566   56.8582 C   0  0  0  0  0  0  0  0  0  0  0  0
   28.7150   10.8374   58.7869 C   0  0  0  0  0  0  0  0  0  0  0  0
   29.0101   10.7494   57.4063 O   0  0  0  0  0  0  0  0  0  0  0  0
 24 25  1  0  0  0
 25 18  1  0  0  0
 18 19  2  0  0  0
 19 20  1  0  0  0
 20 21  2  0  0  0
 21 16  1  0  0  0
 16  1  1  0  0  0
  1  2  2  0  0  0
  2  3  1  0  0  0
  3 11  1  0  0  0
 11 12  1  0  0  0
 12 13  1  0  0  0
 13 14  1  0  0  0
 14 15  1  0  0  0
  3  4  2  0  0  0
  4  5  1  0  0  0
  5  6  2  0  0  0
  6  7  1  0  0  0
  7  8  2  0  0  0
  8  9  1  0  0  0
  9 10  2  0  0  0
 21 22  1  0  0  0
 22 23  2  0  0  0
 23 18  1  0  0  0
 10  1  1  0  0  0
 15 11  1  0  0  0
  9  4  1  0  0  0
 16 17  1  0  0  0
M  END
> <minimizedAffinity>
12.10977

> <CNNscore>
0.4657719433

> <CNNaffinity>
5.4748582840

> <CNN_VS>
2.5500354767

> <CNNaffinity_variance>
0.1166304201

$$$$
[H]c1c([H])c(N([H])c2nc(N3C([H])([H])C([H])([H])C([H])([H])C3([H])[H])c3c([H])c([H])c([H])c([H])c3n2)c([H])c([H])c1OC([H])([H])[H]


 25 28  0  0  0  0  0  0  0  0999 V2000
   24.5978    8.7060   53.0563 C   0  0  0  0  0  0  0  0  0  0  0  0
   25.5123    8.9327   52.1097 N   0  0  0  0  0  0  0  0  0  0  0  0
   26.8370    9.0173   52.3492 C   0  0  0  0  0  0  0  0  0  0  0  0
   27.2683    8.8613   53.6467 C   0  0  0  0  0  0  0  0  0  0  0  0
   28.5954    8.9436   53.9758 C   0  0  0  0  0  0  0  0  0  0  0  0
   28.9614    8.7851   55.3014 C   0  0  0  0  0  0  0  0  0  0  0  0
   28.0504    8.5497   56.2967 C   0  0  0  0  0  0  0  0  0  0  0  0
   26.7214    8.4656   55.9856 C   0  0  0  0  0  0  0  0  0  0  0  0
   26.3308    8.6226   54.6568 C   0  0  0  0  0  0  0  0  0  0  0  0
   25.0443    8.5583   54.3017 N   0  0  0  0  0  0  0  0  0  0  0  0
   27.7399    9.2296   51.2643 N   0  0  0  0  0  0  0  0  0  0  0  0
   28.0969    8.3006   50.2405 C   0  0  0  0  0  0  0  0  0  0  0  0
   28.6042    9.1448   49.0689 C   0  0  0  0  0  0  0  0  0  0  0  0
   28.3153   10.5459   49.4927 C   0  0  0  0  0  0  0  0  0  0  0  0
   28.4536   10.4599   51.0177 C   0  0  0  0  0  0  0  0  0  0  0  0
   23.2304    8.6509   52.7141 N   0  0  0  0  0  0  0  0  0  0  0  0
   22.8717    9.4863   52.1594 H   0  0  0  0  0  0  0  0  0  0  0  0
   20.6084    5.4222   53.6214 C   0  0  0  0  0  0  0  0  0  0  0  0
   20.1100    6.6017   53.1297 C   0  0  0  0  0  0  0  0  0  0  0  0
   20.9375    7.6956   52.8251 C   0  0  0  0  0  0  0  0  0  0  0  0
   22.2950    7.6384   53.0046 C   0  0  0  0  0  0  0  0  0  0  0  0
   22.7857    6.4226   53.5092 C   0  0  0  0  0  0  0  0  0  0  0  0
   21.9693    5.3571   53.8051 C   0  0  0  0  0  0  0  0  0  0  0  0
   19.5611    3.3257   52.9679 C   0  0  0  0  0  0  0  0  0  0  0  0
   19.7795    4.3514   53.9174 O   0  0  0  0  0  0  0  0  0  0  0  0
 24 25  1  0  0  0
 25 18  1  0  0  0
 18 19  2  0  0  0
 19 20  1  0  0  0
 20 21  2  0  0  0
 21 16  1  0  0  0
 16  1  1  0  0  0
  1  2  2  0  0  0
  2  3  1  0  0  0
  3 11  1  0  0  0
 11 12  1  0  0  0
 12 13  1  0  0  0
 13 14  1  0  0  0
 14 15  1  0  0  0
  3  4  2  0  0  0
  4  5  1  0  0  0
  5  6  2  0  0  0
  6  7  1  0  0  0
  7  8  2  0  0  0
  8  9  1  0  0  0
  9 10  2  0  0  0
 21 22  1  0  0  0
 22 23  2  0  0  0
 23 18  1  0  0  0
 10  1  1  0  0  0
 15 11  1  0  0  0
  9  4  1  0  0  0
 16 17  1  0  0  0
M  END
> <minimizedAffinity>
28.17555

> <CNNscore>
0.4587390721

> <CNNaffinity>
5.6070027351

> <CNN_VS>
2.5721511841

> <CNNaffinity_variance>
0.0990148857

$$$$
[H]c1c([H])c(N([H])c2nc(N3C([H])([H])C([H])([H])C([H])([H])C3([H])[H])c3c([H])c([H])c([H])c([H])c3n2)c([H])c([H])c1OC([H])([H])[H]


 25 28  0  0  0  0  0  0  0  0999 V2000
   22.1171    6.4715   53.6344 C   0  0  0  0  0  0  0  0  0  0  0  0
   23.4384    6.6651   53.6535 N   0  0  0  0  0  0  0  0  0  0  0  0
   24.0251    7.8060   54.0701 C   0  0  0  0  0  0  0  0  0  0  0  0
   23.2111    8.8293   54.4993 C   0  0  0  0  0  0  0  0  0  0  0  0
   23.7269   10.0238   54.9278 C   0  0  0  0  0  0  0  0  0  0  0  0
   22.8521   11.0149   55.3390 C   0  0  0  0  0  0  0  0  0  0  0  0
   21.4926   10.8494   55.3342 C   0  0  0  0  0  0  0  0  0  0  0  0
   20.9610    9.6635   54.9084 C   0  0  0  0  0  0  0  0  0  0  0  0
   21.8239    8.6520   54.4896 C   0  0  0  0  0  0  0  0  0  0  0  0
   21.3551    7.4783   54.0561 N   0  0  0  0  0  0  0  0  0  0  0  0
   25.4489    7.9051   54.0845 N   0  0  0  0  0  0  0  0  0  0  0  0
   26.2990    8.3169   53.0137 C   0  0  0  0  0  0  0  0  0  0  0  0
   27.6000    8.7854   53.6698 C   0  0  0  0  0  0  0  0  0  0  0  0
   27.2903    8.7540   55.1290 C   0  0  0  0  0  0  0  0  0  0  0  0
   26.2825    7.6017   55.2233 C   0  0  0  0  0  0  0  0  0  0  0  0
   21.5923    5.2492   53.1649 N   0  0  0  0  0  0  0  0  0  0  0  0
   22.2642    4.6670   52.5785 H   0  0  0  0  0  0  0  0  0  0  0  0
   17.6370    3.8527   53.8911 C   0  0  0  0  0  0  0  0  0  0  0  0
   18.6516    2.9626   53.6475 C   0  0  0  0  0  0  0  0  0  0  0  0
   19.9693    3.3795   53.3944 C   0  0  0  0  0  0  0  0  0  0  0  0
   20.3098    4.7070   53.3787 C   0  0  0  0  0  0  0  0  0  0  0  0
   19.2569    5.6025   53.6299 C   0  0  0  0  0  0  0  0  0  0  0  0
   17.9701    5.1864   53.8764 C   0  0  0  0  0  0  0  0  0  0  0  0
   15.5047    3.0093   53.0779 C   0  0  0  0  0  0  0  0  0  0  0  0
   16.3415    3.4263   54.1394 O   0  0  0  0  0  0  0  0  0  0  0  0
 24 25  1  0  0  0
 25 18  1  0  0  0
 18 19  2  0  0  0
 19 20  1  0  0  0
 20 21  2  0  0  0
 21 16  1  0  0  0
 16  1  1  0  0  0
  1  2  2  0  0  0
  2  3  1  0  0  0
  3 11  1  0  0  0
 11 12  1  0  0  0
 12 13  1  0  0  0
 13 14  1  0  0  0
 14 15  1  0  0  0
  3  4  2  0  0  0
  4  5  1  0  0  0
  5  6  2  0  0  0
  6  7  1  0  0  0
  7  8  2  0  0  0
  8  9  1  0  0  0
  9 10  2  0  0  0
 21 22  1  0  0  0
 22 23  2  0  0  0
 23 18  1  0  0  0
 10  1  1  0  0  0
 15 11  1  0  0  0
  9  4  1  0  0  0
 16 17  1  0  0  0
M  END
> <minimizedAffinity>
18.52396

> <CNNscore>
0.4578748643

> <CNNaffinity>
6.0353722572

> <CNN_VS>
2.7634451389

> <CNNaffinity_variance>
0.2455700636

$$$$
[H]c1c([H])c(N([H])c2nc(N3C([H])([H])C([H])([H])C([H])([H])C3([H])[H])c3c([H])c([H])c([H])c([H])c3n2)c([H])c([H])c1OC([H])([H])[H]


 25 28  0  0  0  0  0  0  0  0999 V2000
   25.1185    8.3925   53.9573 C   0  0  0  0  0  0  0  0  0  0  0  0
   24.2534    7.4671   53.5343 N   0  0  0  0  0  0  0  0  0  0  0  0
   22.9370    7.4786   53.8280 C   0  0  0  0  0  0  0  0  0  0  0  0
   22.4606    8.5054   54.6107 C   0  0  0  0  0  0  0  0  0  0  0  0
   21.1394    8.5843   54.9633 C   0  0  0  0  0  0  0  0  0  0  0  0
   20.7270    9.6389   55.7597 C   0  0  0  0  0  0  0  0  0  0  0  0
   21.5865   10.6058   56.2093 C   0  0  0  0  0  0  0  0  0  0  0  0
   22.9091   10.5415   55.8675 C   0  0  0  0  0  0  0  0  0  0  0  0
   23.3459    9.4876   55.0665 C   0  0  0  0  0  0  0  0  0  0  0  0
   24.6290    9.3740   54.7118 N   0  0  0  0  0  0  0  0  0  0  0  0
   22.0855    6.4617   53.3006 N   0  0  0  0  0  0  0  0  0  0  0  0
   21.7516    5.2122   53.9056 C   0  0  0  0  0  0  0  0  0  0  0  0
   20.4361    4.7730   53.2582 C   0  0  0  0  0  0  0  0  0  0  0  0
   20.0400    5.9498   52.4309 C   0  0  0  0  0  0  0  0  0  0  0  0
   21.3984    6.5405   52.0335 C   0  0  0  0  0  0  0  0  0  0  0  0
   26.4828    8.2889   53.6138 N   0  0  0  0  0  0  0  0  0  0  0  0
   27.0644    7.6759   54.2621 H   0  0  0  0  0  0  0  0  0  0  0  0
   28.6431   10.2488   50.5131 C   0  0  0  0  0  0  0  0  0  0  0  0
   27.6467    9.3576   50.2061 C   0  0  0  0  0  0  0  0  0  0  0  0
   26.9145    8.6819   51.1969 C   0  0  0  0  0  0  0  0  0  0  0  0
   27.1606    8.8815   52.5303 C   0  0  0  0  0  0  0  0  0  0  0  0
   28.1846    9.7973   52.8240 C   0  0  0  0  0  0  0  0  0  0  0  0
   28.8966   10.4541   51.8486 C   0  0  0  0  0  0  0  0  0  0  0  0
   28.6842   11.6017   48.4914 C   0  0  0  0  0  0  0  0  0  0  0  0
   29.3570   10.9081   49.5246 O   0  0  0  0  0  0  0  0  0  0  0  0
 24 25  1  0  0  0
 25 18  1  0  0  0
 18 19  2  0  0  0
 19 20  1  0  0  0
 20 21  2  0  0  0
 21 16  1  0  0  0
 16  1  1  0  0  0
  1  2  2  0  0  0
  2  3  1  0  0  0
  3 11  1  0  0  0
 11 12  1  0  0  0
 12 13  1  0  0  0
 13 14  1  0  0  0
 14 15  1  0  0  0
  3  4  2  0  0  0
  4  5  1  0  0  0
  5  6  2  0  0  0
  6  7  1  0  0  0
  7  8  2  0  0  0
  8  9  1  0  0  0
  9 10  2  0  0  0
 21 22  1  0  0  0
 22 23  2  0  0  0
 23 18  1  0  0  0
 10  1  1  0  0  0
 15 11  1  0  0  0
  9  4  1  0  0  0
 16 17  1  0  0  0
M  END
> <minimizedAffinity>
32.87616

> <CNNscore>
0.4457439184

> <CNNaffinity>
5.3581047058

> <CNN_VS>
2.3883426189

> <CNNaffinity_variance>
0.7858220339

$$$$
[H]c1c([H])c(N([H])c2nc(N3C([H])([H])C([H])([H])C([H])([H])C3([H])[H])c3c([H])c([H])c([H])c([H])c3n2)c([H])c([H])c1OC([H])([H])[H]


 25 28  0  0  0  0  0  0  0  0999 V2000
   25.7271    8.2790   53.3361 C   0  0  0  0  0  0  0  0  0  0  0  0
   24.7052    9.1021   53.0872 N   0  0  0  0  0  0  0  0  0  0  0  0
   23.4141    8.7896   53.3215 C   0  0  0  0  0  0  0  0  0  0  0  0
   23.1370    7.5483   53.8470 C   0  0  0  0  0  0  0  0  0  0  0  0
   21.8520    7.1493   54.1039 C   0  0  0  0  0  0  0  0  0  0  0  0
   21.6418    5.8842   54.6254 C   0  0  0  0  0  0  0  0  0  0  0  0
   22.6662    5.0159   54.8943 C   0  0  0  0  0  0  0  0  0  0  0  0
   23.9550    5.3979   54.6427 C   0  0  0  0  0  0  0  0  0  0  0  0
   24.1893    6.6676   54.1171 C   0  0  0  0  0  0  0  0  0  0  0  0
   25.4288    7.0857   53.8451 N   0  0  0  0  0  0  0  0  0  0  0  0
   22.3936    9.7507   53.0529 N   0  0  0  0  0  0  0  0  0  0  0  0
   21.9528   10.8070   53.9065 C   0  0  0  0  0  0  0  0  0  0  0  0
   21.2992   11.8417   52.9873 C   0  0  0  0  0  0  0  0  0  0  0  0
   21.5947   11.3321   51.6165 C   0  0  0  0  0  0  0  0  0  0  0  0
   21.6248    9.8140   51.8328 C   0  0  0  0  0  0  0  0  0  0  0  0
   27.0454    8.6861   53.0423 N   0  0  0  0  0  0  0  0  0  0  0  0
   27.7513    8.5217   53.8226 H   0  0  0  0  0  0  0  0  0  0  0  0
   28.6324   10.6457   49.6124 C   0  0  0  0  0  0  0  0  0  0  0  0
   27.7720    9.5873   49.4688 C   0  0  0  0  0  0  0  0  0  0  0  0
   27.2316    8.9061   50.5726 C   0  0  0  0  0  0  0  0  0  0  0  0
   27.5388    9.2684   51.8581 C   0  0  0  0  0  0  0  0  0  0  0  0
   28.4216   10.3540   51.9840 C   0  0  0  0  0  0  0  0  0  0  0  0
   28.9462   11.0150   50.8989 C   0  0  0  0  0  0  0  0  0  0  0  0
   28.4400   12.3589   47.8956 C   0  0  0  0  0  0  0  0  0  0  0  0
   29.1576   11.3082   48.5138 O   0  0  0  0  0  0  0  0  0  0  0  0
 24 25  1  0  0  0
 25 18  1  0  0  0
 18 19  2  0  0  0
 19 20  1  0  0  0
 20 21  2  0  0  0
 21 16  1  0  0  0
 16  1  1  0  0  0
  1  2  2  0  0  0
  2  3  1  0  0  0
  3 11  1  0  0  0
 11 12  1  0  0  0
 12 13  1  0  0  0
 13 14  1  0  0  0
 14 15  1  0  0  0
  3  4  2  0  0  0
  4  5  1  0  0  0
  5  6  2  0  0  0
  6  7  1  0  0  0
  7  8  2  0  0  0
  8  9  1  0  0  0
  9 10  2  0  0  0
 21 22  1  0  0  0
 22 23  2  0  0  0
 23 18  1  0  0  0
 10  1  1  0  0  0
 15 11  1  0  0  0
  9  4  1  0  0  0
 16 17  1  0  0  0
M  END
> <minimizedAffinity>
26.77091

> <CNNscore>
0.4421327412

> <CNNaffinity>
5.5048999786

> <CNN_VS>
2.4338965416

> <CNNaffinity_variance>
0.4344502091

$$$$
[H]c1c([H])c(N([H])c2nc(N3C([H])([H])C([H])([H])C([H])([H])C3([H])[H])c3c([H])c([H])c([H])c([H])c3n2)c([H])c([H])c1OC([H])([H])[H]


 25 28  0  0  0  0  0  0  0  0999 V2000
   22.5292    5.8994   53.4714 C   0  0  0  0  0  0  0  0  0  0  0  0
   21.9539    7.1036   53.4189 N   0  0  0  0  0  0  0  0  0  0  0  0
   22.5949    8.2559   53.7029 C   0  0  0  0  0  0  0  0  0  0  0  0
   23.9194    8.1828   54.0691 C   0  0  0  0  0  0  0  0  0  0  0  0
   24.6390    9.3051   54.3840 C   0  0  0  0  0  0  0  0  0  0  0  0
   25.9657    9.1609   54.7522 C   0  0  0  0  0  0  0  0  0  0  0  0
   26.5873    7.9421   54.8147 C   0  0  0  0  0  0  0  0  0  0  0  0
   25.8831    6.8115   54.5046 C   0  0  0  0  0  0  0  0  0  0  0  0
   24.5456    6.9338   54.1315 C   0  0  0  0  0  0  0  0  0  0  0  0
   23.8113    5.8598   53.8276 N   0  0  0  0  0  0  0  0  0  0  0  0
   21.9020    9.4983   53.5858 N   0  0  0  0  0  0  0  0  0  0  0  0
   21.6462   10.4480   54.6210 C   0  0  0  0  0  0  0  0  0  0  0  0
   21.4064   11.7835   53.9127 C   0  0  0  0  0  0  0  0  0  0  0  0
   21.7312   11.4894   52.4864 C   0  0  0  0  0  0  0  0  0  0  0  0
   21.3378   10.0124   52.3606 C   0  0  0  0  0  0  0  0  0  0  0  0
   21.7740    4.7458   53.1734 N   0  0  0  0  0  0  0  0  0  0  0  0
   22.3266    3.9470   52.7368 H   0  0  0  0  0  0  0  0  0  0  0  0
   17.5979    4.3200   53.8815 C   0  0  0  0  0  0  0  0  0  0  0  0
   18.3861    3.2120   53.7014 C   0  0  0  0  0  0  0  0  0  0  0  0
   19.7664    3.3064   53.4566 C   0  0  0  0  0  0  0  0  0  0  0  0
   20.3997    4.5197   53.3856 C   0  0  0  0  0  0  0  0  0  0  0  0
   19.5755    5.6419   53.5722 C   0  0  0  0  0  0  0  0  0  0  0  0
   18.2255    5.5411   53.8110 C   0  0  0  0  0  0  0  0  0  0  0  0
   15.5039    3.1076   53.6269 C   0  0  0  0  0  0  0  0  0  0  0  0
   16.2371    4.2112   54.1224 O   0  0  0  0  0  0  0  0  0  0  0  0
 24 25  1  0  0  0
 25 18  1  0  0  0
 18 19  2  0  0  0
 19 20  1  0  0  0
 20 21  2  0  0  0
 21 16  1  0  0  0
 16  1  1  0  0  0
  1  2  2  0  0  0
  2  3  1  0  0  0
  3 11  1  0  0  0
 11 12  1  0  0  0
 12 13  1  0  0  0
 13 14  1  0  0  0
 14 15  1  0  0  0
  3  4  2  0  0  0
  4  5  1  0  0  0
  5  6  2  0  0  0
  6  7  1  0  0  0
  7  8  2  0  0  0
  8  9  1  0  0  0
  9 10  2  0  0  0
 21 22  1  0  0  0
 22 23  2  0  0  0
 23 18  1  0  0  0
 10  1  1  0  0  0
 15 11  1  0  0  0
  9  4  1  0  0  0
 16 17  1  0  0  0
M  END
> <minimizedAffinity>
19.00900

> <CNNscore>
0.4408444166

> <CNNaffinity>
6.0458283424

> <CNN_VS>
2.6652696133

> <CNNaffinity_variance>
0.5293874145

$$$$
[H]OC12N(C([H])([H])c3c([H])c([H])c(OC([H])([H])[H])c([H])c3[H])C3([H])C4([H])C5([H])C([H])([H])C([H])(C14[H])C1([H])C2([H])C3([H])C51[H]


 23 29  0  0  0  0  0  0  0  0999 V2000
   23.0002    7.5798   52.7569 N   0  0  0  0  0  0  0  0  0  0  0  0
   23.2665    8.8994   53.3132 C   0  0  0  0  0  0  0  0  0  0  0  0
   21.8877    9.5071   53.1760 C   0  0  0  0  0  0  0  0  0  0  0  0
   21.7397   10.3883   54.3821 C   0  0  0  0  0  0  0  0  0  0  0  0
   20.2569   10.1674   54.7045 C   0  0  0  0  0  0  0  0  0  0  0  0
   20.3294    8.6338   54.7463 C   0  0  0  0  0  0  0  0  0  0  0  0
   21.4534    8.4168   55.7079 C   0  0  0  0  0  0  0  0  0  0  0  0
   22.3996    9.6009   55.4618 C   0  0  0  0  0  0  0  0  0  0  0  0
   23.3807    8.6897   54.7891 C   0  0  0  0  0  0  0  0  0  0  0  0
   22.4340    7.5150   55.0464 C   0  0  0  0  0  0  0  0  0  0  0  0
   21.9412    7.1958   53.6580 C   0  0  0  0  0  0  0  0  0  0  0  0
   21.4040    5.9712   53.4942 O   0  0  0  0  0  0  0  0  0  0  0  0
   20.9546    8.3386   53.4255 C   0  0  0  0  0  0  0  0  0  0  0  0
   21.2371    5.5313   54.3637 H   0  0  0  0  0  0  0  0  0  0  0  0
   24.1494    6.7362   52.7572 C   0  0  0  0  0  0  0  0  0  0  0  0
   27.3418    8.7226   54.8684 C   0  0  0  0  0  0  0  0  0  0  0  0
   26.4249    7.9370   55.5316 C   0  0  0  0  0  0  0  0  0  0  0  0
   25.4024    7.3043   54.8592 C   0  0  0  0  0  0  0  0  0  0  0  0
   25.2443    7.4260   53.4820 C   0  0  0  0  0  0  0  0  0  0  0  0
   26.1842    8.2265   52.8305 C   0  0  0  0  0  0  0  0  0  0  0  0
   27.2053    8.8577   53.5053 C   0  0  0  0  0  0  0  0  0  0  0  0
   28.2421    9.6889   56.9351 C   0  0  0  0  0  0  0  0  0  0  0  0
   28.3751    9.3585   55.5675 O   0  0  0  0  0  0  0  0  0  0  0  0
 22 23  1  0  0  0
 23 16  1  0  0  0
 16 17  2  0  0  0
 17 18  1  0  0  0
 18 19  2  0  0  0
 19 15  1  0  0  0
 15  1  1  0  0  0
  1  2  1  0  0  0
  2  3  1  0  0  0
  3  4  1  0  0  0
  4  5  1  0  0  0
  5  6  1  0  0  0
  6  7  1  0  0  0
  7  8  1  0  0  0
  8  9  1  0  0  0
  9 10  1  0  0  0
 10 11  1  0  0  0
 11 12  1  0  0  0
 11 13  1  0  0  0
 19 20  1  0  0  0
 20 21  2  0  0  0
 21 16  1  0  0  0
 11  1  1  0  0  0
  9  2  1  0  0  0
 13  3  1  0  0  0
  8  4  1  0  0  0
 13  6  1  0  0  0
 10  7  1  0  0  0
 12 14  1  0  0  0
M  END
> <minimizedAffinity>
3.47344

> <CNNscore>
0.6719740629

> <CNNaffinity>
5.5557904243

> <CNN_VS>
3.7333471775

> <CNNaffinity_variance>
1.0803205967

$$$$
[H]OC12N(C([H])([H])c3c([H])c([H])c(OC([H])([H])[H])c([H])c3[H])C3([H])C4([H])C5([H])C([H])([H])C([H])(C14[H])C1([H])C2([H])C3([H])C51[H]


 23 29  0  0  0  0  0  0  0  0999 V2000
   24.1354    8.1185   53.1857 N   0  0  0  0  0  0  0  0  0  0  0  0
   23.5472    8.4305   54.4813 C   0  0  0  0  0  0  0  0  0  0  0  0
   22.2351    9.0255   54.0189 C   0  0  0  0  0  0  0  0  0  0  0  0
   21.2374    8.5952   55.0546 C   0  0  0  0  0  0  0  0  0  0  0  0
   20.0123    8.3409   54.1682 C   0  0  0  0  0  0  0  0  0  0  0  0
   20.7185    7.3927   53.1879 C   0  0  0  0  0  0  0  0  0  0  0  0
   21.3173    6.3921   54.1237 C   0  0  0  0  0  0  0  0  0  0  0  0
   21.6632    7.2044   55.3800 C   0  0  0  0  0  0  0  0  0  0  0  0
   23.1218    7.1142   55.0487 C   0  0  0  0  0  0  0  0  0  0  0  0
   22.7668    6.2986   53.8032 C   0  0  0  0  0  0  0  0  0  0  0  0
   23.0823    7.2658   52.6910 C   0  0  0  0  0  0  0  0  0  0  0  0
   23.2505    6.7205   51.4706 O   0  0  0  0  0  0  0  0  0  0  0  0
   21.8916    8.2185   52.7824 C   0  0  0  0  0  0  0  0  0  0  0  0
   22.9495    5.7791   51.4515 H   0  0  0  0  0  0  0  0  0  0  0  0
   25.4222    7.5142   53.2926 C   0  0  0  0  0  0  0  0  0  0  0  0
   27.6276    9.5003   56.4208 C   0  0  0  0  0  0  0  0  0  0  0  0
   26.2552    9.3909   56.4707 C   0  0  0  0  0  0  0  0  0  0  0  0
   25.5488    8.7596   55.4706 C   0  0  0  0  0  0  0  0  0  0  0  0
   26.1824    8.2029   54.3639 C   0  0  0  0  0  0  0  0  0  0  0  0
   27.5726    8.3252   54.3339 C   0  0  0  0  0  0  0  0  0  0  0  0
   28.2762    8.9568   55.3351 C   0  0  0  0  0  0  0  0  0  0  0  0
   28.4806    9.5516   58.7197 C   0  0  0  0  0  0  0  0  0  0  0  0
   28.3300   10.1452   57.4461 O   0  0  0  0  0  0  0  0  0  0  0  0
 22 23  1  0  0  0
 23 16  1  0  0  0
 16 17  2  0  0  0
 17 18  1  0  0  0
 18 19  2  0  0  0
 19 15  1  0  0  0
 15  1  1  0  0  0
  1  2  1  0  0  0
  2  3  1  0  0  0
  3  4  1  0  0  0
  4  5  1  0  0  0
  5  6  1  0  0  0
  6  7  1  0  0  0
  7  8  1  0  0  0
  8  9  1  0  0  0
  9 10  1  0  0  0
 10 11  1  0  0  0
 11 12  1  0  0  0
 11 13  1  0  0  0
 19 20  1  0  0  0
 20 21  2  0  0  0
 21 16  1  0  0  0
 11  1  1  0  0  0
  9  2  1  0  0  0
 13  3  1  0  0  0
  8  4  1  0  0  0
 13  6  1  0  0  0
 10  7  1  0  0  0
 12 14  1  0  0  0
M  END
> <minimizedAffinity>
1.16964

> <CNNscore>
0.6415658593

> <CNNaffinity>
5.4532747269

> <CNN_VS>
3.4986348152

> <CNNaffinity_variance>
1.0016620159

$$$$
[H]OC12N(C([H])([H])c3c([H])c([H])c(OC([H])([H])[H])c([H])c3[H])C3([H])C4([H])C5([H])C([H])([H])C([H])(C14[H])C1([H])C2([H])C3([H])C51[H]


 23 29  0  0  0  0  0  0  0  0999 V2000
   21.9429    7.1783   54.8546 N   0  0  0  0  0  0  0  0  0  0  0  0
   21.5763    6.6418   53.5508 C   0  0  0  0  0  0  0  0  0  0  0  0
   20.4286    7.5695   53.2170 C   0  0  0  0  0  0  0  0  0  0  0  0
   20.5218    7.7693   51.7321 C   0  0  0  0  0  0  0  0  0  0  0  0
   20.1195    9.2453   51.6270 C   0  0  0  0  0  0  0  0  0  0  0  0
   21.1464    9.7635   52.6446 C   0  0  0  0  0  0  0  0  0  0  0  0
   22.4151    9.1842   52.1060 C   0  0  0  0  0  0  0  0  0  0  0  0
   21.9906    7.8431   51.4903 C   0  0  0  0  0  0  0  0  0  0  0  0
   22.6480    7.1065   52.6175 C   0  0  0  0  0  0  0  0  0  0  0  0
   23.0730    8.4483   53.2186 C   0  0  0  0  0  0  0  0  0  0  0  0
   22.1995    8.5371   54.4438 C   0  0  0  0  0  0  0  0  0  0  0  0
   22.6068    9.4030   55.3922 O   0  0  0  0  0  0  0  0  0  0  0  0
   20.8518    8.8946   53.8196 C   0  0  0  0  0  0  0  0  0  0  0  0
   23.3215    9.9971   55.0552 H   0  0  0  0  0  0  0  0  0  0  0  0
   23.0436    6.4923   55.4463 C   0  0  0  0  0  0  0  0  0  0  0  0
   26.7038    8.4429   54.2664 C   0  0  0  0  0  0  0  0  0  0  0  0
   25.9504    8.9113   55.3204 C   0  0  0  0  0  0  0  0  0  0  0  0
   24.7791    8.2913   55.6966 C   0  0  0  0  0  0  0  0  0  0  0  0
   24.2994    7.1655   55.0341 C   0  0  0  0  0  0  0  0  0  0  0  0
   25.0783    6.7084   53.9698 C   0  0  0  0  0  0  0  0  0  0  0  0
   26.2488    7.3301   53.5960 C   0  0  0  0  0  0  0  0  0  0  0  0
   28.9628    9.2297   54.8085 C   0  0  0  0  0  0  0  0  0  0  0  0
   27.8921    9.0853   53.8974 O   0  0  0  0  0  0  0  0  0  0  0  0
 22 23  1  0  0  0
 23 16  1  0  0  0
 16 17  2  0  0  0
 17 18  1  0  0  0
 18 19  2  0  0  0
 19 15  1  0  0  0
 15  1  1  0  0  0
  1  2  1  0  0  0
  2  3  1  0  0  0
  3  4  1  0  0  0
  4  5  1  0  0  0
  5  6  1  0  0  0
  6  7  1  0  0  0
  7  8  1  0  0  0
  8  9  1  0  0  0
  9 10  1  0  0  0
 10 11  1  0  0  0
 11 12  1  0  0  0
 11 13  1  0  0  0
 19 20  1  0  0  0
 20 21  2  0  0  0
 21 16  1  0  0  0
 11  1  1  0  0  0
  9  2  1  0  0  0
 13  3  1  0  0  0
  8  4  1  0  0  0
 13  6  1  0  0  0
 10  7  1  0  0  0
 12 14  1  0  0  0
M  END
> <minimizedAffinity>
5.78730

> <CNNscore>
0.6059923172

> <CNNaffinity>
5.2779321671

> <CNN_VS>
3.1983864307

> <CNNaffinity_variance>
0.6580616236

$$$$
[H]OC12N(C([H])([H])c3c([H])c([H])c(OC([H])([H])[H])c([H])c3[H])C3([H])C4([H])C5([H])C([H])([H])C([H])(C14[H])C1([H])C2([H])C3([H])C51[H]


 23 29  0  0  0  0  0  0  0  0999 V2000
   24.0627    7.6017   54.0433 N   0  0  0  0  0  0  0  0  0  0  0  0
   23.2644    6.8788   53.0624 C   0  0  0  0  0  0  0  0  0  0  0  0
   22.0720    6.5286   53.9256 C   0  0  0  0  0  0  0  0  0  0  0  0
   20.8954    6.6060   52.9967 C   0  0  0  0  0  0  0  0  0  0  0  0
   19.8390    7.1961   53.9386 C   0  0  0  0  0  0  0  0  0  0  0  0
   20.6796    8.4010   54.3864 C   0  0  0  0  0  0  0  0  0  0  0  0
   21.0751    8.9911   53.0709 C   0  0  0  0  0  0  0  0  0  0  0  0
   21.2171    7.7803   52.1372 C   0  0  0  0  0  0  0  0  0  0  0  0
   22.7080    7.9290   52.1553 C   0  0  0  0  0  0  0  0  0  0  0  0
   22.5551    9.1394   53.0794 C   0  0  0  0  0  0  0  0  0  0  0  0
   23.0893    8.6098   54.3856 C   0  0  0  0  0  0  0  0  0  0  0  0
   23.4544    9.5398   55.2894 O   0  0  0  0  0  0  0  0  0  0  0  0
   21.9289    7.7275   54.8425 C   0  0  0  0  0  0  0  0  0  0  0  0
   23.1347   10.4389   55.0310 H   0  0  0  0  0  0  0  0  0  0  0  0
   25.2926    8.0852   53.5086 C   0  0  0  0  0  0  0  0  0  0  0  0
   27.7813    9.3918   56.7787 C   0  0  0  0  0  0  0  0  0  0  0  0
   26.4070    9.4411   56.8608 C   0  0  0  0  0  0  0  0  0  0  0  0
   25.6104    9.0271   55.8157 C   0  0  0  0  0  0  0  0  0  0  0  0
   26.1509    8.5405   54.6294 C   0  0  0  0  0  0  0  0  0  0  0  0
   27.5448    8.4994   54.5681 C   0  0  0  0  0  0  0  0  0  0  0  0
   28.3386    8.9138   55.6143 C   0  0  0  0  0  0  0  0  0  0  0  0
   28.6104    9.1007   59.0686 C   0  0  0  0  0  0  0  0  0  0  0  0
   28.5760    9.8165   57.8505 O   0  0  0  0  0  0  0  0  0  0  0  0
 22 23  1  0  0  0
 23 16  1  0  0  0
 16 17  2  0  0  0
 17 18  1  0  0  0
 18 19  2  0  0  0
 19 15  1  0  0  0
 15  1  1  0  0  0
  1  2  1  0  0  0
  2  3  1  0  0  0
  3  4  1  0  0  0
  4  5  1  0  0  0
  5  6  1  0  0  0
  6  7  1  0  0  0
  7  8  1  0  0  0
  8  9  1  0  0  0
  9 10  1  0  0  0
 10 11  1  0  0  0
 11 12  1  0  0  0
 11 13  1  0  0  0
 19 20  1  0  0  0
 20 21  2  0  0  0
 21 16  1  0  0  0
 11  1  1  0  0  0
  9  2  1  0  0  0
 13  3  1  0  0  0
  8  4  1  0  0  0
 13  6  1  0  0  0
 10  7  1  0  0  0
 12 14  1  0  0  0
M  END
> <minimizedAffinity>
-0.69576

> <CNNscore>
0.6016373038

> <CNNaffinity>
5.4456639290

> <CNN_VS>
3.2763144970

> <CNNaffinity_variance>
0.9697249532

$$$$
[H]OC12N(C([H])([H])c3c([H])c([H])c(OC([H])([H])[H])c([H])c3[H])C3([H])C4([H])C5([H])C([H])([H])C([H])(C14[H])C1([H])C2([H])C3([H])C51[H]


 23 29  0  0  0  0  0  0  0  0999 V2000
   22.4986    8.0233   54.9417 N   0  0  0  0  0  0  0  0  0  0  0  0
   23.0445    8.1260   53.5951 C   0  0  0  0  0  0  0  0  0  0  0  0
   22.1500    7.1298   52.8904 C   0  0  0  0  0  0  0  0  0  0  0  0
   21.9467    7.7060   51.5193 C   0  0  0  0  0  0  0  0  0  0  0  0
   20.4828    7.3216   51.2731 C   0  0  0  0  0  0  0  0  0  0  0  0
   19.9359    7.9371   52.5696 C   0  0  0  0  0  0  0  0  0  0  0  0
   20.4782    9.3280   52.4885 C   0  0  0  0  0  0  0  0  0  0  0  0
   21.8307    9.1691   51.7789 C   0  0  0  0  0  0  0  0  0  0  0  0
   22.5488    9.4340   53.0671 C   0  0  0  0  0  0  0  0  0  0  0  0
   21.1957    9.5982   53.7632 C   0  0  0  0  0  0  0  0  0  0  0  0
   21.1327    8.3648   54.6275 C   0  0  0  0  0  0  0  0  0  0  0  0
   20.2561    8.4098   55.6495 O   0  0  0  0  0  0  0  0  0  0  0  0
   20.8136    7.2923   53.5875 C   0  0  0  0  0  0  0  0  0  0  0  0
   19.6414    9.1794   55.5639 H   0  0  0  0  0  0  0  0  0  0  0  0
   23.1530    8.8829   55.8719 C   0  0  0  0  0  0  0  0  0  0  0  0
   27.3873    8.8362   55.0578 C   0  0  0  0  0  0  0  0  0  0  0  0
   26.8784    9.4755   56.1670 C   0  0  0  0  0  0  0  0  0  0  0  0
   25.5256    9.4942   56.4268 C   0  0  0  0  0  0  0  0  0  0  0  0
   24.6084    8.8713   55.5860 C   0  0  0  0  0  0  0  0  0  0  0  0
   25.1458    8.2299   54.4687 C   0  0  0  0  0  0  0  0  0  0  0  0
   26.4986    8.2128   54.2115 C   0  0  0  0  0  0  0  0  0  0  0  0
   29.3790    9.8381   54.0356 C   0  0  0  0  0  0  0  0  0  0  0  0
   28.7652    8.8269   54.8089 O   0  0  0  0  0  0  0  0  0  0  0  0
 22 23  1  0  0  0
 23 16  1  0  0  0
 16 17  2  0  0  0
 17 18  1  0  0  0
 18 19  2  0  0  0
 19 15  1  0  0  0
 15  1  1  0  0  0
  1  2  1  0  0  0
  2  3  1  0  0  0
  3  4  1  0  0  0
  4  5  1  0  0  0
  5  6  1  0  0  0
  6  7  1  0  0  0
  7  8  1  0  0  0
  8  9  1  0  0  0
  9 10  1  0  0  0
 10 11  1  0  0  0
 11 12  1  0  0  0
 11 13  1  0  0  0
 19 20  1  0  0  0
 20 21  2  0  0  0
 21 16  1  0  0  0
 11  1  1  0  0  0
  9  2  1  0  0  0
 13  3  1  0  0  0
  8  4  1  0  0  0
 13  6  1  0  0  0
 10  7  1  0  0  0
 12 14  1  0  0  0
M  END
> <minimizedAffinity>
6.93177

> <CNNscore>
0.5942069292

> <CNNaffinity>
5.4486479759

> <CNN_VS>
3.2376244068

> <CNNaffinity_variance>
0.6383907199

$$$$
[H]OC12N(C([H])([H])c3c([H])c([H])c(OC([H])([H])[H])c([H])c3[H])C3([H])C4([H])C5([H])C([H])([H])C([H])(C14[H])C1([H])C2([H])C3([H])C51[H]


 23 29  0  0  0  0  0  0  0  0999 V2000
   23.1208    6.5448   54.5779 N   0  0  0  0  0  0  0  0  0  0  0  0
   23.5591    7.7253   55.3102 C   0  0  0  0  0  0  0  0  0  0  0  0
   25.0014    7.3403   55.5569 C   0  0  0  0  0  0  0  0  0  0  0  0
   25.7593    8.6330   55.4698 C   0  0  0  0  0  0  0  0  0  0  0  0
   27.0430    8.1540   54.7813 C   0  0  0  0  0  0  0  0  0  0  0  0
   26.3434    7.4697   53.5976 C   0  0  0  0  0  0  0  0  0  0  0  0
   25.4657    8.5711   53.0957 C   0  0  0  0  0  0  0  0  0  0  0  0
   25.0764    9.3537   54.3582 C   0  0  0  0  0  0  0  0  0  0  0  0
   23.6848    8.8033   54.2819 C   0  0  0  0  0  0  0  0  0  0  0  0
   24.0808    8.0337   53.0197 C   0  0  0  0  0  0  0  0  0  0  0  0
   24.0854    6.6073   53.5072 C   0  0  0  0  0  0  0  0  0  0  0  0
   24.0097    5.6613   52.5510 O   0  0  0  0  0  0  0  0  0  0  0  0
   25.3864    6.5735   54.3071 C   0  0  0  0  0  0  0  0  0  0  0  0
   24.1573    6.0446   51.6518 H   0  0  0  0  0  0  0  0  0  0  0  0
   21.7527    6.6140   54.1831 C   0  0  0  0  0  0  0  0  0  0  0  0
   21.1423   10.2032   51.8723 C   0  0  0  0  0  0  0  0  0  0  0  0
   21.2195    8.9673   51.2685 C   0  0  0  0  0  0  0  0  0  0  0  0
   21.4178    7.8200   52.0049 C   0  0  0  0  0  0  0  0  0  0  0  0
   21.5496    7.8508   53.3898 C   0  0  0  0  0  0  0  0  0  0  0  0
   21.4682    9.1129   53.9804 C   0  0  0  0  0  0  0  0  0  0  0  0
   21.2699   10.2582   53.2418 C   0  0  0  0  0  0  0  0  0  0  0  0
   21.7384   12.5108   51.2936 C   0  0  0  0  0  0  0  0  0  0  0  0
   20.9403   11.3593   51.1086 O   0  0  0  0  0  0  0  0  0  0  0  0
 22 23  1  0  0  0
 23 16  1  0  0  0
 16 17  2  0  0  0
 17 18  1  0  0  0
 18 19  2  0  0  0
 19 15  1  0  0  0
 15  1  1  0  0  0
  1  2  1  0  0  0
  2  3  1  0  0  0
  3  4  1  0  0  0
  4  5  1  0  0  0
  5  6  1  0  0  0
  6  7  1  0  0  0
  7  8  1  0  0  0
  8  9  1  0  0  0
  9 10  1  0  0  0
 10 11  1  0  0  0
 11 12  1  0  0  0
 11 13  1  0  0  0
 19 20  1  0  0  0
 20 21  2  0  0  0
 21 16  1  0  0  0
 11  1  1  0  0  0
  9  2  1  0  0  0
 13  3  1  0  0  0
  8  4  1  0  0  0
 13  6  1  0  0  0
 10  7  1  0  0  0
 12 14  1  0  0  0
M  END
> <minimizedAffinity>
9.06761

> <CNNscore>
0.5833377838

> <CNNaffinity>
5.4825778008

> <CNN_VS>
3.1981947422

> <CNNaffinity_variance>
0.6530531645

$$$$
[H]OC12N(C([H])([H])c3c([H])c([H])c(OC([H])([H])[H])c([H])c3[H])C3([H])C4([H])C5([H])C([H])([H])C([H])(C14[H])C1([H])C2([H])C3([H])C51[H]


 23 29  0  0  0  0  0  0  0  0999 V2000
   22.7324    8.6885   55.3453 N   0  0  0  0  0  0  0  0  0  0  0  0
   23.2018    7.8854   54.2243 C   0  0  0  0  0  0  0  0  0  0  0  0
   22.0956    6.8540   54.1803 C   0  0  0  0  0  0  0  0  0  0  0  0
   21.9163    6.5519   52.7209 C   0  0  0  0  0  0  0  0  0  0  0  0
   20.3940    6.3780   52.6605 C   0  0  0  0  0  0  0  0  0  0  0  0
   20.0534    7.7210   53.3231 C   0  0  0  0  0  0  0  0  0  0  0  0
   20.8377    8.6744   52.4797 C   0  0  0  0  0  0  0  0  0  0  0  0
   22.0897    7.8834   52.0740 C   0  0  0  0  0  0  0  0  0  0  0  0
   22.9244    8.7074   53.0066 C   0  0  0  0  0  0  0  0  0  0  0  0
   21.6718    9.4949   53.3982 C   0  0  0  0  0  0  0  0  0  0  0  0
   21.4363    9.0318   54.8131 C   0  0  0  0  0  0  0  0  0  0  0  0
   20.6494    9.8250   55.5659 O   0  0  0  0  0  0  0  0  0  0  0  0
   20.8591    7.6376   54.5747 C   0  0  0  0  0  0  0  0  0  0  0  0
   20.1837   10.4998   55.0135 H   0  0  0  0  0  0  0  0  0  0  0  0
   23.5921    9.7875   55.6379 C   0  0  0  0  0  0  0  0  0  0  0  0
   27.6798    8.5490   55.0453 C   0  0  0  0  0  0  0  0  0  0  0  0
   26.7057    8.2745   54.1105 C   0  0  0  0  0  0  0  0  0  0  0  0
   25.3987    8.6666   54.2997 C   0  0  0  0  0  0  0  0  0  0  0  0
   24.9974    9.3566   55.4396 C   0  0  0  0  0  0  0  0  0  0  0  0
   26.0002    9.6239   56.3731 C   0  0  0  0  0  0  0  0  0  0  0  0
   27.3060    9.2308   56.1812 C   0  0  0  0  0  0  0  0  0  0  0  0
   29.3261    7.1474   53.8875 C   0  0  0  0  0  0  0  0  0  0  0  0
   29.0037    8.1433   54.8370 O   0  0  0  0  0  0  0  0  0  0  0  0
 22 23  1  0  0  0
 23 16  1  0  0  0
 16 17  2  0  0  0
 17 18  1  0  0  0
 18 19  2  0  0  0
 19 15  1  0  0  0
 15  1  1  0  0  0
  1  2  1  0  0  0
  2  3  1  0  0  0
  3  4  1  0  0  0
  4  5  1  0  0  0
  5  6  1  0  0  0
  6  7  1  0  0  0
  7  8  1  0  0  0
  8  9  1  0  0  0
  9 10  1  0  0  0
 10 11  1  0  0  0
 11 12  1  0  0  0
 11 13  1  0  0  0
 19 20  1  0  0  0
 20 21  2  0  0  0
 21 16  1  0  0  0
 11  1  1  0  0  0
  9  2  1  0  0  0
 13  3  1  0  0  0
  8  4  1  0  0  0
 13  6  1  0  0  0
 10  7  1  0  0  0
 12 14  1  0  0  0
M  END
> <minimizedAffinity>
5.21055

> <CNNscore>
0.5733546615

> <CNNaffinity>
5.3377394676

> <CNN_VS>
3.0604178905

> <CNNaffinity_variance>
0.7125287056

$$$$
[H]OC12N(C([H])([H])c3c([H])c([H])c(OC([H])([H])[H])c([H])c3[H])C3([H])C4([H])C5([H])C([H])([H])C([H])(C14[H])C1([H])C2([H])C3([H])C51[H]


 23 29  0  0  0  0  0  0  0  0999 V2000
   23.6912    7.2757   53.7421 N   0  0  0  0  0  0  0  0  0  0  0  0
   23.3897    8.6867   53.5413 C   0  0  0  0  0  0  0  0  0  0  0  0
   22.6169    8.5909   52.2441 C   0  0  0  0  0  0  0  0  0  0  0  0
   21.5612    9.6526   52.3522 C   0  0  0  0  0  0  0  0  0  0  0  0
   20.3871    8.9445   51.6655 C   0  0  0  0  0  0  0  0  0  0  0  0
   20.4405    7.6743   52.5273 C   0  0  0  0  0  0  0  0  0  0  0  0
   20.4012    8.2506   53.9063 C   0  0  0  0  0  0  0  0  0  0  0  0
   21.1542    9.5832   53.7843 C   0  0  0  0  0  0  0  0  0  0  0  0
   22.3170    9.0059   54.5326 C   0  0  0  0  0  0  0  0  0  0  0  0
   21.5547    7.6845   54.6556 C   0  0  0  0  0  0  0  0  0  0  0  0
   22.3360    6.7815   53.7357 C   0  0  0  0  0  0  0  0  0  0  0  0
   22.1595    5.4592   53.9237 O   0  0  0  0  0  0  0  0  0  0  0  0
   21.8689    7.2781   52.3686 C   0  0  0  0  0  0  0  0  0  0  0  0
   21.3893    5.2788   54.5167 H   0  0  0  0  0  0  0  0  0  0  0  0
   24.4331    7.0321   54.9348 C   0  0  0  0  0  0  0  0  0  0  0  0
   28.1460    9.2122   54.6973 C   0  0  0  0  0  0  0  0  0  0  0  0
   27.6833    8.4680   53.6342 C   0  0  0  0  0  0  0  0  0  0  0  0
   26.4990    7.7682   53.7096 C   0  0  0  0  0  0  0  0  0  0  0  0
   25.7133    7.7772   54.8580 C   0  0  0  0  0  0  0  0  0  0  0  0
   26.2010    8.5374   55.9224 C   0  0  0  0  0  0  0  0  0  0  0  0
   27.3852    9.2360   55.8442 C   0  0  0  0  0  0  0  0  0  0  0  0
   29.3756   11.3300   54.5616 C   0  0  0  0  0  0  0  0  0  0  0  0
   29.3520    9.9175   54.6036 O   0  0  0  0  0  0  0  0  0  0  0  0
 22 23  1  0  0  0
 23 16  1  0  0  0
 16 17  2  0  0  0
 17 18  1  0  0  0
 18 19  2  0  0  0
 19 15  1  0  0  0
 15  1  1  0  0  0
  1  2  1  0  0  0
  2  3  1  0  0  0
  3  4  1  0  0  0
  4  5  1  0  0  0
  5  6  1  0  0  0
  6  7  1  0  0  0
  7  8  1  0  0  0
  8  9  1  0  0  0
  9 10  1  0  0  0
 10 11  1  0  0  0
 11 12  1  0  0  0
 11 13  1  0  0  0
 19 20  1  0  0  0
 20 21  2  0  0  0
 21 16  1  0  0  0
 11  1  1  0  0  0
  9  2  1  0  0  0
 13  3  1  0  0  0
  8  4  1  0  0  0
 13  6  1  0  0  0
 10  7  1  0  0  0
 12 14  1  0  0  0
M  END
> <minimizedAffinity>
4.04163

> <CNNscore>
0.5628448129

> <CNNaffinity>
5.4378619194

> <CNN_VS>
3.0606722832

> <CNNaffinity_variance>
0.6698942184

$$$$
[H]OC12N(C([H])([H])c3c([H])c([H])c(OC([H])([H])[H])c([H])c3[H])C3([H])C4([H])C5([H])C([H])([H])C([H])(C14[H])C1([H])C2([H])C3([H])C51[H]


 23 29  0  0  0  0  0  0  0  0999 V2000
   22.6821    8.6646   54.5186 N   0  0  0  0  0  0  0  0  0  0  0  0
   21.2757    8.2889   54.5718 C   0  0  0  0  0  0  0  0  0  0  0  0
   20.7834    9.0020   53.3315 C   0  0  0  0  0  0  0  0  0  0  0  0
   19.7281    8.0962   52.7667 C   0  0  0  0  0  0  0  0  0  0  0  0
   19.9833    8.2782   51.2656 C   0  0  0  0  0  0  0  0  0  0  0  0
   21.4823    7.9478   51.3173 C   0  0  0  0  0  0  0  0  0  0  0  0
   21.4709    6.6323   52.0277 C   0  0  0  0  0  0  0  0  0  0  0  0
   20.2874    6.7347   53.0008 C   0  0  0  0  0  0  0  0  0  0  0  0
   21.2348    6.8534   54.1557 C   0  0  0  0  0  0  0  0  0  0  0  0
   22.4072    6.7425   53.1782 C   0  0  0  0  0  0  0  0  0  0  0  0
   22.9778    8.1374   53.2088 C   0  0  0  0  0  0  0  0  0  0  0  0
   24.2430    8.2627   52.7633 O   0  0  0  0  0  0  0  0  0  0  0  0
   21.9502    8.8946   52.3695 C   0  0  0  0  0  0  0  0  0  0  0  0
   24.5447    7.4438   52.2990 H   0  0  0  0  0  0  0  0  0  0  0  0
   23.4429    8.1166   55.5925 C   0  0  0  0  0  0  0  0  0  0  0  0
   27.6128    9.0094   54.9526 C   0  0  0  0  0  0  0  0  0  0  0  0
   26.9137    9.5672   56.0005 C   0  0  0  0  0  0  0  0  0  0  0  0
   25.5806    9.2856   56.2044 C   0  0  0  0  0  0  0  0  0  0  0  0
   24.8754    8.4275   55.3662 C   0  0  0  0  0  0  0  0  0  0  0  0
   25.6031    7.8738   54.3115 C   0  0  0  0  0  0  0  0  0  0  0  0
   26.9357    8.1570   54.1101 C   0  0  0  0  0  0  0  0  0  0  0  0
   29.3781   10.5444   54.2158 C   0  0  0  0  0  0  0  0  0  0  0  0
   28.9675    9.3064   54.7599 O   0  0  0  0  0  0  0  0  0  0  0  0
 22 23  1  0  0  0
 23 16  1  0  0  0
 16 17  2  0  0  0
 17 18  1  0  0  0
 18 19  2  0  0  0
 19 15  1  0  0  0
 15  1  1  0  0  0
  1  2  1  0  0  0
  2  3  1  0  0  0
  3  4  1  0  0  0
  4  5  1  0  0  0
  5  6  1  0  0  0
  6  7  1  0  0  0
  7  8  1  0  0  0
  8  9  1  0  0  0
  9 10  1  0  0  0
 10 11  1  0  0  0
 11 12  1  0  0  0
 11 13  1  0  0  0
 19 20  1  0  0  0
 20 21  2  0  0  0
 21 16  1  0  0  0
 11  1  1  0  0  0
  9  2  1  0  0  0
 13  3  1  0  0  0
  8  4  1  0  0  0
 13  6  1  0  0  0
 10  7  1  0  0  0
 12 14  1  0  0  0
M  END
> <minimizedAffinity>
8.01956

> <CNNscore>
0.5273460746

> <CNNaffinity>
5.2474069595

> <CNN_VS>
2.7671995163

> <CNNaffinity_variance>
0.5920206904

$$$$
[H]c1nc(N2C([H])([H])C([H])([H])N(C([H])([H])C([H])([H])C([H])([H])Sc3c([H])c([H])c(F)c([H])c3[H])C([H])([H])C2([H])[H])c([H])c([H])c1[H]


 23 25  0  0  0  0  0  0  0  0999 V2000
   26.7542    8.0409   54.2153 N   0  0  0  0  0  0  0  0  0  0  0  0
   25.7450    7.8814   53.1976 C   0  0  0  0  0  0  0  0  0  0  0  0
   24.3265    7.9023   53.6968 C   0  0  0  0  0  0  0  0  0  0  0  0
   24.0708    8.9404   54.6460 N   0  0  0  0  0  0  0  0  0  0  0  0
   25.1459    9.3853   55.4943 C   0  0  0  0  0  0  0  0  0  0  0  0
   26.1949    8.3141   55.5147 C   0  0  0  0  0  0  0  0  0  0  0  0
   22.7708    9.5042   54.7331 C   0  0  0  0  0  0  0  0  0  0  0  0
   22.0092    9.4460   55.8775 C   0  0  0  0  0  0  0  0  0  0  0  0
   20.7279    9.9991   55.9355 C   0  0  0  0  0  0  0  0  0  0  0  0
   20.2017   10.6182   54.8361 C   0  0  0  0  0  0  0  0  0  0  0  0
   20.9808   10.6647   53.7041 C   0  0  0  0  0  0  0  0  0  0  0  0
   22.2080   10.1292   53.6644 N   0  0  0  0  0  0  0  0  0  0  0  0
   27.6711    6.9220   54.2394 C   0  0  0  0  0  0  0  0  0  0  0  0
   29.0648    7.4264   54.5067 C   0  0  0  0  0  0  0  0  0  0  0  0
   29.0918    8.9155   54.1648 C   0  0  0  0  0  0  0  0  0  0  0  0
   27.7987    9.7725   55.0986 S   0  0  0  0  0  0  0  0  0  0  0  0
   29.2080   10.2679   60.8623 F   0  0  0  0  0  0  0  0  0  0  0  0
   28.8867   10.1775   59.5436 C   0  0  0  0  0  0  0  0  0  0  0  0
   28.7317    8.9275   58.9594 C   0  0  0  0  0  0  0  0  0  0  0  0
   28.4078    8.8056   57.6320 C   0  0  0  0  0  0  0  0  0  0  0  0
   28.2235    9.9085   56.8255 C   0  0  0  0  0  0  0  0  0  0  0  0
   28.3803   11.1447   57.4177 C   0  0  0  0  0  0  0  0  0  0  0  0
   28.7065   11.2896   58.7541 C   0  0  0  0  0  0  0  0  0  0  0  0
 17 18  1  0  0  0
 18 19  2  0  0  0
 19 20  1  0  0  0
 20 21  2  0  0  0
 21 16  1  0  0  0
 16 15  1  0  0  0
 15 14  1  0  0  0
 14 13  1  0  0  0
 13  1  1  0  0  0
  1  2  1  0  0  0
  2  3  1  0  0  0
  3  4  1  0  0  0
  4  7  1  0  0  0
  7  8  2  0  0  0
  8  9  1  0  0  0
  9 10  2  0  0  0
 10 11  1  0  0  0
 11 12  2  0  0  0
  4  5  1  0  0  0
  5  6  1  0  0  0
 21 22  1  0  0  0
 22 23  2  0  0  0
 23 18  1  0  0  0
  6  1  1  0  0  0
 12  7  1  0  0  0
M  END
> <minimizedAffinity>
17.82403

> <CNNscore>
0.4898000360

> <CNNaffinity>
5.2924842834

> <CNN_VS>
2.5922589302

> <CNNaffinity_variance>
0.1066204309

$$$$
[H]c1nc(N2C([H])([H])C([H])([H])N(C([H])([H])C([H])([H])C([H])([H])Sc3c([H])c([H])c(F)c([H])c3[H])C([H])([H])C2([H])[H])c([H])c([H])c1[H]


 23 25  0  0  0  0  0  0  0  0999 V2000
   21.5234    9.1030   52.2244 N   0  0  0  0  0  0  0  0  0  0  0  0
   21.7820    8.4106   53.4627 C   0  0  0  0  0  0  0  0  0  0  0  0
   20.6683    7.5198   53.9402 C   0  0  0  0  0  0  0  0  0  0  0  0
   20.0962    6.7166   52.9051 N   0  0  0  0  0  0  0  0  0  0  0  0
   20.0956    7.2203   51.5562 C   0  0  0  0  0  0  0  0  0  0  0  0
   20.2790    8.7073   51.6157 C   0  0  0  0  0  0  0  0  0  0  0  0
   19.5422    5.4500   53.2277 C   0  0  0  0  0  0  0  0  0  0  0  0
   20.2092    4.2673   53.0058 C   0  0  0  0  0  0  0  0  0  0  0  0
   19.6387    3.0321   53.3219 C   0  0  0  0  0  0  0  0  0  0  0  0
   18.3860    2.9788   53.8667 C   0  0  0  0  0  0  0  0  0  0  0  0
   17.7386    4.1729   54.0798 C   0  0  0  0  0  0  0  0  0  0  0  0
   18.2995    5.3496   53.7710 N   0  0  0  0  0  0  0  0  0  0  0  0
   21.6222   10.5377   52.3832 C   0  0  0  0  0  0  0  0  0  0  0  0
   22.5403   10.8489   53.5357 C   0  0  0  0  0  0  0  0  0  0  0  0
   21.7261   10.7246   54.8228 C   0  0  0  0  0  0  0  0  0  0  0  0
   22.4987    9.4997   55.9096 S   0  0  0  0  0  0  0  0  0  0  0  0
   27.8715    7.9132   53.8930 F   0  0  0  0  0  0  0  0  0  0  0  0
   26.6344    8.2634   54.3369 C   0  0  0  0  0  0  0  0  0  0  0  0
   26.5109    9.0486   55.4754 C   0  0  0  0  0  0  0  0  0  0  0  0
   25.2763    9.4174   55.9463 C   0  0  0  0  0  0  0  0  0  0  0  0
   24.1133    9.0285   55.3163 C   0  0  0  0  0  0  0  0  0  0  0  0
   24.2493    8.2486   54.1863 C   0  0  0  0  0  0  0  0  0  0  0  0
   25.4844    7.8660   53.6949 C   0  0  0  0  0  0  0  0  0  0  0  0
 17 18  1  0  0  0
 18 19  2  0  0  0
 19 20  1  0  0  0
 20 21  2  0  0  0
 21 16  1  0  0  0
 16 15  1  0  0  0
 15 14  1  0  0  0
 14 13  1  0  0  0
 13  1  1  0  0  0
  1  2  1  0  0  0
  2  3  1  0  0  0
  3  4  1  0  0  0
  4  7  1  0  0  0
  7  8  2  0  0  0
  8  9  1  0  0  0
  9 10  2  0  0  0
 10 11  1  0  0  0
 11 12  2  0  0  0
  4  5  1  0  0  0
  5  6  1  0  0  0
 21 22  1  0  0  0
 22 23  2  0  0  0
 23 18  1  0  0  0
  6  1  1  0  0  0
 12  7  1  0  0  0
M  END
> <minimizedAffinity>
14.87514

> <CNNscore>
0.4792425334

> <CNNaffinity>
6.2150058746

> <CNN_VS>
2.9784951210

> <CNNaffinity_variance>
0.4812080860

$$$$
[H]c1nc(N2C([H])([H])C([H])([H])N(C([H])([H])C([H])([H])C([H])([H])Sc3c([H])c([H])c(F)c([H])c3[H])C([H])([H])C2([H])[H])c([H])c([H])c1[H]


 23 25  0  0  0  0  0  0  0  0999 V2000
   21.2525    8.3915   53.9940 N   0  0  0  0  0  0  0  0  0  0  0  0
   21.1421    9.5831   54.7988 C   0  0  0  0  0  0  0  0  0  0  0  0
   21.7033   10.8300   54.1729 C   0  0  0  0  0  0  0  0  0  0  0  0
   21.3421   10.9914   52.7990 N   0  0  0  0  0  0  0  0  0  0  0  0
   21.1146    9.8162   51.9987 C   0  0  0  0  0  0  0  0  0  0  0  0
   21.7777    8.6559   52.6787 C   0  0  0  0  0  0  0  0  0  0  0  0
   21.2191   12.2975   52.2565 C   0  0  0  0  0  0  0  0  0  0  0  0
   21.8479   12.6836   51.0953 C   0  0  0  0  0  0  0  0  0  0  0  0
   21.7202   13.9783   50.5868 C   0  0  0  0  0  0  0  0  0  0  0  0
   20.9543   14.8980   51.2472 C   0  0  0  0  0  0  0  0  0  0  0  0
   20.3352   14.4899   52.4051 C   0  0  0  0  0  0  0  0  0  0  0  0
   20.4678   13.2443   52.8799 N   0  0  0  0  0  0  0  0  0  0  0  0
   21.9894    7.3508   54.6775 C   0  0  0  0  0  0  0  0  0  0  0  0
   22.4192    6.3079   53.6796 C   0  0  0  0  0  0  0  0  0  0  0  0
   23.9261    6.1095   53.8372 C   0  0  0  0  0  0  0  0  0  0  0  0
   24.7971    7.5522   53.1749 S   0  0  0  0  0  0  0  0  0  0  0  0
   28.4942    9.9273   57.1926 F   0  0  0  0  0  0  0  0  0  0  0  0
   27.6675    9.3799   56.2614 C   0  0  0  0  0  0  0  0  0  0  0  0
   26.3033    9.3111   56.5107 C   0  0  0  0  0  0  0  0  0  0  0  0
   25.4456    8.7647   55.5901 C   0  0  0  0  0  0  0  0  0  0  0  0
   25.8952    8.2635   54.3870 C   0  0  0  0  0  0  0  0  0  0  0  0
   27.2526    8.3375   54.1512 C   0  0  0  0  0  0  0  0  0  0  0  0
   28.1344    8.8846   55.0658 C   0  0  0  0  0  0  0  0  0  0  0  0
 17 18  1  0  0  0
 18 19  2  0  0  0
 19 20  1  0  0  0
 20 21  2  0  0  0
 21 16  1  0  0  0
 16 15  1  0  0  0
 15 14  1  0  0  0
 14 13  1  0  0  0
 13  1  1  0  0  0
  1  2  1  0  0  0
  2  3  1  0  0  0
  3  4  1  0  0  0
  4  7  1  0  0  0
  7  8  2  0  0  0
  8  9  1  0  0  0
  9 10  2  0  0  0
 10 11  1  0  0  0
 11 12  2  0  0  0
  4  5  1  0  0  0
  5  6  1  0  0  0
 21 22  1  0  0  0
 22 23  2  0  0  0
 23 18  1  0  0  0
  6  1  1  0  0  0
 12  7  1  0  0  0
M  END
> <minimizedAffinity>
10.50790

> <CNNscore>
0.4780918956

> <CNNaffinity>
5.3297486305

> <CNN_VS>
2.5481095314

> <CNNaffinity_variance>
0.2655219436

$$$$
[H]c1nc(N2C([H])([H])C([H])([H])N(C([H])([H])C([H])([H])C([H])([H])Sc3c([H])c([H])c(F)c([H])c3[H])C([H])([H])C2([H])[H])c([H])c([H])c1[H]


 23 25  0  0  0  0  0  0  0  0999 V2000
   22.2439    8.9545   54.1598 N   0  0  0  0  0  0  0  0  0  0  0  0
   22.1799    9.2032   52.7407 C   0  0  0  0  0  0  0  0  0  0  0  0
   21.2392   10.3013   52.3272 C   0  0  0  0  0  0  0  0  0  0  0  0
   21.3336   11.4712   53.1435 N   0  0  0  0  0  0  0  0  0  0  0  0
   21.7176   11.3252   54.5236 C   0  0  0  0  0  0  0  0  0  0  0  0
   21.4737    9.9014   54.9253 C   0  0  0  0  0  0  0  0  0  0  0  0
   21.0459   12.7423   52.5807 C   0  0  0  0  0  0  0  0  0  0  0  0
   21.5734   13.1621   51.3813 C   0  0  0  0  0  0  0  0  0  0  0  0
   21.2838   14.4223   50.8528 C   0  0  0  0  0  0  0  0  0  0  0  0
   20.4565   15.2729   51.5317 C   0  0  0  0  0  0  0  0  0  0  0  0
   19.9409   14.8321   52.7276 C   0  0  0  0  0  0  0  0  0  0  0  0
   20.2284   13.6204   53.2212 N   0  0  0  0  0  0  0  0  0  0  0  0
   21.9006    7.5857   54.4790 C   0  0  0  0  0  0  0  0  0  0  0  0
   20.4760    7.3212   54.0681 C   0  0  0  0  0  0  0  0  0  0  0  0
   20.5105    6.4817   52.7918 C   0  0  0  0  0  0  0  0  0  0  0  0
   20.4570    4.7242   53.2241 S   0  0  0  0  0  0  0  0  0  0  0  0
   14.8426    2.8346   53.8232 F   0  0  0  0  0  0  0  0  0  0  0  0
   16.1205    3.2841   53.6998 C   0  0  0  0  0  0  0  0  0  0  0  0
   17.0385    2.5482   52.9625 C   0  0  0  0  0  0  0  0  0  0  0  0
   18.3338    2.9769   52.8208 C   0  0  0  0  0  0  0  0  0  0  0  0
   18.7786    4.1469   53.3988 C   0  0  0  0  0  0  0  0  0  0  0  0
   17.8570    4.8690   54.1288 C   0  0  0  0  0  0  0  0  0  0  0  0
   16.5465    4.4546   54.2839 C   0  0  0  0  0  0  0  0  0  0  0  0
 17 18  1  0  0  0
 18 19  2  0  0  0
 19 20  1  0  0  0
 20 21  2  0  0  0
 21 16  1  0  0  0
 16 15  1  0  0  0
 15 14  1  0  0  0
 14 13  1  0  0  0
 13  1  1  0  0  0
  1  2  1  0  0  0
  2  3  1  0  0  0
  3  4  1  0  0  0
  4  7  1  0  0  0
  7  8  2  0  0  0
  8  9  1  0  0  0
  9 10  2  0  0  0
 10 11  1  0  0  0
 11 12  2  0  0  0
  4  5  1  0  0  0
  5  6  1  0  0  0
 21 22  1  0  0  0
 22 23  2  0  0  0
 23 18  1  0  0  0
  6  1  1  0  0  0
 12  7  1  0  0  0
M  END
> <minimizedAffinity>
25.23346

> <CNNscore>
0.4709842205

> <CNNaffinity>
5.5109930038

> <CNN_VS>
2.5955908298

> <CNNaffinity_variance>
0.3004906774

$$$$
[H]c1nc(N2C([H])([H])C([H])([H])N(C([H])([H])C([H])([H])C([H])([H])Sc3c([H])c([H])c(F)c([H])c3[H])C([H])([H])C2([H])[H])c([H])c([H])c1[H]


 23 25  0  0  0  0  0  0  0  0999 V2000
   21.2308    6.8652   53.7911 N   0  0  0  0  0  0  0  0  0  0  0  0
   21.4657    8.0185   54.6245 C   0  0  0  0  0  0  0  0  0  0  0  0
   22.0809    9.1979   53.9228 C   0  0  0  0  0  0  0  0  0  0  0  0
   21.4882    9.4791   52.6525 N   0  0  0  0  0  0  0  0  0  0  0  0
   20.9294    8.3919   51.8916 C   0  0  0  0  0  0  0  0  0  0  0  0
   21.5240    7.1137   52.4026 C   0  0  0  0  0  0  0  0  0  0  0  0
   21.4662   10.8143   52.1708 C   0  0  0  0  0  0  0  0  0  0  0  0
   21.6613   11.9039   52.9878 C   0  0  0  0  0  0  0  0  0  0  0  0
   21.6244   13.2093   52.4921 C   0  0  0  0  0  0  0  0  0  0  0  0
   21.3898   13.4279   51.1632 C   0  0  0  0  0  0  0  0  0  0  0  0
   21.1980   12.3243   50.3658 C   0  0  0  0  0  0  0  0  0  0  0  0
   21.2363   11.0785   50.8566 N   0  0  0  0  0  0  0  0  0  0  0  0
   21.9160    5.6940   54.2932 C   0  0  0  0  0  0  0  0  0  0  0  0
   23.3067    6.0781   54.7253 C   0  0  0  0  0  0  0  0  0  0  0  0
   24.2058    6.0269   53.4908 C   0  0  0  0  0  0  0  0  0  0  0  0
   24.7773    7.6978   53.0909 S   0  0  0  0  0  0  0  0  0  0  0  0
   28.4835    9.7979   57.2508 F   0  0  0  0  0  0  0  0  0  0  0  0
   27.6548    9.3116   56.2880 C   0  0  0  0  0  0  0  0  0  0  0  0
   26.2800    9.3662   56.4744 C   0  0  0  0  0  0  0  0  0  0  0  0
   25.4201    8.8836   55.5208 C   0  0  0  0  0  0  0  0  0  0  0  0
   25.8778    8.3277   54.3451 C   0  0  0  0  0  0  0  0  0  0  0  0
   27.2457    8.2792   54.1717 C   0  0  0  0  0  0  0  0  0  0  0  0
   28.1299    8.7602   55.1206 C   0  0  0  0  0  0  0  0  0  0  0  0
 17 18  1  0  0  0
 18 19  2  0  0  0
 19 20  1  0  0  0
 20 21  2  0  0  0
 21 16  1  0  0  0
 16 15  1  0  0  0
 15 14  1  0  0  0
 14 13  1  0  0  0
 13  1  1  0  0  0
  1  2  1  0  0  0
  2  3  1  0  0  0
  3  4  1  0  0  0
  4  7  1  0  0  0
  7  8  2  0  0  0
  8  9  1  0  0  0
  9 10  2  0  0  0
 10 11  1  0  0  0
 11 12  2  0  0  0
  4  5  1  0  0  0
  5  6  1  0  0  0
 21 22  1  0  0  0
 22 23  2  0  0  0
 23 18  1  0  0  0
  6  1  1  0  0  0
 12  7  1  0  0  0
M  END
> <minimizedAffinity>
7.30236

> <CNNscore>
0.4639696479

> <CNNaffinity>
5.5699219704

> <CNN_VS>
2.5842747688

> <CNNaffinity_variance>
0.1633483320

$$$$
[H]c1nc(N2C([H])([H])C([H])([H])N(C([H])([H])C([H])([H])C([H])([H])Sc3c([H])c([H])c(F)c([H])c3[H])C([H])([H])C2([H])[H])c([H])c([H])c1[H]


 23 25  0  0  0  0  0  0  0  0999 V2000
   26.2844    7.9158   54.3993 N   0  0  0  0  0  0  0  0  0  0  0  0
   25.5101    7.9243   53.1827 C   0  0  0  0  0  0  0  0  0  0  0  0
   25.9319    8.9484   52.1652 C   0  0  0  0  0  0  0  0  0  0  0  0
   27.3479    9.0220   51.9826 N   0  0  0  0  0  0  0  0  0  0  0  0
   28.2082    8.7040   53.0926 C   0  0  0  0  0  0  0  0  0  0  0  0
   27.4036    8.8219   54.3523 C   0  0  0  0  0  0  0  0  0  0  0  0
   27.8716    9.4070   50.7205 C   0  0  0  0  0  0  0  0  0  0  0  0
   28.1428   10.7160   50.3949 C   0  0  0  0  0  0  0  0  0  0  0  0
   28.6480   11.0714   49.1421 C   0  0  0  0  0  0  0  0  0  0  0  0
   28.8852   10.1062   48.2035 C   0  0  0  0  0  0  0  0  0  0  0  0
   28.6072    8.8053   48.5510 C   0  0  0  0  0  0  0  0  0  0  0  0
   28.1227    8.4807   49.7570 N   0  0  0  0  0  0  0  0  0  0  0  0
   25.4536    8.1335   55.5636 C   0  0  0  0  0  0  0  0  0  0  0  0
   24.6011    9.3557   55.3452 C   0  0  0  0  0  0  0  0  0  0  0  0
   23.4326    9.2866   56.3274 C   0  0  0  0  0  0  0  0  0  0  0  0
   21.9866   10.1006   55.6029 S   0  0  0  0  0  0  0  0  0  0  0  0
   20.4410    7.6048   50.4229 F   0  0  0  0  0  0  0  0  0  0  0  0
   20.7979    8.1947   51.5954 C   0  0  0  0  0  0  0  0  0  0  0  0
   20.7307    7.4688   52.7771 C   0  0  0  0  0  0  0  0  0  0  0  0
   21.0844    8.0374   53.9743 C   0  0  0  0  0  0  0  0  0  0  0  0
   21.5185    9.3433   54.0575 C   0  0  0  0  0  0  0  0  0  0  0  0
   21.5810   10.0540   52.8766 C   0  0  0  0  0  0  0  0  0  0  0  0
   21.2291    9.4996   51.6592 C   0  0  0  0  0  0  0  0  0  0  0  0
 17 18  1  0  0  0
 18 19  2  0  0  0
 19 20  1  0  0  0
 20 21  2  0  0  0
 21 16  1  0  0  0
 16 15  1  0  0  0
 15 14  1  0  0  0
 14 13  1  0  0  0
 13  1  1  0  0  0
  1  2  1  0  0  0
  2  3  1  0  0  0
  3  4  1  0  0  0
  4  7  1  0  0  0
  7  8  2  0  0  0
  8  9  1  0  0  0
  9 10  2  0  0  0
 10 11  1  0  0  0
 11 12  2  0  0  0
  4  5  1  0  0  0
  5  6  1  0  0  0
 21 22  1  0  0  0
 22 23  2  0  0  0
 23 18  1  0  0  0
  6  1  1  0  0  0
 12  7  1  0  0  0
M  END
> <minimizedAffinity>
18.99365

> <CNNscore>
0.4546245039

> <CNNaffinity>
5.4997305870

> <CNN_VS>
2.5003123283

> <CNNaffinity_variance>
0.2003987283

$$$$
[H]c1nc(N2C([H])([H])C([H])([H])N(C([H])([H])C([H])([H])C([H])([H])Sc3c([H])c([H])c(F)c([H])c3[H])C([H])([H])C2([H])[H])c([H])c([H])c1[H]


 23 25  0  0  0  0  0  0  0  0999 V2000
   26.2217    8.8914   54.2675 N   0  0  0  0  0  0  0  0  0  0  0  0
   25.8115    8.2781   53.0285 C   0  0  0  0  0  0  0  0  0  0  0  0
   24.6145    7.3733   53.1300 C   0  0  0  0  0  0  0  0  0  0  0  0
   23.5524    7.9180   53.9170 N   0  0  0  0  0  0  0  0  0  0  0  0
   23.8774    8.8162   54.9945 C   0  0  0  0  0  0  0  0  0  0  0  0
   25.3183    8.6084   55.3536 C   0  0  0  0  0  0  0  0  0  0  0  0
   22.2100    7.5619   53.6230 C   0  0  0  0  0  0  0  0  0  0  0  0
   21.6682    6.3468   53.9736 C   0  0  0  0  0  0  0  0  0  0  0  0
   20.3472    6.0152   53.6638 C   0  0  0  0  0  0  0  0  0  0  0  0
   19.5582    6.9094   52.9955 C   0  0  0  0  0  0  0  0  0  0  0  0
   20.1206    8.1172   52.6556 C   0  0  0  0  0  0  0  0  0  0  0  0
   21.3894    8.4202   52.9599 N   0  0  0  0  0  0  0  0  0  0  0  0
   27.5921    8.5656   54.5977 C   0  0  0  0  0  0  0  0  0  0  0  0
   28.5052    9.1208   53.5365 C   0  0  0  0  0  0  0  0  0  0  0  0
   27.7737    9.0223   52.1985 C   0  0  0  0  0  0  0  0  0  0  0  0
   28.4700   10.2271   51.0401 S   0  0  0  0  0  0  0  0  0  0  0  0
   28.7762    7.9805   45.5347 F   0  0  0  0  0  0  0  0  0  0  0  0
   28.7180    8.4757   46.8002 C   0  0  0  0  0  0  0  0  0  0  0  0
   28.1139    9.7048   47.0288 C   0  0  0  0  0  0  0  0  0  0  0  0
   28.0403   10.2290   48.2944 C   0  0  0  0  0  0  0  0  0  0  0  0
   28.5582    9.5653   49.3862 C   0  0  0  0  0  0  0  0  0  0  0  0
   29.1557    8.3452   49.1460 C   0  0  0  0  0  0  0  0  0  0  0  0
   29.2403    7.7989   47.8780 C   0  0  0  0  0  0  0  0  0  0  0  0
 17 18  1  0  0  0
 18 19  2  0  0  0
 19 20  1  0  0  0
 20 21  2  0  0  0
 21 16  1  0  0  0
 16 15  1  0  0  0
 15 14  1  0  0  0
 14 13  1  0  0  0
 13  1  1  0  0  0
  1  2  1  0  0  0
  2  3  1  0  0  0
  3  4  1  0  0  0
  4  7  1  0  0  0
  7  8  2  0  0  0
  8  9  1  0  0  0
  9 10  2  0  0  0
 10 11  1  0  0  0
 11 12  2  0  0  0
  4  5  1  0  0  0
  5  6  1  0  0  0
 21 22  1  0  0  0
 22 23  2  0  0  0
 23 18  1  0  0  0
  6  1  1  0  0  0
 12  7  1  0  0  0
M  END
> <minimizedAffinity>
16.10006

> <CNNscore>
0.4526604712

> <CNNaffinity>
5.4579029083

> <CNN_VS>
2.4705770016

> <CNNaffinity_variance>
0.2194505632

$$$$
[H]c1nc(N2C([H])([H])C([H])([H])N(C([H])([H])C([H])([H])C([H])([H])Sc3c([H])c([H])c(F)c([H])c3[H])C([H])([H])C2([H])[H])c([H])c([H])c1[H]


 23 25  0  0  0  0  0  0  0  0999 V2000
   22.3003    6.3788   53.2891 N   0  0  0  0  0  0  0  0  0  0  0  0
   23.2267    7.0065   52.3794 C   0  0  0  0  0  0  0  0  0  0  0  0
   24.1473    8.0186   53.0039 C   0  0  0  0  0  0  0  0  0  0  0  0
   24.7141    7.5864   54.2432 N   0  0  0  0  0  0  0  0  0  0  0  0
   23.9620    6.6803   55.0718 C   0  0  0  0  0  0  0  0  0  0  0  0
   22.5224    6.7612   54.6603 C   0  0  0  0  0  0  0  0  0  0  0  0
   25.9960    8.0590   54.6289 C   0  0  0  0  0  0  0  0  0  0  0  0
   26.2036    8.8036   55.7671 C   0  0  0  0  0  0  0  0  0  0  0  0
   27.4733    9.2666   56.1202 C   0  0  0  0  0  0  0  0  0  0  0  0
   28.5486    8.9812   55.3257 C   0  0  0  0  0  0  0  0  0  0  0  0
   28.3176    8.2356   54.1939 C   0  0  0  0  0  0  0  0  0  0  0  0
   27.0935    7.7991   53.8689 N   0  0  0  0  0  0  0  0  0  0  0  0
   20.9276    6.5833   52.8803 C   0  0  0  0  0  0  0  0  0  0  0  0
   20.4647    7.9371   53.3505 C   0  0  0  0  0  0  0  0  0  0  0  0
   21.1266    8.9878   52.4599 C   0  0  0  0  0  0  0  0  0  0  0  0
   21.6330   10.4025   53.4701 S   0  0  0  0  0  0  0  0  0  0  0  0
   20.5171   15.5747   50.7399 F   0  0  0  0  0  0  0  0  0  0  0  0
   20.7606   14.4006   51.3820 C   0  0  0  0  0  0  0  0  0  0  0  0
   21.4460   13.3881   50.7240 C   0  0  0  0  0  0  0  0  0  0  0  0
   21.7061   12.1936   51.3464 C   0  0  0  0  0  0  0  0  0  0  0  0
   21.3022   11.9467   52.6412 C   0  0  0  0  0  0  0  0  0  0  0  0
   20.6221   12.9605   53.2842 C   0  0  0  0  0  0  0  0  0  0  0  0
   20.3498   14.1721   52.6749 C   0  0  0  0  0  0  0  0  0  0  0  0
 17 18  1  0  0  0
 18 19  2  0  0  0
 19 20  1  0  0  0
 20 21  2  0  0  0
 21 16  1  0  0  0
 16 15  1  0  0  0
 15 14  1  0  0  0
 14 13  1  0  0  0
 13  1  1  0  0  0
  1  2  1  0  0  0
  2  3  1  0  0  0
  3  4  1  0  0  0
  4  7  1  0  0  0
  7  8  2  0  0  0
  8  9  1  0  0  0
  9 10  2  0  0  0
 10 11  1  0  0  0
 11 12  2  0  0  0
  4  5  1  0  0  0
  5  6  1  0  0  0
 21 22  1  0  0  0
 22 23  2  0  0  0
 23 18  1  0  0  0
  6  1  1  0  0  0
 12  7  1  0  0  0
M  END
> <minimizedAffinity>
11.04315

> <CNNscore>
0.4526391327

> <CNNaffinity>
5.3995552063

> <CNN_VS>
2.4440500736

> <CNNaffinity_variance>
0.3450602293

$$$$
[H]c1nc(N2C([H])([H])C([H])([H])N(C([H])([H])C([H])([H])C([H])([H])Sc3c([H])c([H])c(F)c([H])c3[H])C([H])([H])C2([H])[H])c([H])c([H])c1[H]


 23 25  0  0  0  0  0  0  0  0999 V2000
   20.9565    9.6510   53.2736 N   0  0  0  0  0  0  0  0  0  0  0  0
   21.0223    8.7930   52.1163 C   0  0  0  0  0  0  0  0  0  0  0  0
   21.1257    7.3230   52.4170 C   0  0  0  0  0  0  0  0  0  0  0  0
   20.2328    6.8865   53.4446 N   0  0  0  0  0  0  0  0  0  0  0  0
   19.8593    7.8150   54.4799 C   0  0  0  0  0  0  0  0  0  0  0  0
   20.8797    8.9133   54.5088 C   0  0  0  0  0  0  0  0  0  0  0  0
   19.7394    5.5555   53.4241 C   0  0  0  0  0  0  0  0  0  0  0  0
   18.4459    5.2357   53.7670 C   0  0  0  0  0  0  0  0  0  0  0  0
   17.9865    3.9167   53.7492 C   0  0  0  0  0  0  0  0  0  0  0  0
   18.8305    2.9052   53.3839 C   0  0  0  0  0  0  0  0  0  0  0  0
   20.1181    3.2484   53.0451 C   0  0  0  0  0  0  0  0  0  0  0  0
   20.5436    4.5184   53.0673 N   0  0  0  0  0  0  0  0  0  0  0  0
   22.0301   10.6208   53.2822 C   0  0  0  0  0  0  0  0  0  0  0  0
   22.7926   10.5077   54.5760 C   0  0  0  0  0  0  0  0  0  0  0  0
   22.6164    9.0809   55.0940 C   0  0  0  0  0  0  0  0  0  0  0  0
   23.6736    7.9593   54.1439 S   0  0  0  0  0  0  0  0  0  0  0  0
   29.4342    9.1996   54.9966 F   0  0  0  0  0  0  0  0  0  0  0  0
   28.1137    8.9236   54.8230 C   0  0  0  0  0  0  0  0  0  0  0  0
   27.6686    8.4418   53.5992 C   0  0  0  0  0  0  0  0  0  0  0  0
   26.3428    8.1546   53.3952 C   0  0  0  0  0  0  0  0  0  0  0  0
   25.4012    8.3298   54.3869 C   0  0  0  0  0  0  0  0  0  0  0  0
   25.8559    8.8090   55.5982 C   0  0  0  0  0  0  0  0  0  0  0  0
   27.1881    9.1046   55.8246 C   0  0  0  0  0  0  0  0  0  0  0  0
 17 18  1  0  0  0
 18 19  2  0  0  0
 19 20  1  0  0  0
 20 21  2  0  0  0
 21 16  1  0  0  0
 16 15  1  0  0  0
 15 14  1  0  0  0
 14 13  1  0  0  0
 13  1  1  0  0  0
  1  2  1  0  0  0
  2  3  1  0  0  0
  3  4  1  0  0  0
  4  7  1  0  0  0
  7  8  2  0  0  0
  8  9  1  0  0  0
  9 10  2  0  0  0
 10 11  1  0  0  0
 11 12  2  0  0  0
  4  5  1  0  0  0
  5  6  1  0  0  0
 21 22  1  0  0  0
 22 23  2  0  0  0
 23 18  1  0  0  0
  6  1  1  0  0  0
 12  7  1  0  0  0
M  END
> <minimizedAffinity>
13.59585

> <CNNscore>
0.4519063532

> <CNNaffinity>
5.9584684372

> <CNN_VS>
2.6926696301

> <CNNaffinity_variance>
0.5301888585

$$$$
[H]c1c([H])c([H])c2c(c1[H])[C@]([H])(c1c([H])c([H])c(F)c([H])c1[H])C([H])([H])C([H])([H])[C@]2([H])N([H])C([H])([H])[H]


 20 22  0  0  0  0  0  0  0  0999 V2000
   21.3930    6.8467   53.6007 C   0  0  0  0  0  0  0  0  0  0  0  0
   22.5749    5.9830   53.3121 C   0  0  0  0  0  0  0  0  0  0  0  0
   23.8138    6.8180   53.0885 C   0  0  0  0  0  0  0  0  0  0  0  0
   24.1195    7.4685   54.4459 C   0  0  0  0  0  0  0  0  0  0  0  0
   23.0223    8.4682   54.6270 C   0  0  0  0  0  0  0  0  0  0  0  0
   23.2958    9.6832   55.1923 C   0  0  0  0  0  0  0  0  0  0  0  0
   22.2672   10.5914   55.3487 C   0  0  0  0  0  0  0  0  0  0  0  0
   20.9876   10.3177   54.9584 C   0  0  0  0  0  0  0  0  0  0  0  0
   20.7447    9.0740   54.3877 C   0  0  0  0  0  0  0  0  0  0  0  0
   21.7467    8.1445   54.2168 C   0  0  0  0  0  0  0  0  0  0  0  0
   25.4609    8.0326   54.5253 C   0  0  0  0  0  0  0  0  0  0  0  0
   26.2406    8.1188   53.3948 C   0  0  0  0  0  0  0  0  0  0  0  0
   27.5140    8.6459   53.4265 C   0  0  0  0  0  0  0  0  0  0  0  0
   28.0354    9.1029   54.6121 C   0  0  0  0  0  0  0  0  0  0  0  0
   29.2970    9.6219   54.6324 F   0  0  0  0  0  0  0  0  0  0  0  0
   27.2834    9.0300   55.7518 C   0  0  0  0  0  0  0  0  0  0  0  0
   25.9919    8.4933   55.7093 C   0  0  0  0  0  0  0  0  0  0  0  0
   20.8962    8.0126   51.5496 C   0  0  0  0  0  0  0  0  0  0  0  0
   20.4931    6.9875   52.4715 N   0  0  0  0  0  0  0  0  0  0  0  0
   20.5045    6.0739   51.9654 H   0  0  0  0  0  0  0  0  0  0  0  0
 18 19  1  0  0  0
 19  1  1  0  0  0
  1  2  1  0  0  0
  2  3  1  0  0  0
  3  4  1  0  0  0
  4 11  1  0  0  0
 11 12  2  0  0  0
 12 13  1  0  0  0
 13 14  2  0  0  0
 14 15  1  0  0  0
 14 16  1  0  0  0
 16 17  2  0  0  0
  4  5  1  0  0  0
  5  6  2  0  0  0
  6  7  1  0  0  0
  7  8  2  0  0  0
  8  9  1  0  0  0
  9 10  2  0  0  0
 10  1  1  0  0  0
 17 11  1  0  0  0
 10  5  1  0  0  0
 19 20  1  0  0  0
M  END
> <minimizedAffinity>
-1.69916

> <CNNscore>
0.7382183075

> <CNNaffinity>
5.4305868149

> <CNN_VS>
4.0089588165

> <CNNaffinity_variance>
0.8186739087

$$$$
[H]c1c([H])c([H])c2c(c1[H])[C@]([H])(c1c([H])c([H])c(F)c([H])c1[H])C([H])([H])C([H])([H])[C@]2([H])N([H])C([H])([H])[H]


 20 22  0  0  0  0  0  0  0  0999 V2000
   21.1599    8.6823   53.5074 C   0  0  0  0  0  0  0  0  0  0  0  0
   21.9288    9.9395   53.7410 C   0  0  0  0  0  0  0  0  0  0  0  0
   23.1556    9.6752   54.5821 C   0  0  0  0  0  0  0  0  0  0  0  0
   24.0719    8.8062   53.7077 C   0  0  0  0  0  0  0  0  0  0  0  0
   23.3710    7.4868   53.6436 C   0  0  0  0  0  0  0  0  0  0  0  0
   24.0975    6.3285   53.6789 C   0  0  0  0  0  0  0  0  0  0  0  0
   23.4292    5.1214   53.6195 C   0  0  0  0  0  0  0  0  0  0  0  0
   22.0689    5.0451   53.5267 C   0  0  0  0  0  0  0  0  0  0  0  0
   21.3617    6.2411   53.4931 C   0  0  0  0  0  0  0  0  0  0  0  0
   21.9960    7.4624   53.5503 C   0  0  0  0  0  0  0  0  0  0  0  0
   25.4404    8.7324   54.2034 C   0  0  0  0  0  0  0  0  0  0  0  0
   26.4668    8.4042   53.3477 C   0  0  0  0  0  0  0  0  0  0  0  0
   27.7747    8.3240   53.7758 C   0  0  0  0  0  0  0  0  0  0  0  0
   28.0801    8.5756   55.0910 C   0  0  0  0  0  0  0  0  0  0  0  0
   29.3777    8.4926   55.5043 F   0  0  0  0  0  0  0  0  0  0  0  0
   27.0806    8.9042   55.9642 C   0  0  0  0  0  0  0  0  0  0  0  0
   25.7561    8.9831   55.5200 C   0  0  0  0  0  0  0  0  0  0  0  0
   20.2090    8.8473   55.7168 C   0  0  0  0  0  0  0  0  0  0  0  0
   19.9677    8.5756   54.3272 N   0  0  0  0  0  0  0  0  0  0  0  0
   19.2949    9.2899   53.9695 H   0  0  0  0  0  0  0  0  0  0  0  0
 18 19  1  0  0  0
 19  1  1  0  0  0
  1  2  1  0  0  0
  2  3  1  0  0  0
  3  4  1  0  0  0
  4 11  1  0  0  0
 11 12  2  0  0  0
 12 13  1  0  0  0
 13 14  2  0  0  0
 14 15  1  0  0  0
 14 16  1  0  0  0
 16 17  2  0  0  0
  4  5  1  0  0  0
  5  6  2  0  0  0
  6  7  1  0  0  0
  7  8  2  0  0  0
  8  9  1  0  0  0
  9 10  2  0  0  0
 10  1  1  0  0  0
 17 11  1  0  0  0
 10  5  1  0  0  0
 19 20  1  0  0  0
M  END
> <minimizedAffinity>
6.79478

> <CNNscore>
0.6854647398

> <CNNaffinity>
5.2222785950

> <CNN_VS>
3.5796878338

> <CNNaffinity_variance>
0.3748720586

$$$$
[H]c1c([H])c([H])c2c(c1[H])[C@]([H])(c1c([H])c([H])c(F)c([H])c1[H])C([H])([H])C([H])([H])[C@]2([H])N([H])C([H])([H])[H]


 20 22  0  0  0  0  0  0  0  0999 V2000
   21.0680    8.9990   54.1193 C   0  0  0  0  0  0  0  0  0  0  0  0
   21.9129   10.1894   54.4281 C   0  0  0  0  0  0  0  0  0  0  0  0
   23.2050    9.7780   55.0940 C   0  0  0  0  0  0  0  0  0  0  0  0
   23.9879    9.0023   54.0241 C   0  0  0  0  0  0  0  0  0  0  0  0
   23.2249    7.7258   53.8674 C   0  0  0  0  0  0  0  0  0  0  0  0
   23.8978    6.5502   53.6781 C   0  0  0  0  0  0  0  0  0  0  0  0
   23.1727    5.3833   53.5368 C   0  0  0  0  0  0  0  0  0  0  0  0
   21.8080    5.3635   53.5797 C   0  0  0  0  0  0  0  0  0  0  0  0
   21.1561    6.5755   53.7735 C   0  0  0  0  0  0  0  0  0  0  0  0
   21.8478    7.7579   53.9180 C   0  0  0  0  0  0  0  0  0  0  0  0
   25.3947    8.8203   54.3585 C   0  0  0  0  0  0  0  0  0  0  0  0
   25.8321    9.0425   55.6441 C   0  0  0  0  0  0  0  0  0  0  0  0
   27.1534    8.8814   56.0022 C   0  0  0  0  0  0  0  0  0  0  0  0
   28.0736    8.4883   55.0612 C   0  0  0  0  0  0  0  0  0  0  0  0
   29.3790    8.3328   55.4261 F   0  0  0  0  0  0  0  0  0  0  0  0
   27.6678    8.2602   53.7757 C   0  0  0  0  0  0  0  0  0  0  0  0
   26.3242    8.4264   53.4221 C   0  0  0  0  0  0  0  0  0  0  0  0
   19.9042    9.8366   56.0576 C   0  0  0  0  0  0  0  0  0  0  0  0
   19.9609    8.8239   55.0405 N   0  0  0  0  0  0  0  0  0  0  0  0
   19.0871    8.8865   54.4719 H   0  0  0  0  0  0  0  0  0  0  0  0
 18 19  1  0  0  0
 19  1  1  0  0  0
  1  2  1  0  0  0
  2  3  1  0  0  0
  3  4  1  0  0  0
  4 11  1  0  0  0
 11 12  2  0  0  0
 12 13  1  0  0  0
 13 14  2  0  0  0
 14 15  1  0  0  0
 14 16  1  0  0  0
 16 17  2  0  0  0
  4  5  1  0  0  0
  5  6  2  0  0  0
  6  7  1  0  0  0
  7  8  2  0  0  0
  8  9  1  0  0  0
  9 10  2  0  0  0
 10  1  1  0  0  0
 17 11  1  0  0  0
 10  5  1  0  0  0
 19 20  1  0  0  0
M  END
> <minimizedAffinity>
6.77272

> <CNNscore>
0.6737015843

> <CNNaffinity>
5.1603207588

> <CNN_VS>
3.4765162468

> <CNNaffinity_variance>
0.4079776406

$$$$
[H]c1c([H])c([H])c2c(c1[H])[C@]([H])(c1c([H])c([H])c(F)c([H])c1[H])C([H])([H])C([H])([H])[C@]2([H])N([H])C([H])([H])[H]


 20 22  0  0  0  0  0  0  0  0999 V2000
   20.9709    6.3037   53.9326 C   0  0  0  0  0  0  0  0  0  0  0  0
   22.0423    5.6182   54.7127 C   0  0  0  0  0  0  0  0  0  0  0  0
   23.4125    6.0276   54.2257 C   0  0  0  0  0  0  0  0  0  0  0  0
   23.5479    7.5144   54.5869 C   0  0  0  0  0  0  0  0  0  0  0  0
   22.5996    8.2034   53.6583 C   0  0  0  0  0  0  0  0  0  0  0  0
   22.9402    9.4094   53.1104 C   0  0  0  0  0  0  0  0  0  0  0  0
   22.0495   10.0271   52.2546 C   0  0  0  0  0  0  0  0  0  0  0  0
   20.8415    9.4751   51.9372 C   0  0  0  0  0  0  0  0  0  0  0  0
   20.5274    8.2490   52.5115 C   0  0  0  0  0  0  0  0  0  0  0  0
   21.3919    7.6053   53.3690 C   0  0  0  0  0  0  0  0  0  0  0  0
   24.9189    8.0029   54.5116 C   0  0  0  0  0  0  0  0  0  0  0  0
   25.5100    8.5713   55.6165 C   0  0  0  0  0  0  0  0  0  0  0  0
   26.8042    9.0452   55.5877 C   0  0  0  0  0  0  0  0  0  0  0  0
   27.5394    8.9556   54.4310 C   0  0  0  0  0  0  0  0  0  0  0  0
   28.8190    9.4285   54.4132 F   0  0  0  0  0  0  0  0  0  0  0  0
   26.9780    8.3955   53.3172 C   0  0  0  0  0  0  0  0  0  0  0  0
   25.6636    7.9173   53.3565 C   0  0  0  0  0  0  0  0  0  0  0  0
   19.5978    4.3616   53.5380 C   0  0  0  0  0  0  0  0  0  0  0  0
   20.3347    5.4457   52.9508 N   0  0  0  0  0  0  0  0  0  0  0  0
   19.6628    6.0451   52.4217 H   0  0  0  0  0  0  0  0  0  0  0  0
 18 19  1  0  0  0
 19  1  1  0  0  0
  1  2  1  0  0  0
  2  3  1  0  0  0
  3  4  1  0  0  0
  4 11  1  0  0  0
 11 12  2  0  0  0
 12 13  1  0  0  0
 13 14  2  0  0  0
 14 15  1  0  0  0
 14 16  1  0  0  0
 16 17  2  0  0  0
  4  5  1  0  0  0
  5  6  2  0  0  0
  6  7  1  0  0  0
  7  8  2  0  0  0
  8  9  1  0  0  0
  9 10  2  0  0  0
 10  1  1  0  0  0
 17 11  1  0  0  0
 10  5  1  0  0  0
 19 20  1  0  0  0
M  END
> <minimizedAffinity>
3.72411

> <CNNscore>
0.6637032032

> <CNNaffinity>
5.4535117149

> <CNN_VS>
3.6195132732

> <CNNaffinity_variance>
0.3307524323

$$$$
[H]c1c([H])c([H])c2c(c1[H])[C@]([H])(c1c([H])c([H])c(F)c([H])c1[H])C([H])([H])C([H])([H])[C@]2([H])N([H])C([H])([H])[H]


 20 22  0  0  0  0  0  0  0  0999 V2000
   26.7221    9.2235   56.6979 C   0  0  0  0  0  0  0  0  0  0  0  0
   25.3159    9.3037   57.1903 C   0  0  0  0  0  0  0  0  0  0  0  0
   24.3672    9.6453   56.0653 C   0  0  0  0  0  0  0  0  0  0  0  0
   24.3905    8.4295   55.1269 C   0  0  0  0  0  0  0  0  0  0  0  0
   25.7472    8.4784   54.5000 C   0  0  0  0  0  0  0  0  0  0  0  0
   25.8991    8.1492   53.1811 C   0  0  0  0  0  0  0  0  0  0  0  0
   27.1611    8.2025   52.6227 C   0  0  0  0  0  0  0  0  0  0  0  0
   28.2614    8.5723   53.3420 C   0  0  0  0  0  0  0  0  0  0  0  0
   28.0714    8.9002   54.6792 C   0  0  0  0  0  0  0  0  0  0  0  0
   26.8269    8.8579   55.2681 C   0  0  0  0  0  0  0  0  0  0  0  0
   23.2905    8.4186   54.1709 C   0  0  0  0  0  0  0  0  0  0  0  0
   23.0241    7.2840   53.4394 C   0  0  0  0  0  0  0  0  0  0  0  0
   21.9933    7.2317   52.5256 C   0  0  0  0  0  0  0  0  0  0  0  0
   21.1994    8.3347   52.3267 C   0  0  0  0  0  0  0  0  0  0  0  0
   20.1825    8.2724   51.4193 F   0  0  0  0  0  0  0  0  0  0  0  0
   21.4406    9.4763   53.0396 C   0  0  0  0  0  0  0  0  0  0  0  0
   22.4893    9.5194   53.9649 C   0  0  0  0  0  0  0  0  0  0  0  0
   28.3642   10.1773   58.1834 C   0  0  0  0  0  0  0  0  0  0  0  0
   27.5194   10.3861   57.0406 N   0  0  0  0  0  0  0  0  0  0  0  0
   28.1311   10.5815   56.2169 H   0  0  0  0  0  0  0  0  0  0  0  0
 18 19  1  0  0  0
 19  1  1  0  0  0
  1  2  1  0  0  0
  2  3  1  0  0  0
  3  4  1  0  0  0
  4 11  1  0  0  0
 11 12  2  0  0  0
 12 13  1  0  0  0
 13 14  2  0  0  0
 14 15  1  0  0  0
 14 16  1  0  0  0
 16 17  2  0  0  0
  4  5  1  0  0  0
  5  6  2  0  0  0
  6  7  1  0  0  0
  7  8  2  0  0  0
  8  9  1  0  0  0
  9 10  2  0  0  0
 10  1  1  0  0  0
 17 11  1  0  0  0
 10  5  1  0  0  0
 19 20  1  0  0  0
M  END
> <minimizedAffinity>
9.94063

> <CNNscore>
0.6139656305

> <CNNaffinity>
5.2803373337

> <CNN_VS>
3.2419457436

> <CNNaffinity_variance>
0.3453938067

$$$$
[H]c1c([H])c([H])c2c(c1[H])[C@]([H])(c1c([H])c([H])c(F)c([H])c1[H])C([H])([H])C([H])([H])[C@]2([H])N([H])C([H])([H])[H]


 20 22  0  0  0  0  0  0  0  0999 V2000
   20.9232    5.3236   53.1317 C   0  0  0  0  0  0  0  0  0  0  0  0
   19.8801    6.1313   52.4347 C   0  0  0  0  0  0  0  0  0  0  0  0
   19.9605    7.5845   52.8398 C   0  0  0  0  0  0  0  0  0  0  0  0
   21.2968    8.0926   52.2784 C   0  0  0  0  0  0  0  0  0  0  0  0
   22.3286    7.4120   53.1200 C   0  0  0  0  0  0  0  0  0  0  0  0
   23.4562    8.0899   53.4940 C   0  0  0  0  0  0  0  0  0  0  0  0
   24.3951    7.4419   54.2724 C   0  0  0  0  0  0  0  0  0  0  0  0
   24.2361    6.1486   54.6808 C   0  0  0  0  0  0  0  0  0  0  0  0
   23.0790    5.4895   54.2830 C   0  0  0  0  0  0  0  0  0  0  0  0
   22.1221    6.1052   53.5069 C   0  0  0  0  0  0  0  0  0  0  0  0
   21.4006    9.5462   52.2650 C   0  0  0  0  0  0  0  0  0  0  0  0
   21.3376   10.2310   51.0732 C   0  0  0  0  0  0  0  0  0  0  0  0
   21.4310   11.6051   51.0166 C   0  0  0  0  0  0  0  0  0  0  0  0
   21.5920   12.3276   52.1737 C   0  0  0  0  0  0  0  0  0  0  0  0
   21.6842   13.6871   52.1063 F   0  0  0  0  0  0  0  0  0  0  0  0
   21.6578   11.6739   53.3728 C   0  0  0  0  0  0  0  0  0  0  0  0
   21.5619   10.2788   53.4197 C   0  0  0  0  0  0  0  0  0  0  0  0
   19.1260    3.9370   53.9442 C   0  0  0  0  0  0  0  0  0  0  0  0
   20.4009    4.5335   54.2306 N   0  0  0  0  0  0  0  0  0  0  0  0
   21.0879    3.7649   54.3982 H   0  0  0  0  0  0  0  0  0  0  0  0
 18 19  1  0  0  0
 19  1  1  0  0  0
  1  2  1  0  0  0
  2  3  1  0  0  0
  3  4  1  0  0  0
  4 11  1  0  0  0
 11 12  2  0  0  0
 12 13  1  0  0  0
 13 14  2  0  0  0
 14 15  1  0  0  0
 14 16  1  0  0  0
 16 17  2  0  0  0
  4  5  1  0  0  0
  5  6  2  0  0  0
  6  7  1  0  0  0
  7  8  2  0  0  0
  8  9  1  0  0  0
  9 10  2  0  0  0
 10  1  1  0  0  0
 17 11  1  0  0  0
 10  5  1  0  0  0
 19 20  1  0  0  0
M  END
> <minimizedAffinity>
10.22168

> <CNNscore>
0.5332493186

> <CNNaffinity>
5.4812135696

> <CNN_VS>
2.9228534698

> <CNNaffinity_variance>
0.1358517855

$$$$
[H]c1c([H])c([H])c2c(c1[H])[C@]([H])(c1c([H])c([H])c(F)c([H])c1[H])C([H])([H])C([H])([H])[C@]2([H])N([H])C([H])([H])[H]


 20 22  0  0  0  0  0  0  0  0999 V2000
   22.7504    5.8572   54.6455 C   0  0  0  0  0  0  0  0  0  0  0  0
   21.3509    6.2828   54.3509 C   0  0  0  0  0  0  0  0  0  0  0  0
   21.2419    7.7888   54.3035 C   0  0  0  0  0  0  0  0  0  0  0  0
   22.0549    8.2196   53.0736 C   0  0  0  0  0  0  0  0  0  0  0  0
   23.4745    7.9595   53.4652 C   0  0  0  0  0  0  0  0  0  0  0  0
   24.4556    8.8335   53.0854 C   0  0  0  0  0  0  0  0  0  0  0  0
   25.7596    8.5739   53.4593 C   0  0  0  0  0  0  0  0  0  0  0  0
   26.1021    7.4754   54.1945 C   0  0  0  0  0  0  0  0  0  0  0  0
   25.0806    6.6083   54.5635 C   0  0  0  0  0  0  0  0  0  0  0  0
   23.7696    6.8364   54.2079 C   0  0  0  0  0  0  0  0  0  0  0  0
   21.7909    9.5920   52.6604 C   0  0  0  0  0  0  0  0  0  0  0  0
   21.8248   10.6094   53.5861 C   0  0  0  0  0  0  0  0  0  0  0  0
   21.5816   11.9205   53.2369 C   0  0  0  0  0  0  0  0  0  0  0  0
   21.2953   12.2386   51.9318 C   0  0  0  0  0  0  0  0  0  0  0  0
   21.0553   13.5392   51.5972 F   0  0  0  0  0  0  0  0  0  0  0  0
   21.2548   11.2481   50.9900 C   0  0  0  0  0  0  0  0  0  0  0  0
   21.5032    9.9202   51.3544 C   0  0  0  0  0  0  0  0  0  0  0  0
   21.8625    5.7900   56.8859 C   0  0  0  0  0  0  0  0  0  0  0  0
   22.9431    5.4197   56.0152 N   0  0  0  0  0  0  0  0  0  0  0  0
   22.9964    4.3769   55.9904 H   0  0  0  0  0  0  0  0  0  0  0  0
 18 19  1  0  0  0
 19  1  1  0  0  0
  1  2  1  0  0  0
  2  3  1  0  0  0
  3  4  1  0  0  0
  4 11  1  0  0  0
 11 12  2  0  0  0
 12 13  1  0  0  0
 13 14  2  0  0  0
 14 15  1  0  0  0
 14 16  1  0  0  0
 16 17  2  0  0  0
  4  5  1  0  0  0
  5  6  2  0  0  0
  6  7  1  0  0  0
  7  8  2  0  0  0
  8  9  1  0  0  0
  9 10  2  0  0  0
 10  1  1  0  0  0
 17 11  1  0  0  0
 10  5  1  0  0  0
 19 20  1  0  0  0
M  END
> <minimizedAffinity>
7.99362

> <CNNscore>
0.5218870044

> <CNNaffinity>
5.2350378036

> <CNN_VS>
2.7320981026

> <CNNaffinity_variance>
0.1613742858

$$$$
[H]c1c([H])c([H])c2c(c1[H])[C@]([H])(c1c([H])c([H])c(F)c([H])c1[H])C([H])([H])C([H])([H])[C@]2([H])N([H])C([H])([H])[H]


 20 22  0  0  0  0  0  0  0  0999 V2000
   25.2408    8.3152   54.1973 C   0  0  0  0  0  0  0  0  0  0  0  0
   25.1656    6.9261   53.6577 C   0  0  0  0  0  0  0  0  0  0  0  0
   23.8971    6.2392   54.1063 C   0  0  0  0  0  0  0  0  0  0  0  0
   22.7545    6.9965   53.4135 C   0  0  0  0  0  0  0  0  0  0  0  0
   22.7253    8.3232   54.1028 C   0  0  0  0  0  0  0  0  0  0  0  0
   21.5263    8.9250   54.3691 C   0  0  0  0  0  0  0  0  0  0  0  0
   21.5232   10.1496   55.0077 C   0  0  0  0  0  0  0  0  0  0  0  0
   22.6756   10.7794   55.3817 C   0  0  0  0  0  0  0  0  0  0  0  0
   23.8762   10.1401   55.0960 C   0  0  0  0  0  0  0  0  0  0  0  0
   23.9159    8.9187   54.4605 C   0  0  0  0  0  0  0  0  0  0  0  0
   21.4862    6.2793   53.4441 C   0  0  0  0  0  0  0  0  0  0  0  0
   20.3000    6.9765   53.4570 C   0  0  0  0  0  0  0  0  0  0  0  0
   19.0792    6.3368   53.4854 C   0  0  0  0  0  0  0  0  0  0  0  0
   19.0268    4.9644   53.5016 C   0  0  0  0  0  0  0  0  0  0  0  0
   17.8133    4.3415   53.5305 F   0  0  0  0  0  0  0  0  0  0  0  0
   20.1896    4.2453   53.4893 C   0  0  0  0  0  0  0  0  0  0  0  0
   21.4238    4.9038   53.4604 C   0  0  0  0  0  0  0  0  0  0  0  0
   27.4332    8.9817   54.9470 C   0  0  0  0  0  0  0  0  0  0  0  0
   26.1520    8.4490   55.3183 N   0  0  0  0  0  0  0  0  0  0  0  0
   25.7057    9.1152   55.9874 H   0  0  0  0  0  0  0  0  0  0  0  0
 18 19  1  0  0  0
 19  1  1  0  0  0
  1  2  1  0  0  0
  2  3  1  0  0  0
  3  4  1  0  0  0
  4 11  1  0  0  0
 11 12  2  0  0  0
 12 13  1  0  0  0
 13 14  2  0  0  0
 14 15  1  0  0  0
 14 16  1  0  0  0
 16 17  2  0  0  0
  4  5  1  0  0  0
  5  6  2  0  0  0
  6  7  1  0  0  0
  7  8  2  0  0  0
  8  9  1  0  0  0
  9 10  2  0  0  0
 10  1  1  0  0  0
 17 11  1  0  0  0
 10  5  1  0  0  0
 19 20  1  0  0  0
M  END
> <minimizedAffinity>
11.59032

> <CNNscore>
0.4826536775

> <CNNaffinity>
5.3060612679

> <CNN_VS>
2.5609900951

> <CNNaffinity_variance>
0.0930976868

$$$$
[H]c1c([H])c([H])c2c(c1[H])[C@]([H])(c1c([H])c([H])c(F)c([H])c1[H])C([H])([H])C([H])([H])[C@]2([H])N([H])C([H])([H])[H]


 20 22  0  0  0  0  0  0  0  0999 V2000
   22.0979   10.7939   54.7429 C   0  0  0  0  0  0  0  0  0  0  0  0
   22.9698   10.0692   55.7129 C   0  0  0  0  0  0  0  0  0  0  0  0
   22.8426    8.5735   55.5423 C   0  0  0  0  0  0  0  0  0  0  0  0
   23.4433    8.2664   54.1624 C   0  0  0  0  0  0  0  0  0  0  0  0
   22.4537    8.8384   53.1981 C   0  0  0  0  0  0  0  0  0  0  0  0
   22.1753    8.1743   52.0353 C   0  0  0  0  0  0  0  0  0  0  0  0
   21.2572    8.7205   51.1601 C   0  0  0  0  0  0  0  0  0  0  0  0
   20.6186    9.9001   51.4160 C   0  0  0  0  0  0  0  0  0  0  0  0
   20.9249   10.5486   52.6065 C   0  0  0  0  0  0  0  0  0  0  0  0
   21.8354   10.0323   53.5019 C   0  0  0  0  0  0  0  0  0  0  0  0
   23.7261    6.8513   53.9593 C   0  0  0  0  0  0  0  0  0  0  0  0
   24.2794    6.4218   52.7748 C   0  0  0  0  0  0  0  0  0  0  0  0
   24.5628    5.0929   52.5427 C   0  0  0  0  0  0  0  0  0  0  0  0
   24.2915    4.1569   53.5105 C   0  0  0  0  0  0  0  0  0  0  0  0
   24.5751    2.8442   53.2700 F   0  0  0  0  0  0  0  0  0  0  0  0
   23.7417    4.5545   54.6976 C   0  0  0  0  0  0  0  0  0  0  0  0
   23.4577    5.9058   54.9237 C   0  0  0  0  0  0  0  0  0  0  0  0
   20.1587   10.3537   56.1063 C   0  0  0  0  0  0  0  0  0  0  0  0
   20.8886   11.3264   55.3419 N   0  0  0  0  0  0  0  0  0  0  0  0
   21.1876   12.0894   55.9894 H   0  0  0  0  0  0  0  0  0  0  0  0
 18 19  1  0  0  0
 19  1  1  0  0  0
  1  2  1  0  0  0
  2  3  1  0  0  0
  3  4  1  0  0  0
  4 11  1  0  0  0
 11 12  2  0  0  0
 12 13  1  0  0  0
 13 14  2  0  0  0
 14 15  1  0  0  0
 14 16  1  0  0  0
 16 17  2  0  0  0
  4  5  1  0  0  0
  5  6  2  0  0  0
  6  7  1  0  0  0
  7  8  2  0  0  0
  8  9  1  0  0  0
  9 10  2  0  0  0
 10  1  1  0  0  0
 17 11  1  0  0  0
 10  5  1  0  0  0
 19 20  1  0  0  0
M  END
> <minimizedAffinity>
20.80344

> <CNNscore>
0.4716284275

> <CNNaffinity>
5.2832221985

> <CNN_VS>
2.4917178154

> <CNNaffinity_variance>
0.3241670430

$$$$
[H]OC(=O)C([H])(Oc1c([H])c([H])c(-c2noc([H])c3c(C(=O)C4([H])C([H])([H])C([H])([H])C([H])([H])C4([H])[H])c([H])c([H])c2-3)c([H])c1[H])C(=O)O[H]


 32 35  0  0  0  0  0  0  0  0999 V2000
   27.9461    9.9194   57.9404 C   0  0  0  0  0  0  0  0  0  0  0  0
   26.5879    9.8549   58.1682 C   0  0  0  0  0  0  0  0  0  0  0  0
   25.9242    9.2823   57.0883 C   0  0  0  0  0  0  0  0  0  0  0  0
   26.8680    8.9669   56.1362 C   0  0  0  0  0  0  0  0  0  0  0  0
   26.8508    8.3933   54.8826 C   0  0  0  0  0  0  0  0  0  0  0  0
   28.0091    8.2274   54.2079 N   0  0  0  0  0  0  0  0  0  0  0  0
   29.1337    8.5934   54.7081 O   0  0  0  0  0  0  0  0  0  0  0  0
   29.2634    9.1474   55.8876 C   0  0  0  0  0  0  0  0  0  0  0  0
   28.1533    9.3772   56.6899 C   0  0  0  0  0  0  0  0  0  0  0  0
   25.5899    7.9626   54.2858 C   0  0  0  0  0  0  0  0  0  0  0  0
   25.0537    6.7435   54.6390 C   0  0  0  0  0  0  0  0  0  0  0  0
   23.8595    6.2812   54.0977 C   0  0  0  0  0  0  0  0  0  0  0  0
   23.1704    7.0348   53.1834 C   0  0  0  0  0  0  0  0  0  0  0  0
   23.7051    8.2713   52.8188 C   0  0  0  0  0  0  0  0  0  0  0  0
   24.8813    8.7052   53.3647 C   0  0  0  0  0  0  0  0  0  0  0  0
   21.9951    6.6403   52.6144 O   0  0  0  0  0  0  0  0  0  0  0  0
   20.7905    7.3132   52.5046 C   0  0  0  0  0  0  0  0  0  0  0  0
   20.8592    8.3226   51.4347 C   0  0  0  0  0  0  0  0  0  0  0  0
   20.5929    8.0207   50.2342 O   0  0  0  0  0  0  0  0  0  0  0  0
   21.2121    9.6265   51.6746 O   0  0  0  0  0  0  0  0  0  0  0  0
   22.1018    9.9991   51.3741 H   0  0  0  0  0  0  0  0  0  0  0  0
   20.2580    7.8213   53.7900 C   0  0  0  0  0  0  0  0  0  0  0  0
   20.8451    8.7629   54.3731 O   0  0  0  0  0  0  0  0  0  0  0  0
   19.1177    7.2483   54.3297 O   0  0  0  0  0  0  0  0  0  0  0  0
   18.6799    7.6860   55.1281 H   0  0  0  0  0  0  0  0  0  0  0  0
   30.1797   10.0632   58.6624 O   0  0  0  0  0  0  0  0  0  0  0  0
   28.9900   10.4488   58.8062 C   0  0  0  0  0  0  0  0  0  0  0  0
   28.7627   11.4347   59.8786 C   0  0  0  0  0  0  0  0  0  0  0  0
   29.9359   11.7457   60.7214 C   0  0  0  0  0  0  0  0  0  0  0  0
   29.5640   13.1034   61.3300 C   0  0  0  0  0  0  0  0  0  0  0  0
   28.6018   13.7532   60.3913 C   0  0  0  0  0  0  0  0  0  0  0  0
   28.3035   12.7450   59.3227 C   0  0  0  0  0  0  0  0  0  0  0  0
 26 27  2  0  0  0
 27  1  1  0  0  0
  1  2  2  0  0  0
  2  3  1  0  0  0
  3  4  2  0  0  0
  4  5  1  0  0  0
  5 10  1  0  0  0
 10 11  2  0  0  0
 11 12  1  0  0  0
 12 13  2  0  0  0
 13 16  1  0  0  0
 16 17  1  0  0  0
 17 18  1  0  0  0
 18 19  2  0  0  0
 18 20  1  0  0  0
 17 22  1  0  0  0
 22 23  2  0  0  0
 22 24  1  0  0  0
 13 14  1  0  0  0
 14 15  2  0  0  0
  5  6  2  0  0  0
  6  7  1  0  0  0
  7  8  1  0  0  0
  8  9  2  0  0  0
 27 28  1  0  0  0
 28 29  1  0  0  0
 29 30  1  0  0  0
 30 31  1  0  0  0
 31 32  1  0  0  0
  9  1  1  0  0  0
 32 28  1  0  0  0
  9  4  1  0  0  0
 15 10  1  0  0  0
 20 21  1  0  0  0
 24 25  1  0  0  0
M  END
> <minimizedAffinity>
12.04437

> <CNNscore>
0.6581843495

> <CNNaffinity>
5.8327198029

> <CNN_VS>
3.8390049934

> <CNNaffinity_variance>
0.0911334604

$$$$
[H]OC(=O)C([H])(Oc1c([H])c([H])c(-c2noc([H])c3c(C(=O)C4([H])C([H])([H])C([H])([H])C([H])([H])C4([H])[H])c([H])c([H])c2-3)c([H])c1[H])C(=O)O[H]


 32 35  0  0  0  0  0  0  0  0999 V2000
   29.1912   10.0481   59.6918 C   0  0  0  0  0  0  0  0  0  0  0  0
   28.9462    8.7242   59.3947 C   0  0  0  0  0  0  0  0  0  0  0  0
   28.1436    8.6032   58.2653 C   0  0  0  0  0  0  0  0  0  0  0  0
   27.8587    9.8735   57.8160 C   0  0  0  0  0  0  0  0  0  0  0  0
   27.1364   10.4116   56.7721 C   0  0  0  0  0  0  0  0  0  0  0  0
   27.0713   11.7528   56.6261 N   0  0  0  0  0  0  0  0  0  0  0  0
   27.6692   12.5448   57.4410 O   0  0  0  0  0  0  0  0  0  0  0  0
   28.3801   12.1408   58.4639 C   0  0  0  0  0  0  0  0  0  0  0  0
   28.5317   10.7867   58.7326 C   0  0  0  0  0  0  0  0  0  0  0  0
   26.4473    9.5396   55.8253 C   0  0  0  0  0  0  0  0  0  0  0  0
   25.0702    9.4924   55.8250 C   0  0  0  0  0  0  0  0  0  0  0  0
   24.3629    8.6761   54.9498 C   0  0  0  0  0  0  0  0  0  0  0  0
   25.0237    7.8823   54.0486 C   0  0  0  0  0  0  0  0  0  0  0  0
   26.4187    7.9227   54.0409 C   0  0  0  0  0  0  0  0  0  0  0  0
   27.0929    8.7336   54.9112 C   0  0  0  0  0  0  0  0  0  0  0  0
   24.3911    7.0591   53.1638 O   0  0  0  0  0  0  0  0  0  0  0  0
   23.1442    6.4630   53.2393 C   0  0  0  0  0  0  0  0  0  0  0  0
   22.1374    7.2833   52.5452 C   0  0  0  0  0  0  0  0  0  0  0  0
   21.0255    6.7916   52.1916 O   0  0  0  0  0  0  0  0  0  0  0  0
   22.3453    8.6059   52.2456 O   0  0  0  0  0  0  0  0  0  0  0  0
   22.4993    8.9170   51.2968 H   0  0  0  0  0  0  0  0  0  0  0  0
   22.7528    6.0415   54.6042 C   0  0  0  0  0  0  0  0  0  0  0  0
   23.4308    5.1722   55.2008 O   0  0  0  0  0  0  0  0  0  0  0  0
   21.6422    6.6146   55.2025 O   0  0  0  0  0  0  0  0  0  0  0  0
   21.4613    6.4297   56.1792 H   0  0  0  0  0  0  0  0  0  0  0  0
   30.8718    9.9133   61.3314 O   0  0  0  0  0  0  0  0  0  0  0  0
   29.9729   10.6056   60.7862 C   0  0  0  0  0  0  0  0  0  0  0  0
   29.7929   11.9636   61.3313 C   0  0  0  0  0  0  0  0  0  0  0  0
   30.7325   12.9859   60.8261 C   0  0  0  0  0  0  0  0  0  0  0  0
   29.9956   14.2978   61.1225 C   0  0  0  0  0  0  0  0  0  0  0  0
   28.5377   13.9789   61.1656 C   0  0  0  0  0  0  0  0  0  0  0  0
   28.4242   12.4896   61.0369 C   0  0  0  0  0  0  0  0  0  0  0  0
 26 27  2  0  0  0
 27  1  1  0  0  0
  1  2  2  0  0  0
  2  3  1  0  0  0
  3  4  2  0  0  0
  4  5  1  0  0  0
  5 10  1  0  0  0
 10 11  2  0  0  0
 11 12  1  0  0  0
 12 13  2  0  0  0
 13 16  1  0  0  0
 16 17  1  0  0  0
 17 18  1  0  0  0
 18 19  2  0  0  0
 18 20  1  0  0  0
 17 22  1  0  0  0
 22 23  2  0  0  0
 22 24  1  0  0  0
 13 14  1  0  0  0
 14 15  2  0  0  0
  5  6  2  0  0  0
  6  7  1  0  0  0
  7  8  1  0  0  0
  8  9  2  0  0  0
 27 28  1  0  0  0
 28 29  1  0  0  0
 29 30  1  0  0  0
 30 31  1  0  0  0
 31 32  1  0  0  0
  9  1  1  0  0  0
 32 28  1  0  0  0
  9  4  1  0  0  0
 15 10  1  0  0  0
 20 21  1  0  0  0
 24 25  1  0  0  0
M  END
> <minimizedAffinity>
4.40562

> <CNNscore>
0.5747039318

> <CNNaffinity>
6.0658750534

> <CNN_VS>
3.4860823154

> <CNNaffinity_variance>
0.1204333305

$$$$
[H]OC(=O)C([H])(Oc1c([H])c([H])c(-c2noc([H])c3c(C(=O)C4([H])C([H])([H])C([H])([H])C([H])([H])C4([H])[H])c([H])c([H])c2-3)c([H])c1[H])C(=O)O[H]


 32 35  0  0  0  0  0  0  0  0999 V2000
   21.2801    6.2558   53.9186 C   0  0  0  0  0  0  0  0  0  0  0  0
   21.8077    5.9166   55.1464 C   0  0  0  0  0  0  0  0  0  0  0  0
   22.9800    6.6203   55.4010 C   0  0  0  0  0  0  0  0  0  0  0  0
   23.2230    7.4352   54.3176 C   0  0  0  0  0  0  0  0  0  0  0  0
   24.1940    8.3500   53.9697 C   0  0  0  0  0  0  0  0  0  0  0  0
   24.1126    8.9925   52.7844 N   0  0  0  0  0  0  0  0  0  0  0  0
   23.1469    8.7708   51.9675 O   0  0  0  0  0  0  0  0  0  0  0  0
   22.1746    7.9243   52.1977 C   0  0  0  0  0  0  0  0  0  0  0  0
   22.1330    7.1948   53.3788 C   0  0  0  0  0  0  0  0  0  0  0  0
   25.3038    8.6284   54.8766 C   0  0  0  0  0  0  0  0  0  0  0  0
   26.5751    8.2182   54.5388 C   0  0  0  0  0  0  0  0  0  0  0  0
   27.6670    8.4514   55.3670 C   0  0  0  0  0  0  0  0  0  0  0  0
   27.5094    9.1054   56.5612 C   0  0  0  0  0  0  0  0  0  0  0  0
   26.2256    9.5250   56.9127 C   0  0  0  0  0  0  0  0  0  0  0  0
   25.1666    9.2844   56.0819 C   0  0  0  0  0  0  0  0  0  0  0  0
   28.5373    9.3655   57.4194 O   0  0  0  0  0  0  0  0  0  0  0  0
   28.5177    9.6107   58.7816 C   0  0  0  0  0  0  0  0  0  0  0  0
   28.6169   11.0557   59.0470 C   0  0  0  0  0  0  0  0  0  0  0  0
   28.8592   11.4905   60.2112 O   0  0  0  0  0  0  0  0  0  0  0  0
   28.4529   11.9977   58.0632 O   0  0  0  0  0  0  0  0  0  0  0  0
   27.6327   12.5862   58.0237 H   0  0  0  0  0  0  0  0  0  0  0  0
   29.4629    8.7801   59.5630 C   0  0  0  0  0  0  0  0  0  0  0  0
   29.3860    7.5305   59.4991 O   0  0  0  0  0  0  0  0  0  0  0  0
   30.4192    9.3965   60.3538 O   0  0  0  0  0  0  0  0  0  0  0  0
   31.1465    8.8337   60.7721 H   0  0  0  0  0  0  0  0  0  0  0  0
   19.6847    6.2577   52.1907 O   0  0  0  0  0  0  0  0  0  0  0  0
   20.0765    5.7503   53.2741 C   0  0  0  0  0  0  0  0  0  0  0  0
   19.2455    4.6537   53.8038 C   0  0  0  0  0  0  0  0  0  0  0  0
   17.8192    4.9761   54.0156 C   0  0  0  0  0  0  0  0  0  0  0  0
   17.1591    3.5919   54.0331 C   0  0  0  0  0  0  0  0  0  0  0  0
   18.0402    2.6786   53.2465 C   0  0  0  0  0  0  0  0  0  0  0  0
   19.2627    3.4698   52.8902 C   0  0  0  0  0  0  0  0  0  0  0  0
 26 27  2  0  0  0
 27  1  1  0  0  0
  1  2  2  0  0  0
  2  3  1  0  0  0
  3  4  2  0  0  0
  4  5  1  0  0  0
  5 10  1  0  0  0
 10 11  2  0  0  0
 11 12  1  0  0  0
 12 13  2  0  0  0
 13 16  1  0  0  0
 16 17  1  0  0  0
 17 18  1  0  0  0
 18 19  2  0  0  0
 18 20  1  0  0  0
 17 22  1  0  0  0
 22 23  2  0  0  0
 22 24  1  0  0  0
 13 14  1  0  0  0
 14 15  2  0  0  0
  5  6  2  0  0  0
  6  7  1  0  0  0
  7  8  1  0  0  0
  8  9  2  0  0  0
 27 28  1  0  0  0
 28 29  1  0  0  0
 29 30  1  0  0  0
 30 31  1  0  0  0
 31 32  1  0  0  0
  9  1  1  0  0  0
 32 28  1  0  0  0
  9  4  1  0  0  0
 15 10  1  0  0  0
 20 21  1  0  0  0
 24 25  1  0  0  0
M  END
> <minimizedAffinity>
16.70125

> <CNNscore>
0.5676085949

> <CNNaffinity>
5.8817877769

> <CNN_VS>
3.3385531902

> <CNNaffinity_variance>
0.1446026117

$$$$
[H]OC(=O)C([H])(Oc1c([H])c([H])c(-c2noc([H])c3c(C(=O)C4([H])C([H])([H])C([H])([H])C([H])([H])C4([H])[H])c([H])c([H])c2-3)c([H])c1[H])C(=O)O[H]


 32 35  0  0  0  0  0  0  0  0999 V2000
   27.7211   10.1551   57.3440 C   0  0  0  0  0  0  0  0  0  0  0  0
   26.3586   10.1113   57.5508 C   0  0  0  0  0  0  0  0  0  0  0  0
   25.7203    9.3975   56.5422 C   0  0  0  0  0  0  0  0  0  0  0  0
   26.6852    8.9668   55.6588 C   0  0  0  0  0  0  0  0  0  0  0  0
   26.6968    8.2338   54.4912 C   0  0  0  0  0  0  0  0  0  0  0  0
   27.8697    7.9891   53.8676 N   0  0  0  0  0  0  0  0  0  0  0  0
   28.9819    8.4255   54.3381 O   0  0  0  0  0  0  0  0  0  0  0  0
   29.0844    9.1302   55.4372 C   0  0  0  0  0  0  0  0  0  0  0  0
   27.9568    9.4552   56.1799 C   0  0  0  0  0  0  0  0  0  0  0  0
   25.4505    7.7197   53.9306 C   0  0  0  0  0  0  0  0  0  0  0  0
   24.7674    8.4677   52.9968 C   0  0  0  0  0  0  0  0  0  0  0  0
   23.5737    8.0298   52.4347 C   0  0  0  0  0  0  0  0  0  0  0  0
   23.0329    6.8239   52.7982 C   0  0  0  0  0  0  0  0  0  0  0  0
   23.7171    6.0585   53.7436 C   0  0  0  0  0  0  0  0  0  0  0  0
   24.8898    6.5099   54.2827 C   0  0  0  0  0  0  0  0  0  0  0  0
   21.8663    6.3362   52.2864 O   0  0  0  0  0  0  0  0  0  0  0  0
   20.6085    6.9117   52.2354 C   0  0  0  0  0  0  0  0  0  0  0  0
   20.7146    8.3794   52.1835 C   0  0  0  0  0  0  0  0  0  0  0  0
   20.5900    9.0049   51.0897 O   0  0  0  0  0  0  0  0  0  0  0  0
   20.9528    9.1400   53.3002 O   0  0  0  0  0  0  0  0  0  0  0  0
   21.8406    9.5980   53.4506 H   0  0  0  0  0  0  0  0  0  0  0  0
   19.6649    6.4036   53.2577 C   0  0  0  0  0  0  0  0  0  0  0  0
   19.6111    5.1732   53.4918 O   0  0  0  0  0  0  0  0  0  0  0  0
   18.8546    7.2959   53.9412 O   0  0  0  0  0  0  0  0  0  0  0  0
   18.3175    6.9650   54.7303 H   0  0  0  0  0  0  0  0  0  0  0  0
   28.9184   12.0446   58.0700 O   0  0  0  0  0  0  0  0  0  0  0  0
   28.7443   10.8007   58.1539 C   0  0  0  0  0  0  0  0  0  0  0  0
   29.6279   10.0937   59.0989 C   0  0  0  0  0  0  0  0  0  0  0  0
   29.6850   10.6552   60.4644 C   0  0  0  0  0  0  0  0  0  0  0  0
   30.2008    9.4733   61.2943 C   0  0  0  0  0  0  0  0  0  0  0  0
   29.8186    8.2281   60.5644 C   0  0  0  0  0  0  0  0  0  0  0  0
   29.2144    8.6660   59.2641 C   0  0  0  0  0  0  0  0  0  0  0  0
 26 27  2  0  0  0
 27  1  1  0  0  0
  1  2  2  0  0  0
  2  3  1  0  0  0
  3  4  2  0  0  0
  4  5  1  0  0  0
  5 10  1  0  0  0
 10 11  2  0  0  0
 11 12  1  0  0  0
 12 13  2  0  0  0
 13 16  1  0  0  0
 16 17  1  0  0  0
 17 18  1  0  0  0
 18 19  2  0  0  0
 18 20  1  0  0  0
 17 22  1  0  0  0
 22 23  2  0  0  0
 22 24  1  0  0  0
 13 14  1  0  0  0
 14 15  2  0  0  0
  5  6  2  0  0  0
  6  7  1  0  0  0
  7  8  1  0  0  0
  8  9  2  0  0  0
 27 28  1  0  0  0
 28 29  1  0  0  0
 29 30  1  0  0  0
 30 31  1  0  0  0
 31 32  1  0  0  0
  9  1  1  0  0  0
 32 28  1  0  0  0
  9  4  1  0  0  0
 15 10  1  0  0  0
 20 21  1  0  0  0
 24 25  1  0  0  0
M  END
> <minimizedAffinity>
13.33033

> <CNNscore>
0.5453621745

> <CNNaffinity>
5.8232269287

> <CNN_VS>
3.1757676601

> <CNNaffinity_variance>
0.2379031181

$$$$
[H]OC(=O)C([H])(Oc1c([H])c([H])c(-c2noc([H])c3c(C(=O)C4([H])C([H])([H])C([H])([H])C([H])([H])C4([H])[H])c([H])c([H])c2-3)c([H])c1[H])C(=O)O[H]


 32 35  0  0  0  0  0  0  0  0999 V2000
   22.8250    9.0712   54.2162 C   0  0  0  0  0  0  0  0  0  0  0  0
   22.8251   10.0038   55.2317 C   0  0  0  0  0  0  0  0  0  0  0  0
   24.0741   10.0861   55.8378 C   0  0  0  0  0  0  0  0  0  0  0  0
   24.9063    9.1891   55.2056 C   0  0  0  0  0  0  0  0  0  0  0  0
   26.2252    8.8083   55.3335 C   0  0  0  0  0  0  0  0  0  0  0  0
   26.7307    7.8640   54.5105 N   0  0  0  0  0  0  0  0  0  0  0  0
   26.0086    7.3079   53.6060 O   0  0  0  0  0  0  0  0  0  0  0  0
   24.7475    7.5941   53.3992 C   0  0  0  0  0  0  0  0  0  0  0  0
   24.0996    8.5478   54.1736 C   0  0  0  0  0  0  0  0  0  0  0  0
   27.0752    9.4228   56.3491 C   0  0  0  0  0  0  0  0  0  0  0  0
   27.1743   10.7957   56.4106 C   0  0  0  0  0  0  0  0  0  0  0  0
   27.9730   11.4335   57.3529 C   0  0  0  0  0  0  0  0  0  0  0  0
   28.6962   10.7054   58.2615 C   0  0  0  0  0  0  0  0  0  0  0  0
   28.6028    9.3139   58.2076 C   0  0  0  0  0  0  0  0  0  0  0  0
   27.8106    8.7088   57.2718 C   0  0  0  0  0  0  0  0  0  0  0  0
   29.4985   11.2679   59.2106 O   0  0  0  0  0  0  0  0  0  0  0  0
   29.3420   11.3289   60.5845 C   0  0  0  0  0  0  0  0  0  0  0  0
   28.7423   10.0831   61.0911 C   0  0  0  0  0  0  0  0  0  0  0  0
   29.4555    9.0637   61.3263 O   0  0  0  0  0  0  0  0  0  0  0  0
   27.3973    9.9583   61.3314 O   0  0  0  0  0  0  0  0  0  0  0  0
   26.8029    9.3950   60.7399 H   0  0  0  0  0  0  0  0  0  0  0  0
   28.6830   12.5642   61.0677 C   0  0  0  0  0  0  0  0  0  0  0  0
   29.3784   13.5740   61.3289 O   0  0  0  0  0  0  0  0  0  0  0  0
   27.3064   12.5862   61.2241 O   0  0  0  0  0  0  0  0  0  0  0  0
   26.8489   13.4660   61.4174 H   0  0  0  0  0  0  0  0  0  0  0  0
   20.9815    9.5550   52.8383 O   0  0  0  0  0  0  0  0  0  0  0  0
   21.7289    8.6767   53.3429 C   0  0  0  0  0  0  0  0  0  0  0  0
   21.4074    7.2825   52.9871 C   0  0  0  0  0  0  0  0  0  0  0  0
   22.0833    6.2442   53.7924 C   0  0  0  0  0  0  0  0  0  0  0  0
   21.1903    5.0160   53.5779 C   0  0  0  0  0  0  0  0  0  0  0  0
   19.8264    5.5219   53.2418 C   0  0  0  0  0  0  0  0  0  0  0  0
   19.9428    7.0117   53.1226 C   0  0  0  0  0  0  0  0  0  0  0  0
 26 27  2  0  0  0
 27  1  1  0  0  0
  1  2  2  0  0  0
  2  3  1  0  0  0
  3  4  2  0  0  0
  4  5  1  0  0  0
  5 10  1  0  0  0
 10 11  2  0  0  0
 11 12  1  0  0  0
 12 13  2  0  0  0
 13 16  1  0  0  0
 16 17  1  0  0  0
 17 18  1  0  0  0
 18 19  2  0  0  0
 18 20  1  0  0  0
 17 22  1  0  0  0
 22 23  2  0  0  0
 22 24  1  0  0  0
 13 14  1  0  0  0
 14 15  2  0  0  0
  5  6  2  0  0  0
  6  7  1  0  0  0
  7  8  1  0  0  0
  8  9  2  0  0  0
 27 28  1  0  0  0
 28 29  1  0  0  0
 29 30  1  0  0  0
 30 31  1  0  0  0
 31 32  1  0  0  0
  9  1  1  0  0  0
 32 28  1  0  0  0
  9  4  1  0  0  0
 15 10  1  0  0  0
 20 21  1  0  0  0
 24 25  1  0  0  0
M  END
> <minimizedAffinity>
7.78840

> <CNNscore>
0.5136758685

> <CNNaffinity>
5.8173050880

> <CNN_VS>
2.9882092476

> <CNNaffinity_variance>
0.1008156687

$$$$
[H]OC(=O)C([H])(Oc1c([H])c([H])c(-c2noc([H])c3c(C(=O)C4([H])C([H])([H])C([H])([H])C([H])([H])C4([H])[H])c([H])c([H])c2-3)c([H])c1[H])C(=O)O[H]


 32 35  0  0  0  0  0  0  0  0999 V2000
   23.1718    8.5617   54.7979 C   0  0  0  0  0  0  0  0  0  0  0  0
   23.0599    9.3043   55.9541 C   0  0  0  0  0  0  0  0  0  0  0  0
   24.3091    9.5595   56.5099 C   0  0  0  0  0  0  0  0  0  0  0  0
   25.2556    8.9715   55.7005 C   0  0  0  0  0  0  0  0  0  0  0  0
   26.6305    8.8690   55.7046 C   0  0  0  0  0  0  0  0  0  0  0  0
   27.2531    8.1944   54.7138 N   0  0  0  0  0  0  0  0  0  0  0  0
   26.5919    7.6419   53.7617 O   0  0  0  0  0  0  0  0  0  0  0  0
   25.2866    7.6779   53.6614 C   0  0  0  0  0  0  0  0  0  0  0  0
   24.5195    8.3384   54.6122 C   0  0  0  0  0  0  0  0  0  0  0  0
   27.4131    9.4881   56.7703 C   0  0  0  0  0  0  0  0  0  0  0  0
   27.5750   10.8563   56.7858 C   0  0  0  0  0  0  0  0  0  0  0  0
   28.3145   11.4979   57.7728 C   0  0  0  0  0  0  0  0  0  0  0  0
   28.9133   10.7783   58.7740 C   0  0  0  0  0  0  0  0  0  0  0  0
   28.7555    9.3917   58.7674 C   0  0  0  0  0  0  0  0  0  0  0  0
   28.0234    8.7827   57.7861 C   0  0  0  0  0  0  0  0  0  0  0  0
   29.6520   11.3448   59.7711 O   0  0  0  0  0  0  0  0  0  0  0  0
   29.2505   12.1254   60.8413 C   0  0  0  0  0  0  0  0  0  0  0  0
   27.8353   11.8736   61.1610 C   0  0  0  0  0  0  0  0  0  0  0  0
   27.4036   10.6953   61.3296 O   0  0  0  0  0  0  0  0  0  0  0  0
   26.9186   12.8862   61.2904 O   0  0  0  0  0  0  0  0  0  0  0  0
   26.1987   13.0415   60.5989 H   0  0  0  0  0  0  0  0  0  0  0  0
   29.6022   13.5586   60.7150 C   0  0  0  0  0  0  0  0  0  0  0  0
   28.8552   14.3228   60.0597 O   0  0  0  0  0  0  0  0  0  0  0  0
   30.7525   14.0345   61.3235 O   0  0  0  0  0  0  0  0  0  0  0  0
   30.9145   15.0313   61.3539 H   0  0  0  0  0  0  0  0  0  0  0  0
   21.8843    6.8449   53.8355 O   0  0  0  0  0  0  0  0  0  0  0  0
   22.1151    8.0796   53.9200 C   0  0  0  0  0  0  0  0  0  0  0  0
   21.2610    8.9480   53.0893 C   0  0  0  0  0  0  0  0  0  0  0  0
   21.8667   10.2284   52.6689 C   0  0  0  0  0  0  0  0  0  0  0  0
   21.0174   10.6210   51.4539 C   0  0  0  0  0  0  0  0  0  0  0  0
   20.4573    9.3584   50.8870 C   0  0  0  0  0  0  0  0  0  0  0  0
   20.8516    8.2588   51.8267 C   0  0  0  0  0  0  0  0  0  0  0  0
 26 27  2  0  0  0
 27  1  1  0  0  0
  1  2  2  0  0  0
  2  3  1  0  0  0
  3  4  2  0  0  0
  4  5  1  0  0  0
  5 10  1  0  0  0
 10 11  2  0  0  0
 11 12  1  0  0  0
 12 13  2  0  0  0
 13 16  1  0  0  0
 16 17  1  0  0  0
 17 18  1  0  0  0
 18 19  2  0  0  0
 18 20  1  0  0  0
 17 22  1  0  0  0
 22 23  2  0  0  0
 22 24  1  0  0  0
 13 14  1  0  0  0
 14 15  2  0  0  0
  5  6  2  0  0  0
  6  7  1  0  0  0
  7  8  1  0  0  0
  8  9  2  0  0  0
 27 28  1  0  0  0
 28 29  1  0  0  0
 29 30  1  0  0  0
 30 31  1  0  0  0
 31 32  1  0  0  0
  9  1  1  0  0  0
 32 28  1  0  0  0
  9  4  1  0  0  0
 15 10  1  0  0  0
 20 21  1  0  0  0
 24 25  1  0  0  0
M  END
> <minimizedAffinity>
5.98121

> <CNNscore>
0.4995000958

> <CNNaffinity>
5.6705656052

> <CNN_VS>
2.8324480057

> <CNNaffinity_variance>
0.0940036401

$$$$
[H]OC(=O)C([H])(Oc1c([H])c([H])c(-c2noc([H])c3c(C(=O)C4([H])C([H])([H])C([H])([H])C([H])([H])C4([H])[H])c([H])c([H])c2-3)c([H])c1[H])C(=O)O[H]


 32 35  0  0  0  0  0  0  0  0999 V2000
   22.8169    5.0316   57.1969 C   0  0  0  0  0  0  0  0  0  0  0  0
   21.9664    6.0239   57.6362 C   0  0  0  0  0  0  0  0  0  0  0  0
   21.8535    7.0415   56.6948 C   0  0  0  0  0  0  0  0  0  0  0  0
   22.6463    6.7071   55.6195 C   0  0  0  0  0  0  0  0  0  0  0  0
   22.9533    7.2812   54.4042 C   0  0  0  0  0  0  0  0  0  0  0  0
   23.7989    6.6494   53.5614 N   0  0  0  0  0  0  0  0  0  0  0  0
   24.3279    5.5197   53.8660 O   0  0  0  0  0  0  0  0  0  0  0  0
   24.1054    4.8881   54.9914 C   0  0  0  0  0  0  0  0  0  0  0  0
   23.2556    5.4240   55.9503 C   0  0  0  0  0  0  0  0  0  0  0  0
   22.3667    8.5633   54.0249 C   0  0  0  0  0  0  0  0  0  0  0  0
   22.0300    8.7923   52.7086 C   0  0  0  0  0  0  0  0  0  0  0  0
   21.4743    9.9961   52.2908 C   0  0  0  0  0  0  0  0  0  0  0  0
   21.2417   11.0055   53.1884 C   0  0  0  0  0  0  0  0  0  0  0  0
   21.5793   10.7836   54.5243 C   0  0  0  0  0  0  0  0  0  0  0  0
   22.1248    9.5913   54.9119 C   0  0  0  0  0  0  0  0  0  0  0  0
   20.7003   12.2095   52.8450 O   0  0  0  0  0  0  0  0  0  0  0  0
   21.2598   13.2718   52.1561 C   0  0  0  0  0  0  0  0  0  0  0  0
   20.3271   14.4106   52.1183 C   0  0  0  0  0  0  0  0  0  0  0  0
   20.2154   15.1290   51.0816 O   0  0  0  0  0  0  0  0  0  0  0  0
   19.5401   14.7532   53.1886 O   0  0  0  0  0  0  0  0  0  0  0  0
   19.7194   15.5843   53.7344 H   0  0  0  0  0  0  0  0  0  0  0  0
   21.8337   12.9088   50.8397 C   0  0  0  0  0  0  0  0  0  0  0  0
   22.9987   13.2716   50.5523 O   0  0  0  0  0  0  0  0  0  0  0  0
   21.0744   12.1728   49.9444 O   0  0  0  0  0  0  0  0  0  0  0  0
   21.5148   11.8092   49.1110 H   0  0  0  0  0  0  0  0  0  0  0  0
   23.2847    2.7270   57.2281 O   0  0  0  0  0  0  0  0  0  0  0  0
   23.2107    3.8046   57.8746 C   0  0  0  0  0  0  0  0  0  0  0  0
   23.5415    3.7140   59.3084 C   0  0  0  0  0  0  0  0  0  0  0  0
   23.5470    2.3511   59.8792 C   0  0  0  0  0  0  0  0  0  0  0  0
   24.4056    2.5161   61.1392 C   0  0  0  0  0  0  0  0  0  0  0  0
   25.3093    3.6806   60.9016 C   0  0  0  0  0  0  0  0  0  0  0  0
   24.8984    4.2769   59.5889 C   0  0  0  0  0  0  0  0  0  0  0  0
 26 27  2  0  0  0
 27  1  1  0  0  0
  1  2  2  0  0  0
  2  3  1  0  0  0
  3  4  2  0  0  0
  4  5  1  0  0  0
  5 10  1  0  0  0
 10 11  2  0  0  0
 11 12  1  0  0  0
 12 13  2  0  0  0
 13 16  1  0  0  0
 16 17  1  0  0  0
 17 18  1  0  0  0
 18 19  2  0  0  0
 18 20  1  0  0  0
 17 22  1  0  0  0
 22 23  2  0  0  0
 22 24  1  0  0  0
 13 14  1  0  0  0
 14 15  2  0  0  0
  5  6  2  0  0  0
  6  7  1  0  0  0
  7  8  1  0  0  0
  8  9  2  0  0  0
 27 28  1  0  0  0
 28 29  1  0  0  0
 29 30  1  0  0  0
 30 31  1  0  0  0
 31 32  1  0  0  0
  9  1  1  0  0  0
 32 28  1  0  0  0
  9  4  1  0  0  0
 15 10  1  0  0  0
 20 21  1  0  0  0
 24 25  1  0  0  0
M  END
> <minimizedAffinity>
30.98280

> <CNNscore>
0.4462570548

> <CNNaffinity>
5.5341858864

> <CNN_VS>
2.4696695805

> <CNNaffinity_variance>
0.2896074355

$$$$
[H]OC(=O)C([H])(Oc1c([H])c([H])c(-c2noc([H])c3c(C(=O)C4([H])C([H])([H])C([H])([H])C([H])([H])C4([H])[H])c([H])c([H])c2-3)c([H])c1[H])C(=O)O[H]


 32 35  0  0  0  0  0  0  0  0999 V2000
   22.2797    8.7080   53.7147 C   0  0  0  0  0  0  0  0  0  0  0  0
   22.3470    9.6573   54.7124 C   0  0  0  0  0  0  0  0  0  0  0  0
   23.6147    9.6971   55.2831 C   0  0  0  0  0  0  0  0  0  0  0  0
   24.3908    8.7547   54.6454 C   0  0  0  0  0  0  0  0  0  0  0  0
   25.6955    8.3206   54.7448 C   0  0  0  0  0  0  0  0  0  0  0  0
   26.1381    7.3416   53.9261 N   0  0  0  0  0  0  0  0  0  0  0  0
   25.3685    6.8010   53.0519 O   0  0  0  0  0  0  0  0  0  0  0  0
   24.1152    7.1368   52.8738 C   0  0  0  0  0  0  0  0  0  0  0  0
   23.5297    8.1304   53.6475 C   0  0  0  0  0  0  0  0  0  0  0  0
   26.5984    8.9161   55.7256 C   0  0  0  0  0  0  0  0  0  0  0  0
   26.0823    9.4493   56.8865 C   0  0  0  0  0  0  0  0  0  0  0  0
   26.8947   10.0337   57.8515 C   0  0  0  0  0  0  0  0  0  0  0  0
   28.2523   10.0979   57.6743 C   0  0  0  0  0  0  0  0  0  0  0  0
   28.7851    9.5606   56.5016 C   0  0  0  0  0  0  0  0  0  0  0  0
   27.9663    8.9907   55.5665 C   0  0  0  0  0  0  0  0  0  0  0  0
   29.1050   10.6573   58.5803 O   0  0  0  0  0  0  0  0  0  0  0  0
   28.9766   10.8008   59.9510 C   0  0  0  0  0  0  0  0  0  0  0  0
   28.4658   12.1412   60.2836 C   0  0  0  0  0  0  0  0  0  0  0  0
   27.6725   12.3150   61.2551 O   0  0  0  0  0  0  0  0  0  0  0  0
   28.8137   13.2597   59.5693 O   0  0  0  0  0  0  0  0  0  0  0  0
   28.1562   13.7261   58.9605 H   0  0  0  0  0  0  0  0  0  0  0  0
   30.1761   10.3964   60.7202 C   0  0  0  0  0  0  0  0  0  0  0  0
   30.8432   11.2669   61.3274 O   0  0  0  0  0  0  0  0  0  0  0  0
   30.5437    9.0610   60.7577 O   0  0  0  0  0  0  0  0  0  0  0  0
   31.2743    8.7713   61.3927 H   0  0  0  0  0  0  0  0  0  0  0  0
   20.5366    9.2337   52.2261 O   0  0  0  0  0  0  0  0  0  0  0  0
   21.1443    8.3452   52.8787 C   0  0  0  0  0  0  0  0  0  0  0  0
   20.6259    6.9734   52.7271 C   0  0  0  0  0  0  0  0  0  0  0  0
   21.4109    5.9149   53.3953 C   0  0  0  0  0  0  0  0  0  0  0  0
   20.3972    4.7710   53.5210 C   0  0  0  0  0  0  0  0  0  0  0  0
   19.0389    5.3909   53.5280 C   0  0  0  0  0  0  0  0  0  0  0  0
   19.2381    6.8545   53.2717 C   0  0  0  0  0  0  0  0  0  0  0  0
 26 27  2  0  0  0
 27  1  1  0  0  0
  1  2  2  0  0  0
  2  3  1  0  0  0
  3  4  2  0  0  0
  4  5  1  0  0  0
  5 10  1  0  0  0
 10 11  2  0  0  0
 11 12  1  0  0  0
 12 13  2  0  0  0
 13 16  1  0  0  0
 16 17  1  0  0  0
 17 18  1  0  0  0
 18 19  2  0  0  0
 18 20  1  0  0  0
 17 22  1  0  0  0
 22 23  2  0  0  0
 22 24  1  0  0  0
 13 14  1  0  0  0
 14 15  2  0  0  0
  5  6  2  0  0  0
  6  7  1  0  0  0
  7  8  1  0  0  0
  8  9  2  0  0  0
 27 28  1  0  0  0
 28 29  1  0  0  0
 29 30  1  0  0  0
 30 31  1  0  0  0
 31 32  1  0  0  0
  9  1  1  0  0  0
 32 28  1  0  0  0
  9  4  1  0  0  0
 15 10  1  0  0  0
 20 21  1  0  0  0
 24 25  1  0  0  0
M  END
> <minimizedAffinity>
9.49327

> <CNNscore>
0.4410861135

> <CNNaffinity>
5.7342548370

> <CNN_VS>
2.5293002129

> <CNNaffinity_variance>
0.3500544131

$$$$
[H]OC(=O)C([H])(Oc1c([H])c([H])c(-c2noc([H])c3c(C(=O)C4([H])C([H])([H])C([H])([H])C([H])([H])C4([H])[H])c([H])c([H])c2-3)c([H])c1[H])C(=O)O[H]


 32 35  0  0  0  0  0  0  0  0999 V2000
   22.2191    8.6882   53.3773 C   0  0  0  0  0  0  0  0  0  0  0  0
   22.2716    9.7035   54.3086 C   0  0  0  0  0  0  0  0  0  0  0  0
   23.5042    9.7312   54.9523 C   0  0  0  0  0  0  0  0  0  0  0  0
   24.2718    8.7133   54.4312 C   0  0  0  0  0  0  0  0  0  0  0  0
   25.5470    8.2330   54.6410 C   0  0  0  0  0  0  0  0  0  0  0  0
   25.9909    7.1795   53.9216 N   0  0  0  0  0  0  0  0  0  0  0  0
   25.2496    6.6099   53.0413 O   0  0  0  0  0  0  0  0  0  0  0  0
   24.0259    6.9843   52.7631 C   0  0  0  0  0  0  0  0  0  0  0  0
   23.4427    8.0552   53.4279 C   0  0  0  0  0  0  0  0  0  0  0  0
   26.4173    8.8595   55.6318 C   0  0  0  0  0  0  0  0  0  0  0  0
   27.7790    8.8797   55.4224 C   0  0  0  0  0  0  0  0  0  0  0  0
   28.6545    9.4571   56.3349 C   0  0  0  0  0  0  0  0  0  0  0  0
   28.1826   10.0314   57.4865 C   0  0  0  0  0  0  0  0  0  0  0  0
   26.8048   10.0162   57.7082 C   0  0  0  0  0  0  0  0  0  0  0  0
   25.9630    9.4424   56.7962 C   0  0  0  0  0  0  0  0  0  0  0  0
   28.9863   10.6138   58.4224 O   0  0  0  0  0  0  0  0  0  0  0  0
   28.8970   10.5998   59.8036 C   0  0  0  0  0  0  0  0  0  0  0  0
   28.9746   11.9692   60.3393 C   0  0  0  0  0  0  0  0  0  0  0  0
   27.9268   12.6121   60.6425 O   0  0  0  0  0  0  0  0  0  0  0  0
   30.1684   12.6163   60.5353 O   0  0  0  0  0  0  0  0  0  0  0  0
   30.4585   13.3842   59.9465 H   0  0  0  0  0  0  0  0  0  0  0  0
   29.8065    9.6341   60.4624 C   0  0  0  0  0  0  0  0  0  0  0  0
   30.7503   10.0580   61.1702 O   0  0  0  0  0  0  0  0  0  0  0  0
   29.6008    8.2751   60.2870 O   0  0  0  0  0  0  0  0  0  0  0  0
   30.1322    7.6227   60.8462 H   0  0  0  0  0  0  0  0  0  0  0  0
   20.6595    9.1497   51.6785 O   0  0  0  0  0  0  0  0  0  0  0  0
   21.1190    8.3139   52.5001 C   0  0  0  0  0  0  0  0  0  0  0  0
   20.4726    6.9889   52.4932 C   0  0  0  0  0  0  0  0  0  0  0  0
   21.2579    5.8903   53.0931 C   0  0  0  0  0  0  0  0  0  0  0  0
   20.1831    4.8465   53.4204 C   0  0  0  0  0  0  0  0  0  0  0  0
   18.8966    5.5844   53.5924 C   0  0  0  0  0  0  0  0  0  0  0  0
   19.1756    7.0140   53.2376 C   0  0  0  0  0  0  0  0  0  0  0  0
 26 27  2  0  0  0
 27  1  1  0  0  0
  1  2  2  0  0  0
  2  3  1  0  0  0
  3  4  2  0  0  0
  4  5  1  0  0  0
  5 10  1  0  0  0
 10 11  2  0  0  0
 11 12  1  0  0  0
 12 13  2  0  0  0
 13 16  1  0  0  0
 16 17  1  0  0  0
 17 18  1  0  0  0
 18 19  2  0  0  0
 18 20  1  0  0  0
 17 22  1  0  0  0
 22 23  2  0  0  0
 22 24  1  0  0  0
 13 14  1  0  0  0
 14 15  2  0  0  0
  5  6  2  0  0  0
  6  7  1  0  0  0
  7  8  1  0  0  0
  8  9  2  0  0  0
 27 28  1  0  0  0
 28 29  1  0  0  0
 29 30  1  0  0  0
 30 31  1  0  0  0
 31 32  1  0  0  0
  9  1  1  0  0  0
 32 28  1  0  0  0
  9  4  1  0  0  0
 15 10  1  0  0  0
 20 21  1  0  0  0
 24 25  1  0  0  0
M  END
> <minimizedAffinity>
9.18238

> <CNNscore>
0.4396324456

> <CNNaffinity>
5.7984905243

> <CNN_VS>
2.5492045879

> <CNNaffinity_variance>
0.2558348775

$$$$
[H]c1c(OC([H])([H])[H])c([H])c2c3nnc(SC([H])([H])[H])nc3n(C([H])([H])[H])c2c1[H]


 18 20  0  0  0  0  0  0  0  0999 V2000
   27.6458    9.6811   56.6138 C   0  0  0  0  0  0  0  0  0  0  0  0
   28.3450    8.9072   55.7123 C   0  0  0  0  0  0  0  0  0  0  0  0
   27.6388    8.2151   54.7266 C   0  0  0  0  0  0  0  0  0  0  0  0
   26.2556    8.2860   54.6312 C   0  0  0  0  0  0  0  0  0  0  0  0
   25.5741    9.0632   55.5393 C   0  0  0  0  0  0  0  0  0  0  0  0
   26.2735    9.7578   56.5272 C   0  0  0  0  0  0  0  0  0  0  0  0
   24.2323    8.9751   55.2443 C   0  0  0  0  0  0  0  0  0  0  0  0
   23.1591    9.5372   55.8221 N   0  0  0  0  0  0  0  0  0  0  0  0
   21.9558    9.2864   55.3351 N   0  0  0  0  0  0  0  0  0  0  0  0
   21.8515    8.4768   54.2788 C   0  0  0  0  0  0  0  0  0  0  0  0
   22.9013    7.8973   53.6758 N   0  0  0  0  0  0  0  0  0  0  0  0
   24.1503    8.1315   54.1471 C   0  0  0  0  0  0  0  0  0  0  0  0
   25.3729    7.7142   53.7756 N   0  0  0  0  0  0  0  0  0  0  0  0
   25.6850    6.8138   52.6598 C   0  0  0  0  0  0  0  0  0  0  0  0
   28.5902    9.9009   58.8829 C   0  0  0  0  0  0  0  0  0  0  0  0
   28.2870   10.3897   57.6118 O   0  0  0  0  0  0  0  0  0  0  0  0
   20.2075    8.1577   53.6457 S   0  0  0  0  0  0  0  0  0  0  0  0
   20.3162    7.8262   51.8564 C   0  0  0  0  0  0  0  0  0  0  0  0
 15 16  1  0  0  0
 16  1  1  0  0  0
  1  2  2  0  0  0
  2  3  1  0  0  0
  3  4  2  0  0  0
  4  5  1  0  0  0
  5  6  2  0  0  0
  5  7  1  0  0  0
  7  8  2  0  0  0
  8  9  1  0  0  0
  9 10  2  0  0  0
 10 17  1  0  0  0
 17 18  1  0  0  0
 10 11  1  0  0  0
 11 12  2  0  0  0
 12 13  1  0  0  0
 13 14  1  0  0  0
  6  1  1  0  0  0
 12  7  1  0  0  0
 13  4  1  0  0  0
M  END
> <minimizedAffinity>
6.09301

> <CNNscore>
0.7080430388

> <CNNaffinity>
5.2822022438

> <CNN_VS>
3.7400264740

> <CNNaffinity_variance>
0.2158987522

$$$$
[H]c1c(OC([H])([H])[H])c([H])c2c3nnc(SC([H])([H])[H])nc3n(C([H])([H])[H])c2c1[H]


 18 20  0  0  0  0  0  0  0  0999 V2000
   22.9926    6.2091   54.0415 C   0  0  0  0  0  0  0  0  0  0  0  0
   22.5991    6.3694   55.3530 C   0  0  0  0  0  0  0  0  0  0  0  0
   22.0607    7.5945   55.7511 C   0  0  0  0  0  0  0  0  0  0  0  0
   21.9119    8.6517   54.8636 C   0  0  0  0  0  0  0  0  0  0  0  0
   22.3100    8.4738   53.5586 C   0  0  0  0  0  0  0  0  0  0  0  0
   22.8489    7.2519   53.1535 C   0  0  0  0  0  0  0  0  0  0  0  0
   22.0655    9.6471   52.8812 C   0  0  0  0  0  0  0  0  0  0  0  0
   22.2715    9.9902   51.6001 N   0  0  0  0  0  0  0  0  0  0  0  0
   21.9420   11.2045   51.1940 N   0  0  0  0  0  0  0  0  0  0  0  0
   21.4128   12.0514   52.0799 C   0  0  0  0  0  0  0  0  0  0  0  0
   21.1927   11.7436   53.3677 N   0  0  0  0  0  0  0  0  0  0  0  0
   21.5177   10.5079   53.8200 C   0  0  0  0  0  0  0  0  0  0  0  0
   21.4244    9.9072   55.0188 N   0  0  0  0  0  0  0  0  0  0  0  0
   20.8969   10.5009   56.2527 C   0  0  0  0  0  0  0  0  0  0  0  0
   24.3783    4.8876   52.4850 C   0  0  0  0  0  0  0  0  0  0  0  0
   23.5321    5.0213   53.5863 O   0  0  0  0  0  0  0  0  0  0  0  0
   20.9792   13.6877   51.4968 S   0  0  0  0  0  0  0  0  0  0  0  0
   20.2829   13.5525   49.8175 C   0  0  0  0  0  0  0  0  0  0  0  0
 15 16  1  0  0  0
 16  1  1  0  0  0
  1  2  2  0  0  0
  2  3  1  0  0  0
  3  4  2  0  0  0
  4  5  1  0  0  0
  5  6  2  0  0  0
  5  7  1  0  0  0
  7  8  2  0  0  0
  8  9  1  0  0  0
  9 10  2  0  0  0
 10 17  1  0  0  0
 17 18  1  0  0  0
 10 11  1  0  0  0
 11 12  2  0  0  0
 12 13  1  0  0  0
 13 14  1  0  0  0
  6  1  1  0  0  0
 12  7  1  0  0  0
 13  4  1  0  0  0
M  END
> <minimizedAffinity>
17.48376

> <CNNscore>
0.5783516169

> <CNNaffinity>
5.2399740219

> <CNN_VS>
3.0305473804

> <CNNaffinity_variance>
0.1375263184

$$$$
[H]c1c(OC([H])([H])[H])c([H])c2c3nnc(SC([H])([H])[H])nc3n(C([H])([H])[H])c2c1[H]


 18 20  0  0  0  0  0  0  0  0999 V2000
   21.0175    7.9913   52.2919 C   0  0  0  0  0  0  0  0  0  0  0  0
   20.3262    8.4970   53.3722 C   0  0  0  0  0  0  0  0  0  0  0  0
   21.0414    8.9094   54.4981 C   0  0  0  0  0  0  0  0  0  0  0  0
   22.4258    8.8238   54.5576 C   0  0  0  0  0  0  0  0  0  0  0  0
   23.0993    8.3166   53.4702 C   0  0  0  0  0  0  0  0  0  0  0  0
   22.3909    7.9025   52.3414 C   0  0  0  0  0  0  0  0  0  0  0  0
   24.4441    8.3324   53.7641 C   0  0  0  0  0  0  0  0  0  0  0  0
   25.5124    7.9489   53.0477 N   0  0  0  0  0  0  0  0  0  0  0  0
   26.7205    8.0718   53.5705 N   0  0  0  0  0  0  0  0  0  0  0  0
   26.8345    8.5763   54.8012 C   0  0  0  0  0  0  0  0  0  0  0  0
   25.7897    8.9698   55.5464 N   0  0  0  0  0  0  0  0  0  0  0  0
   24.5361    8.8590   55.0434 C   0  0  0  0  0  0  0  0  0  0  0  0
   23.3165    9.1564   55.5241 N   0  0  0  0  0  0  0  0  0  0  0  0
   23.0144    9.7293   56.8408 C   0  0  0  0  0  0  0  0  0  0  0  0
   19.1204    8.0175   50.7140 C   0  0  0  0  0  0  0  0  0  0  0  0
   20.3671    7.5668   51.1491 O   0  0  0  0  0  0  0  0  0  0  0  0
   28.4846    8.7278   55.4791 S   0  0  0  0  0  0  0  0  0  0  0  0
   28.3744    9.4488   57.1498 C   0  0  0  0  0  0  0  0  0  0  0  0
 15 16  1  0  0  0
 16  1  1  0  0  0
  1  2  2  0  0  0
  2  3  1  0  0  0
  3  4  2  0  0  0
  4  5  1  0  0  0
  5  6  2  0  0  0
  5  7  1  0  0  0
  7  8  2  0  0  0
  8  9  1  0  0  0
  9 10  2  0  0  0
 10 17  1  0  0  0
 17 18  1  0  0  0
 10 11  1  0  0  0
 11 12  2  0  0  0
 12 13  1  0  0  0
 13 14  1  0  0  0
  6  1  1  0  0  0
 12  7  1  0  0  0
 13  4  1  0  0  0
M  END
> <minimizedAffinity>
6.91668

> <CNNscore>
0.5593081713

> <CNNaffinity>
5.3239526749

> <CNN_VS>
2.9777302742

> <CNNaffinity_variance>
0.1033636183

$$$$
[H]c1c(OC([H])([H])[H])c([H])c2c3nnc(SC([H])([H])[H])nc3n(C([H])([H])[H])c2c1[H]


 18 20  0  0  0  0  0  0  0  0999 V2000
   24.6637    6.8981   54.4161 C   0  0  0  0  0  0  0  0  0  0  0  0
   23.8546    5.8793   53.9602 C   0  0  0  0  0  0  0  0  0  0  0  0
   22.6922    6.2034   53.2581 C   0  0  0  0  0  0  0  0  0  0  0  0
   22.3314    7.5205   53.0081 C   0  0  0  0  0  0  0  0  0  0  0  0
   23.1508    8.5244   53.4705 C   0  0  0  0  0  0  0  0  0  0  0  0
   24.3143    8.2079   54.1730 C   0  0  0  0  0  0  0  0  0  0  0  0
   22.5899    9.7269   53.1036 C   0  0  0  0  0  0  0  0  0  0  0  0
   22.9909   10.9912   53.3091 N   0  0  0  0  0  0  0  0  0  0  0  0
   22.2567   11.9872   52.8434 N   0  0  0  0  0  0  0  0  0  0  0  0
   21.1345   11.6967   52.1811 C   0  0  0  0  0  0  0  0  0  0  0  0
   20.7025   10.4457   51.9571 N   0  0  0  0  0  0  0  0  0  0  0  0
   21.4294    9.3994   52.4194 C   0  0  0  0  0  0  0  0  0  0  0  0
   21.2721    8.0657   52.3610 N   0  0  0  0  0  0  0  0  0  0  0  0
   20.1656    7.3456   51.7203 C   0  0  0  0  0  0  0  0  0  0  0  0
   27.0109    7.3727   55.0118 C   0  0  0  0  0  0  0  0  0  0  0  0
   25.8268    6.6421   55.1167 O   0  0  0  0  0  0  0  0  0  0  0  0
   20.1636   13.0690   51.5651 S   0  0  0  0  0  0  0  0  0  0  0  0
   20.9220   13.6874   50.0270 C   0  0  0  0  0  0  0  0  0  0  0  0
 15 16  1  0  0  0
 16  1  1  0  0  0
  1  2  2  0  0  0
  2  3  1  0  0  0
  3  4  2  0  0  0
  4  5  1  0  0  0
  5  6  2  0  0  0
  5  7  1  0  0  0
  7  8  2  0  0  0
  8  9  1  0  0  0
  9 10  2  0  0  0
 10 17  1  0  0  0
 17 18  1  0  0  0
 10 11  1  0  0  0
 11 12  2  0  0  0
 12 13  1  0  0  0
 13 14  1  0  0  0
  6  1  1  0  0  0
 12  7  1  0  0  0
 13  4  1  0  0  0
M  END
> <minimizedAffinity>
23.63808

> <CNNscore>
0.5489947200

> <CNNaffinity>
5.2208671570

> <CNN_VS>
2.8662285805

> <CNNaffinity_variance>
0.2396418750

$$$$
[H]c1c(OC([H])([H])[H])c([H])c2c3nnc(SC([H])([H])[H])nc3n(C([H])([H])[H])c2c1[H]


 18 20  0  0  0  0  0  0  0  0999 V2000
   23.0082    5.7574   55.3265 C   0  0  0  0  0  0  0  0  0  0  0  0
   22.7286    5.0856   54.1555 C   0  0  0  0  0  0  0  0  0  0  0  0
   22.2571    5.8090   53.0585 C   0  0  0  0  0  0  0  0  0  0  0  0
   22.0632    7.1825   53.1161 C   0  0  0  0  0  0  0  0  0  0  0  0
   22.3474    7.8365   54.2927 C   0  0  0  0  0  0  0  0  0  0  0  0
   22.8192    7.1199   55.3934 C   0  0  0  0  0  0  0  0  0  0  0  0
   22.0794    9.1738   54.1054 C   0  0  0  0  0  0  0  0  0  0  0  0
   22.1886   10.2241   54.9340 N   0  0  0  0  0  0  0  0  0  0  0  0
   21.8607   11.4288   54.4990 N   0  0  0  0  0  0  0  0  0  0  0  0
   21.4293   11.5573   53.2422 C   0  0  0  0  0  0  0  0  0  0  0  0
   21.3072   10.5307   52.3861 N   0  0  0  0  0  0  0  0  0  0  0  0
   21.6343    9.2812   52.7967 C   0  0  0  0  0  0  0  0  0  0  0  0
   21.6242    8.0779   52.1977 N   0  0  0  0  0  0  0  0  0  0  0  0
   21.2153    7.7949   50.8171 C   0  0  0  0  0  0  0  0  0  0  0  0
   22.6823    4.4972   57.4229 C   0  0  0  0  0  0  0  0  0  0  0  0
   23.4774    5.0981   56.4464 O   0  0  0  0  0  0  0  0  0  0  0  0
   20.9928   13.2022   52.6860 S   0  0  0  0  0  0  0  0  0  0  0  0
   21.4651   13.3796   50.9343 C   0  0  0  0  0  0  0  0  0  0  0  0
 15 16  1  0  0  0
 16  1  1  0  0  0
  1  2  2  0  0  0
  2  3  1  0  0  0
  3  4  2  0  0  0
  4  5  1  0  0  0
  5  6  2  0  0  0
  5  7  1  0  0  0
  7  8  2  0  0  0
  8  9  1  0  0  0
  9 10  2  0  0  0
 10 17  1  0  0  0
 17 18  1  0  0  0
 10 11  1  0  0  0
 11 12  2  0  0  0
 12 13  1  0  0  0
 13 14  1  0  0  0
  6  1  1  0  0  0
 12  7  1  0  0  0
 13  4  1  0  0  0
M  END
> <minimizedAffinity>
13.94417

> <CNNscore>
0.5452081561

> <CNNaffinity>
5.1655035019

> <CNN_VS>
2.8162746429

> <CNNaffinity_variance>
0.0605864339

$$$$
[H]c1c(OC([H])([H])[H])c([H])c2c3nnc(SC([H])([H])[H])nc3n(C([H])([H])[H])c2c1[H]


 18 20  0  0  0  0  0  0  0  0999 V2000
   22.7837    8.7444   55.3125 C   0  0  0  0  0  0  0  0  0  0  0  0
   22.3167    7.5680   54.7660 C   0  0  0  0  0  0  0  0  0  0  0  0
   21.6823    7.6064   53.5229 C   0  0  0  0  0  0  0  0  0  0  0  0
   21.5101    8.7944   52.8255 C   0  0  0  0  0  0  0  0  0  0  0  0
   21.9824    9.9588   53.3861 C   0  0  0  0  0  0  0  0  0  0  0  0
   22.6177    9.9280   54.6282 C   0  0  0  0  0  0  0  0  0  0  0  0
   21.6978   10.9887   52.5179 C   0  0  0  0  0  0  0  0  0  0  0  0
   21.9450   12.3057   52.5939 N   0  0  0  0  0  0  0  0  0  0  0  0
   21.5610   13.0947   51.6049 N   0  0  0  0  0  0  0  0  0  0  0  0
   20.9364   12.5483   50.5591 C   0  0  0  0  0  0  0  0  0  0  0  0
   20.6724   11.2369   50.4490 N   0  0  0  0  0  0  0  0  0  0  0  0
   21.0514   10.3974   51.4433 C   0  0  0  0  0  0  0  0  0  0  0  0
   20.9373    9.0709   51.6282 N   0  0  0  0  0  0  0  0  0  0  0  0
   20.3123    8.1131   50.7088 C   0  0  0  0  0  0  0  0  0  0  0  0
   24.5586    9.5194   56.8417 C   0  0  0  0  0  0  0  0  0  0  0  0
   23.4200    8.7720   56.5387 O   0  0  0  0  0  0  0  0  0  0  0  0
   20.4292   13.6453   49.2383 S   0  0  0  0  0  0  0  0  0  0  0  0
   19.3939   12.7151   48.0609 C   0  0  0  0  0  0  0  0  0  0  0  0
 15 16  1  0  0  0
 16  1  1  0  0  0
  1  2  2  0  0  0
  2  3  1  0  0  0
  3  4  2  0  0  0
  4  5  1  0  0  0
  5  6  2  0  0  0
  5  7  1  0  0  0
  7  8  2  0  0  0
  8  9  1  0  0  0
  9 10  2  0  0  0
 10 17  1  0  0  0
 17 18  1  0  0  0
 10 11  1  0  0  0
 11 12  2  0  0  0
 12 13  1  0  0  0
 13 14  1  0  0  0
  6  1  1  0  0  0
 12  7  1  0  0  0
 13  4  1  0  0  0
M  END
> <minimizedAffinity>
28.14380

> <CNNscore>
0.5401951671

> <CNNaffinity>
4.9836702347

> <CNN_VS>
2.6921546459

> <CNNaffinity_variance>
0.1153642684

$$$$
[H]c1c(OC([H])([H])[H])c([H])c2c3nnc(SC([H])([H])[H])nc3n(C([H])([H])[H])c2c1[H]


 18 20  0  0  0  0  0  0  0  0999 V2000
   20.6321    8.4953   54.8159 C   0  0  0  0  0  0  0  0  0  0  0  0
   20.4395    7.4736   53.9106 C   0  0  0  0  0  0  0  0  0  0  0  0
   21.5555    6.8464   53.3534 C   0  0  0  0  0  0  0  0  0  0  0  0
   22.8494    7.2238   53.6862 C   0  0  0  0  0  0  0  0  0  0  0  0
   23.0227    8.2453   54.5915 C   0  0  0  0  0  0  0  0  0  0  0  0
   21.9118    8.8767   55.1526 C   0  0  0  0  0  0  0  0  0  0  0  0
   24.3762    8.4342   54.7578 C   0  0  0  0  0  0  0  0  0  0  0  0
   25.0632    9.2972   55.5225 N   0  0  0  0  0  0  0  0  0  0  0  0
   26.3849    9.2719   55.5000 N   0  0  0  0  0  0  0  0  0  0  0  0
   26.9923    8.3824   54.7113 C   0  0  0  0  0  0  0  0  0  0  0  0
   26.3386    7.5051   53.9337 N   0  0  0  0  0  0  0  0  0  0  0  0
   24.9833    7.5015   53.9309 C   0  0  0  0  0  0  0  0  0  0  0  0
   24.0612    6.7691   53.2826 N   0  0  0  0  0  0  0  0  0  0  0  0
   24.3221    5.6889   52.3243 C   0  0  0  0  0  0  0  0  0  0  0  0
   19.6426   10.3836   56.0587 C   0  0  0  0  0  0  0  0  0  0  0  0
   19.5687    9.1548   55.4020 O   0  0  0  0  0  0  0  0  0  0  0  0
   28.7826    8.3761   54.7042 S   0  0  0  0  0  0  0  0  0  0  0  0
   29.3790   10.0596   54.3386 C   0  0  0  0  0  0  0  0  0  0  0  0
 15 16  1  0  0  0
 16  1  1  0  0  0
  1  2  2  0  0  0
  2  3  1  0  0  0
  3  4  2  0  0  0
  4  5  1  0  0  0
  5  6  2  0  0  0
  5  7  1  0  0  0
  7  8  2  0  0  0
  8  9  1  0  0  0
  9 10  2  0  0  0
 10 17  1  0  0  0
 17 18  1  0  0  0
 10 11  1  0  0  0
 11 12  2  0  0  0
 12 13  1  0  0  0
 13 14  1  0  0  0
  6  1  1  0  0  0
 12  7  1  0  0  0
 13  4  1  0  0  0
M  END
> <minimizedAffinity>
10.68317

> <CNNscore>
0.5300748348

> <CNNaffinity>
5.2375550270

> <CNN_VS>
2.7762961388

> <CNNaffinity_variance>
0.1745027900

$$$$
[H]c1c(OC([H])([H])[H])c([H])c2c3nnc(SC([H])([H])[H])nc3n(C([H])([H])[H])c2c1[H]


 18 20  0  0  0  0  0  0  0  0999 V2000
   27.4804    8.6116   55.3143 C   0  0  0  0  0  0  0  0  0  0  0  0
   27.0484    9.5363   56.2411 C   0  0  0  0  0  0  0  0  0  0  0  0
   25.6845    9.8236   56.3225 C   0  0  0  0  0  0  0  0  0  0  0  0
   24.7556    9.2044   55.4973 C   0  0  0  0  0  0  0  0  0  0  0  0
   25.2047    8.2841   54.5783 C   0  0  0  0  0  0  0  0  0  0  0  0
   26.5665    7.9919   54.4913 C   0  0  0  0  0  0  0  0  0  0  0  0
   24.1115    7.8133   53.8865 C   0  0  0  0  0  0  0  0  0  0  0  0
   24.0098    6.9126   52.8966 N   0  0  0  0  0  0  0  0  0  0  0  0
   22.8187    6.6326   52.3958 N   0  0  0  0  0  0  0  0  0  0  0  0
   21.7527    7.2612   52.8966 C   0  0  0  0  0  0  0  0  0  0  0  0
   21.8162    8.1669   53.8851 N   0  0  0  0  0  0  0  0  0  0  0  0
   23.0203    8.4791   54.4233 C   0  0  0  0  0  0  0  0  0  0  0  0
   23.4085    9.3204   55.3972 N   0  0  0  0  0  0  0  0  0  0  0  0
   22.5381   10.1930   56.1936 C   0  0  0  0  0  0  0  0  0  0  0  0
   29.3790    7.5916   54.1125 C   0  0  0  0  0  0  0  0  0  0  0  0
   28.8166    8.2843   55.1852 O   0  0  0  0  0  0  0  0  0  0  0  0
   20.1554    6.8594   52.1947 S   0  0  0  0  0  0  0  0  0  0  0  0
   19.6740    8.1744   51.0275 C   0  0  0  0  0  0  0  0  0  0  0  0
 15 16  1  0  0  0
 16  1  1  0  0  0
  1  2  2  0  0  0
  2  3  1  0  0  0
  3  4  2  0  0  0
  4  5  1  0  0  0
  5  6  2  0  0  0
  5  7  1  0  0  0
  7  8  2  0  0  0
  8  9  1  0  0  0
  9 10  2  0  0  0
 10 17  1  0  0  0
 17 18  1  0  0  0
 10 11  1  0  0  0
 11 12  2  0  0  0
 12 13  1  0  0  0
 13 14  1  0  0  0
  6  1  1  0  0  0
 12  7  1  0  0  0
 13  4  1  0  0  0
M  END
> <minimizedAffinity>
10.08285

> <CNNscore>
0.5249850154

> <CNNaffinity>
5.1419878006

> <CNN_VS>
2.6994664669

> <CNNaffinity_variance>
0.0345618241

$$$$
[H]c1c(OC([H])([H])[H])c([H])c2c3nnc(SC([H])([H])[H])nc3n(C([H])([H])[H])c2c1[H]


 18 20  0  0  0  0  0  0  0  0999 V2000
   25.7925    7.4402   53.9604 C   0  0  0  0  0  0  0  0  0  0  0  0
   25.2127    6.4019   53.2630 C   0  0  0  0  0  0  0  0  0  0  0  0
   23.8204    6.3386   53.1808 C   0  0  0  0  0  0  0  0  0  0  0  0
   23.0077    7.2906   53.7813 C   0  0  0  0  0  0  0  0  0  0  0  0
   23.6036    8.3198   54.4732 C   0  0  0  0  0  0  0  0  0  0  0  0
   24.9948    8.3896   54.5594 C   0  0  0  0  0  0  0  0  0  0  0  0
   22.6044    9.1251   54.9714 C   0  0  0  0  0  0  0  0  0  0  0  0
   22.6541   10.2464   55.7075 N   0  0  0  0  0  0  0  0  0  0  0  0
   21.5264   10.8389   56.0616 N   0  0  0  0  0  0  0  0  0  0  0  0
   20.3710   10.2959   55.6715 C   0  0  0  0  0  0  0  0  0  0  0  0
   20.2828    9.1766   54.9359 N   0  0  0  0  0  0  0  0  0  0  0  0
   21.4178    8.5418   54.5541 C   0  0  0  0  0  0  0  0  0  0  0  0
   21.6605    7.4327   53.8344 N   0  0  0  0  0  0  0  0  0  0  0  0
   20.6572    6.5506   53.2274 C   0  0  0  0  0  0  0  0  0  0  0  0
   27.8401    8.6750   54.5703 C   0  0  0  0  0  0  0  0  0  0  0  0
   27.1642    7.5582   54.0776 O   0  0  0  0  0  0  0  0  0  0  0  0
   18.8632   11.1232   56.1693 S   0  0  0  0  0  0  0  0  0  0  0  0
   18.5646   10.7958   57.9376 C   0  0  0  0  0  0  0  0  0  0  0  0
 15 16  1  0  0  0
 16  1  1  0  0  0
  1  2  2  0  0  0
  2  3  1  0  0  0
  3  4  2  0  0  0
  4  5  1  0  0  0
  5  6  2  0  0  0
  5  7  1  0  0  0
  7  8  2  0  0  0
  8  9  1  0  0  0
  9 10  2  0  0  0
 10 17  1  0  0  0
 17 18  1  0  0  0
 10 11  1  0  0  0
 11 12  2  0  0  0
 12 13  1  0  0  0
 13 14  1  0  0  0
  6  1  1  0  0  0
 12  7  1  0  0  0
 13  4  1  0  0  0
M  END
> <minimizedAffinity>
18.21481

> <CNNscore>
0.5162402987

> <CNNaffinity>
5.2306990623

> <CNN_VS>
2.7002975941

> <CNNaffinity_variance>
0.0873598084

$$$$
[H]OC1(c2c([H])c([H])c(C([H])([H])C([H])([H])C([H])([H])[H])c([H])c2[H])C([H])([H])C([H])([H])N(C([H])(c2c([H])c([H])c([H])c([H])c2[H])c2c([H])c([H])c([H])c([H])c2[H])C([H])([H])C1([H])[H]


 30 33  0  0  0  0  0  0  0  0999 V2000
   26.1038    8.7097   55.3157 C   0  0  0  0  0  0  0  0  0  0  0  0
   24.9743    9.5577   55.3351 O   0  0  0  0  0  0  0  0  0  0  0  0
   26.7107    8.7983   53.9682 C   0  0  0  0  0  0  0  0  0  0  0  0
   25.6391    8.5156   52.9508 C   0  0  0  0  0  0  0  0  0  0  0  0
   24.5897    7.6912   53.4227 N   0  0  0  0  0  0  0  0  0  0  0  0
   24.7738    6.7857   54.4534 C   0  0  0  0  0  0  0  0  0  0  0  0
   25.6340    7.3113   55.5786 C   0  0  0  0  0  0  0  0  0  0  0  0
   25.2309   10.4453   55.6933 H   0  0  0  0  0  0  0  0  0  0  0  0
   28.6908   10.2566   58.3645 C   0  0  0  0  0  0  0  0  0  0  0  0
   28.1183    9.0064   58.5008 C   0  0  0  0  0  0  0  0  0  0  0  0
   27.2897    8.4734   57.5154 C   0  0  0  0  0  0  0  0  0  0  0  0
   27.0145    9.1890   56.3640 C   0  0  0  0  0  0  0  0  0  0  0  0
   27.6010   10.4296   56.2526 C   0  0  0  0  0  0  0  0  0  0  0  0
   28.4206   10.9699   57.2147 C   0  0  0  0  0  0  0  0  0  0  0  0
   29.4656   10.8190   59.4899 C   0  0  0  0  0  0  0  0  0  0  0  0
   28.9964   13.1171   60.2653 C   0  0  0  0  0  0  0  0  0  0  0  0
   28.5926   11.6732   60.3938 C   0  0  0  0  0  0  0  0  0  0  0  0
   23.3102    8.0106   52.9269 C   0  0  0  0  0  0  0  0  0  0  0  0
   22.2977    6.8893   53.0927 C   0  0  0  0  0  0  0  0  0  0  0  0
   20.9630    7.0979   52.7374 C   0  0  0  0  0  0  0  0  0  0  0  0
   20.0177    6.1264   52.9172 C   0  0  0  0  0  0  0  0  0  0  0  0
   20.4222    4.9224   53.4645 C   0  0  0  0  0  0  0  0  0  0  0  0
   21.7260    4.7165   53.8079 C   0  0  0  0  0  0  0  0  0  0  0  0
   22.6892    5.7216   53.6187 C   0  0  0  0  0  0  0  0  0  0  0  0
   22.6332    9.1798   53.4849 C   0  0  0  0  0  0  0  0  0  0  0  0
   22.1641   10.1928   52.6531 C   0  0  0  0  0  0  0  0  0  0  0  0
   21.4660   11.2657   53.1300 C   0  0  0  0  0  0  0  0  0  0  0  0
   21.1939   11.3798   54.4904 C   0  0  0  0  0  0  0  0  0  0  0  0
   21.6509   10.3989   55.3242 C   0  0  0  0  0  0  0  0  0  0  0  0
   22.3600    9.3220   54.8134 C   0  0  0  0  0  0  0  0  0  0  0  0
 16 17  1  0  0  0
 17 15  1  0  0  0
 15  9  1  0  0  0
  9 10  2  0  0  0
 10 11  1  0  0  0
 11 12  2  0  0  0
 12  1  1  0  0  0
  1  2  1  0  0  0
  1  3  1  0  0  0
  3  4  1  0  0  0
  4  5  1  0  0  0
  5 18  1  0  0  0
 18 19  1  0  0  0
 19 20  2  0  0  0
 20 21  1  0  0  0
 21 22  2  0  0  0
 22 23  1  0  0  0
 23 24  2  0  0  0
 18 25  1  0  0  0
 25 26  2  0  0  0
 26 27  1  0  0  0
 27 28  2  0  0  0
 28 29  1  0  0  0
 29 30  2  0  0  0
  5  6  1  0  0  0
  6  7  1  0  0  0
 12 13  1  0  0  0
 13 14  2  0  0  0
 14  9  1  0  0  0
  7  1  1  0  0  0
 24 19  1  0  0  0
 30 25  1  0  0  0
  2  8  1  0  0  0
M  END
> <minimizedAffinity>
15.41148

> <CNNscore>
0.5331915617

> <CNNaffinity>
5.8388738632

> <CNN_VS>
3.1132383347

> <CNNaffinity_variance>
0.0697993785

$$$$
[H]OC1(c2c([H])c([H])c(C([H])([H])C([H])([H])C([H])([H])[H])c([H])c2[H])C([H])([H])C([H])([H])N(C([H])(c2c([H])c([H])c([H])c([H])c2[H])c2c([H])c([H])c([H])c([H])c2[H])C([H])([H])C1([H])[H]


 30 33  0  0  0  0  0  0  0  0999 V2000
   23.5384    8.6178   55.0498 C   0  0  0  0  0  0  0  0  0  0  0  0
   24.6985    8.3690   54.2832 O   0  0  0  0  0  0  0  0  0  0  0  0
   23.2909   10.0773   55.0318 C   0  0  0  0  0  0  0  0  0  0  0  0
   24.5503   10.7729   55.4715 C   0  0  0  0  0  0  0  0  0  0  0  0
   25.3754   10.0013   56.3244 N   0  0  0  0  0  0  0  0  0  0  0  0
   24.8655    8.9947   57.1262 C   0  0  0  0  0  0  0  0  0  0  0  0
   23.8049    8.1572   56.4506 C   0  0  0  0  0  0  0  0  0  0  0  0
   24.4406    8.1437   53.3533 H   0  0  0  0  0  0  0  0  0  0  0  0
   20.3770    6.2935   53.3225 C   0  0  0  0  0  0  0  0  0  0  0  0
   20.1887    7.6341   53.5996 C   0  0  0  0  0  0  0  0  0  0  0  0
   21.2066    8.4155   54.1430 C   0  0  0  0  0  0  0  0  0  0  0  0
   22.4440    7.8643   54.4232 C   0  0  0  0  0  0  0  0  0  0  0  0
   22.6052    6.5280   54.1336 C   0  0  0  0  0  0  0  0  0  0  0  0
   21.6120    5.7433   53.5976 C   0  0  0  0  0  0  0  0  0  0  0  0
   19.2295    5.4878   52.8563 C   0  0  0  0  0  0  0  0  0  0  0  0
   19.4211    3.0249   52.8498 C   0  0  0  0  0  0  0  0  0  0  0  0
   19.0641    4.2248   53.6847 C   0  0  0  0  0  0  0  0  0  0  0  0
   26.7604   10.1790   56.1365 C   0  0  0  0  0  0  0  0  0  0  0  0
   27.5529   10.1855   57.4334 C   0  0  0  0  0  0  0  0  0  0  0  0
   28.0118   11.3938   57.9630 C   0  0  0  0  0  0  0  0  0  0  0  0
   28.7670   11.4311   59.1023 C   0  0  0  0  0  0  0  0  0  0  0  0
   29.0661   10.2307   59.7208 C   0  0  0  0  0  0  0  0  0  0  0  0
   28.6149    9.0509   59.2064 C   0  0  0  0  0  0  0  0  0  0  0  0
   27.8395    9.0241   58.0352 C   0  0  0  0  0  0  0  0  0  0  0  0
   27.4662    9.2111   55.2989 C   0  0  0  0  0  0  0  0  0  0  0  0
   28.8547    9.1173   55.3382 C   0  0  0  0  0  0  0  0  0  0  0  0
   29.5445    8.1796   54.6236 C   0  0  0  0  0  0  0  0  0  0  0  0
   28.8659    7.2679   53.8197 C   0  0  0  0  0  0  0  0  0  0  0  0
   27.5033    7.3474   53.7629 C   0  0  0  0  0  0  0  0  0  0  0  0
   26.8284    8.3115   54.4966 C   0  0  0  0  0  0  0  0  0  0  0  0
 16 17  1  0  0  0
 17 15  1  0  0  0
 15  9  1  0  0  0
  9 10  2  0  0  0
 10 11  1  0  0  0
 11 12  2  0  0  0
 12  1  1  0  0  0
  1  2  1  0  0  0
  1  3  1  0  0  0
  3  4  1  0  0  0
  4  5  1  0  0  0
  5 18  1  0  0  0
 18 19  1  0  0  0
 19 20  2  0  0  0
 20 21  1  0  0  0
 21 22  2  0  0  0
 22 23  1  0  0  0
 23 24  2  0  0  0
 18 25  1  0  0  0
 25 26  2  0  0  0
 26 27  1  0  0  0
 27 28  2  0  0  0
 28 29  1  0  0  0
 29 30  2  0  0  0
  5  6  1  0  0  0
  6  7  1  0  0  0
 12 13  1  0  0  0
 13 14  2  0  0  0
 14  9  1  0  0  0
  7  1  1  0  0  0
 24 19  1  0  0  0
 30 25  1  0  0  0
  2  8  1  0  0  0
M  END
> <minimizedAffinity>
30.89413

> <CNNscore>
0.5310840011

> <CNNaffinity>
5.5328950882

> <CNN_VS>
2.9384319782

> <CNNaffinity_variance>
0.1953702569

$$$$
[H]OC1(c2c([H])c([H])c(C([H])([H])C([H])([H])C([H])([H])[H])c([H])c2[H])C([H])([H])C([H])([H])N(C([H])(c2c([H])c([H])c([H])c([H])c2[H])c2c([H])c([H])c([H])c([H])c2[H])C([H])([H])C1([H])[H]


 30 33  0  0  0  0  0  0  0  0999 V2000
   23.4073    7.8659   54.7523 C   0  0  0  0  0  0  0  0  0  0  0  0
   24.2040    6.8831   55.3806 O   0  0  0  0  0  0  0  0  0  0  0  0
   24.1862    8.4232   53.6234 C   0  0  0  0  0  0  0  0  0  0  0  0
   25.5208    8.8748   54.1509 C   0  0  0  0  0  0  0  0  0  0  0  0
   25.5141    9.2398   55.5185 N   0  0  0  0  0  0  0  0  0  0  0  0
   24.3693    9.6899   56.1531 C   0  0  0  0  0  0  0  0  0  0  0  0
   23.1196    8.9378   55.7591 C   0  0  0  0  0  0  0  0  0  0  0  0
   23.9856    5.9907   55.0094 H   0  0  0  0  0  0  0  0  0  0  0  0
   19.8492    5.9783   53.2835 C   0  0  0  0  0  0  0  0  0  0  0  0
   20.7494    5.2694   54.0558 C   0  0  0  0  0  0  0  0  0  0  0  0
   21.9032    5.8654   54.5612 C   0  0  0  0  0  0  0  0  0  0  0  0
   22.1814    7.1949   54.2995 C   0  0  0  0  0  0  0  0  0  0  0  0
   21.2659    7.8782   53.5310 C   0  0  0  0  0  0  0  0  0  0  0  0
   20.1233    7.3057   53.0251 C   0  0  0  0  0  0  0  0  0  0  0  0
   18.7043    5.2666   52.6787 C   0  0  0  0  0  0  0  0  0  0  0  0
   19.6034    2.9861   52.9847 C   0  0  0  0  0  0  0  0  0  0  0  0
   18.4763    3.9176   53.3399 C   0  0  0  0  0  0  0  0  0  0  0  0
   26.6829    8.9065   56.2312 C   0  0  0  0  0  0  0  0  0  0  0  0
   27.8360    8.4769   55.3393 C   0  0  0  0  0  0  0  0  0  0  0  0
   28.9050    9.3477   55.1152 C   0  0  0  0  0  0  0  0  0  0  0  0
   29.9352    9.0112   54.2816 C   0  0  0  0  0  0  0  0  0  0  0  0
   29.8898    7.7756   53.6617 C   0  0  0  0  0  0  0  0  0  0  0  0
   28.8484    6.9232   53.8831 C   0  0  0  0  0  0  0  0  0  0  0  0
   27.7950    7.2791   54.7418 C   0  0  0  0  0  0  0  0  0  0  0  0
   27.2703    9.9277   57.0966 C   0  0  0  0  0  0  0  0  0  0  0  0
   28.0819    9.5683   58.1691 C   0  0  0  0  0  0  0  0  0  0  0  0
   28.7045   10.4943   58.9570 C   0  0  0  0  0  0  0  0  0  0  0  0
   28.5457   11.8540   58.7045 C   0  0  0  0  0  0  0  0  0  0  0  0
   27.7483   12.2273   57.6600 C   0  0  0  0  0  0  0  0  0  0  0  0
   27.1256   11.2660   56.8780 C   0  0  0  0  0  0  0  0  0  0  0  0
 16 17  1  0  0  0
 17 15  1  0  0  0
 15  9  1  0  0  0
  9 10  2  0  0  0
 10 11  1  0  0  0
 11 12  2  0  0  0
 12  1  1  0  0  0
  1  2  1  0  0  0
  1  3  1  0  0  0
  3  4  1  0  0  0
  4  5  1  0  0  0
  5 18  1  0  0  0
 18 19  1  0  0  0
 19 20  2  0  0  0
 20 21  1  0  0  0
 21 22  2  0  0  0
 22 23  1  0  0  0
 23 24  2  0  0  0
 18 25  1  0  0  0
 25 26  2  0  0  0
 26 27  1  0  0  0
 27 28  2  0  0  0
 28 29  1  0  0  0
 29 30  2  0  0  0
  5  6  1  0  0  0
  6  7  1  0  0  0
 12 13  1  0  0  0
 13 14  2  0  0  0
 14  9  1  0  0  0
  7  1  1  0  0  0
 24 19  1  0  0  0
 30 25  1  0  0  0
  2  8  1  0  0  0
M  END
> <minimizedAffinity>
33.57510

> <CNNscore>
0.5239887834

> <CNNaffinity>
5.5936164856

> <CNN_VS>
2.9309923649

> <CNNaffinity_variance>
0.1158996448

$$$$
[H]OC1(c2c([H])c([H])c(C([H])([H])C([H])([H])C([H])([H])[H])c([H])c2[H])C([H])([H])C([H])([H])N(C([H])(c2c([H])c([H])c([H])c([H])c2[H])c2c([H])c([H])c([H])c([H])c2[H])C([H])([H])C1([H])[H]


 30 33  0  0  0  0  0  0  0  0999 V2000
   20.9591    6.1421   53.4061 C   0  0  0  0  0  0  0  0  0  0  0  0
   20.8642    7.4099   54.0218 O   0  0  0  0  0  0  0  0  0  0  0  0
   22.0925    5.4220   54.0297 C   0  0  0  0  0  0  0  0  0  0  0  0
   23.3098    6.3023   53.9492 C   0  0  0  0  0  0  0  0  0  0  0  0
   23.2979    7.2168   52.8688 N   0  0  0  0  0  0  0  0  0  0  0  0
   22.5842    6.9732   51.7081 C   0  0  0  0  0  0  0  0  0  0  0  0
   21.2253    6.3577   51.9473 C   0  0  0  0  0  0  0  0  0  0  0  0
   20.2106    7.3703   54.7656 H   0  0  0  0  0  0  0  0  0  0  0  0
   17.2977    4.0502   54.1797 C   0  0  0  0  0  0  0  0  0  0  0  0
   17.3140    5.4302   54.1114 C   0  0  0  0  0  0  0  0  0  0  0  0
   18.4872    6.1323   53.8422 C   0  0  0  0  0  0  0  0  0  0  0  0
   19.6784    5.4601   53.6354 C   0  0  0  0  0  0  0  0  0  0  0  0
   19.6326    4.0858   53.7052 C   0  0  0  0  0  0  0  0  0  0  0  0
   18.4843    3.3781   53.9695 C   0  0  0  0  0  0  0  0  0  0  0  0
   16.0520    3.3651   54.5823 C   0  0  0  0  0  0  0  0  0  0  0  0
   14.9428    3.9727   52.4603 C   0  0  0  0  0  0  0  0  0  0  0  0
   15.2959    2.8326   53.3766 C   0  0  0  0  0  0  0  0  0  0  0  0
   23.8742    8.4728   53.1431 C   0  0  0  0  0  0  0  0  0  0  0  0
   22.9421    9.4206   53.8798 C   0  0  0  0  0  0  0  0  0  0  0  0
   22.8546    9.3685   55.2730 C   0  0  0  0  0  0  0  0  0  0  0  0
   21.9921   10.1743   55.9632 C   0  0  0  0  0  0  0  0  0  0  0  0
   21.2028   11.0491   55.2389 C   0  0  0  0  0  0  0  0  0  0  0  0
   21.2906   11.1034   53.8789 C   0  0  0  0  0  0  0  0  0  0  0  0
   22.1804   10.2709   53.1797 C   0  0  0  0  0  0  0  0  0  0  0  0
   25.1026    8.5030   53.9349 C   0  0  0  0  0  0  0  0  0  0  0  0
   26.3391    8.2781   53.3360 C   0  0  0  0  0  0  0  0  0  0  0  0
   27.5134    8.3668   54.0281 C   0  0  0  0  0  0  0  0  0  0  0  0
   27.5099    8.6947   55.3810 C   0  0  0  0  0  0  0  0  0  0  0  0
   26.3060    8.9133   55.9885 C   0  0  0  0  0  0  0  0  0  0  0  0
   25.1286    8.8135   55.2625 C   0  0  0  0  0  0  0  0  0  0  0  0
 16 17  1  0  0  0
 17 15  1  0  0  0
 15  9  1  0  0  0
  9 10  2  0  0  0
 10 11  1  0  0  0
 11 12  2  0  0  0
 12  1  1  0  0  0
  1  2  1  0  0  0
  1  3  1  0  0  0
  3  4  1  0  0  0
  4  5  1  0  0  0
  5 18  1  0  0  0
 18 19  1  0  0  0
 19 20  2  0  0  0
 20 21  1  0  0  0
 21 22  2  0  0  0
 22 23  1  0  0  0
 23 24  2  0  0  0
 18 25  1  0  0  0
 25 26  2  0  0  0
 26 27  1  0  0  0
 27 28  2  0  0  0
 28 29  1  0  0  0
 29 30  2  0  0  0
  5  6  1  0  0  0
  6  7  1  0  0  0
 12 13  1  0  0  0
 13 14  2  0  0  0
 14  9  1  0  0  0
  7  1  1  0  0  0
 24 19  1  0  0  0
 30 25  1  0  0  0
  2  8  1  0  0  0
M  END
> <minimizedAffinity>
21.58785

> <CNNscore>
0.5209584832

> <CNNaffinity>
5.9812397957

> <CNN_VS>
3.1159775257

> <CNNaffinity_variance>
0.3036900163

$$$$
[H]OC1(c2c([H])c([H])c(C([H])([H])C([H])([H])C([H])([H])[H])c([H])c2[H])C([H])([H])C([H])([H])N(C([H])(c2c([H])c([H])c([H])c([H])c2[H])c2c([H])c([H])c([H])c([H])c2[H])C([H])([H])C1([H])[H]


 30 33  0  0  0  0  0  0  0  0999 V2000
   21.1125    5.5145   54.0578 C   0  0  0  0  0  0  0  0  0  0  0  0
   20.7155    6.8434   54.3259 O   0  0  0  0  0  0  0  0  0  0  0  0
   21.7738    4.9879   55.2733 C   0  0  0  0  0  0  0  0  0  0  0  0
   22.8617    5.9484   55.6698 C   0  0  0  0  0  0  0  0  0  0  0  0
   23.3980    6.6980   54.5956 N   0  0  0  0  0  0  0  0  0  0  0  0
   23.3728    6.2344   53.2916 C   0  0  0  0  0  0  0  0  0  0  0  0
   22.0820    5.5453   52.9156 C   0  0  0  0  0  0  0  0  0  0  0  0
   19.7749    6.8531   54.6376 H   0  0  0  0  0  0  0  0  0  0  0  0
   17.6310    3.1900   53.1328 C   0  0  0  0  0  0  0  0  0  0  0  0
   17.5077    4.4158   53.7584 C   0  0  0  0  0  0  0  0  0  0  0  0
   18.6223    5.1989   54.0523 C   0  0  0  0  0  0  0  0  0  0  0  0
   19.8940    4.7652   53.7235 C   0  0  0  0  0  0  0  0  0  0  0  0
   19.9873    3.5424   53.0976 C   0  0  0  0  0  0  0  0  0  0  0  0
   18.8985    2.7578   52.8005 C   0  0  0  0  0  0  0  0  0  0  0  0
   16.4279    2.3517   52.9506 C   0  0  0  0  0  0  0  0  0  0  0  0
   15.0414    4.0172   54.1367 C   0  0  0  0  0  0  0  0  0  0  0  0
   15.1669    3.1968   52.8815 C   0  0  0  0  0  0  0  0  0  0  0  0
   23.7528    8.0245   54.9113 C   0  0  0  0  0  0  0  0  0  0  0  0
   25.1943    8.3646   54.5707 C   0  0  0  0  0  0  0  0  0  0  0  0
   25.6384    8.2713   53.2496 C   0  0  0  0  0  0  0  0  0  0  0  0
   26.9400    8.5248   52.9160 C   0  0  0  0  0  0  0  0  0  0  0  0
   27.8114    8.8790   53.9299 C   0  0  0  0  0  0  0  0  0  0  0  0
   27.3776    8.9742   55.2195 C   0  0  0  0  0  0  0  0  0  0  0  0
   26.0379    8.7117   55.5511 C   0  0  0  0  0  0  0  0  0  0  0  0
   22.9827    9.1032   54.2949 C   0  0  0  0  0  0  0  0  0  0  0  0
   22.6655    9.0645   52.9398 C   0  0  0  0  0  0  0  0  0  0  0  0
   21.8894   10.0173   52.3434 C   0  0  0  0  0  0  0  0  0  0  0  0
   21.3787   11.0766   53.0883 C   0  0  0  0  0  0  0  0  0  0  0  0
   21.6837   11.1357   54.4186 C   0  0  0  0  0  0  0  0  0  0  0  0
   22.4765   10.1564   54.9979 C   0  0  0  0  0  0  0  0  0  0  0  0
 16 17  1  0  0  0
 17 15  1  0  0  0
 15  9  1  0  0  0
  9 10  2  0  0  0
 10 11  1  0  0  0
 11 12  2  0  0  0
 12  1  1  0  0  0
  1  2  1  0  0  0
  1  3  1  0  0  0
  3  4  1  0  0  0
  4  5  1  0  0  0
  5 18  1  0  0  0
 18 19  1  0  0  0
 19 20  2  0  0  0
 20 21  1  0  0  0
 21 22  2  0  0  0
 22 23  1  0  0  0
 23 24  2  0  0  0
 18 25  1  0  0  0
 25 26  2  0  0  0
 26 27  1  0  0  0
 27 28  2  0  0  0
 28 29  1  0  0  0
 29 30  2  0  0  0
  5  6  1  0  0  0
  6  7  1  0  0  0
 12 13  1  0  0  0
 13 14  2  0  0  0
 14  9  1  0  0  0
  7  1  1  0  0  0
 24 19  1  0  0  0
 30 25  1  0  0  0
  2  8  1  0  0  0
M  END
> <minimizedAffinity>
24.66601

> <CNNscore>
0.5068542361

> <CNNaffinity>
5.8453383446

> <CNN_VS>
2.9627344608

> <CNNaffinity_variance>
0.2984298766

$$$$
[H]OC1(c2c([H])c([H])c(C([H])([H])C([H])([H])C([H])([H])[H])c([H])c2[H])C([H])([H])C([H])([H])N(C([H])(c2c([H])c([H])c([H])c([H])c2[H])c2c([H])c([H])c([H])c([H])c2[H])C([H])([H])C1([H])[H]


 30 33  0  0  0  0  0  0  0  0999 V2000
   20.9195    5.5555   54.2131 C   0  0  0  0  0  0  0  0  0  0  0  0
   20.5965    6.8920   53.8894 O   0  0  0  0  0  0  0  0  0  0  0  0
   21.1419    5.4872   55.6752 C   0  0  0  0  0  0  0  0  0  0  0  0
   22.1573    6.5337   56.0454 C   0  0  0  0  0  0  0  0  0  0  0  0
   23.0554    6.8692   55.0040 N   0  0  0  0  0  0  0  0  0  0  0  0
   23.3651    5.9826   53.9871 C   0  0  0  0  0  0  0  0  0  0  0  0
   22.1777    5.1963   53.4828 C   0  0  0  0  0  0  0  0  0  0  0  0
   19.6118    7.0019   53.8744 H   0  0  0  0  0  0  0  0  0  0  0  0
   17.6974    3.0061   52.9888 C   0  0  0  0  0  0  0  0  0  0  0  0
   17.4707    4.0456   53.8703 C   0  0  0  0  0  0  0  0  0  0  0  0
   18.4972    4.8999   54.2685 C   0  0  0  0  0  0  0  0  0  0  0  0
   19.7828    4.7276   53.7882 C   0  0  0  0  0  0  0  0  0  0  0  0
   19.9795    3.6868   52.9085 C   0  0  0  0  0  0  0  0  0  0  0  0
   18.9785    2.8354   52.5056 C   0  0  0  0  0  0  0  0  0  0  0  0
   16.5995    2.0627   52.6922 C   0  0  0  0  0  0  0  0  0  0  0  0
   14.9453    3.8626   53.0483 C   0  0  0  0  0  0  0  0  0  0  0  0
   15.3212    2.4526   53.4153 C   0  0  0  0  0  0  0  0  0  0  0  0
   23.4334    8.2255   54.9551 C   0  0  0  0  0  0  0  0  0  0  0  0
   24.8843    8.4372   54.5552 C   0  0  0  0  0  0  0  0  0  0  0  0
   25.2712    8.2700   53.2234 C   0  0  0  0  0  0  0  0  0  0  0  0
   26.5760    8.4069   52.8381 C   0  0  0  0  0  0  0  0  0  0  0  0
   27.5093    8.7180   53.8102 C   0  0  0  0  0  0  0  0  0  0  0  0
   27.1317    8.8853   55.1100 C   0  0  0  0  0  0  0  0  0  0  0  0
   25.7882    8.7424   55.4950 C   0  0  0  0  0  0  0  0  0  0  0  0
   22.6902    9.1104   54.0599 C   0  0  0  0  0  0  0  0  0  0  0  0
   22.2525   10.3577   54.4969 C   0  0  0  0  0  0  0  0  0  0  0  0
   21.6170   11.2400   53.6702 C   0  0  0  0  0  0  0  0  0  0  0  0
   21.3853   10.9136   52.3370 C   0  0  0  0  0  0  0  0  0  0  0  0
   21.8020    9.6917   51.8903 C   0  0  0  0  0  0  0  0  0  0  0  0
   22.4421    8.8138   52.7522 C   0  0  0  0  0  0  0  0  0  0  0  0
 16 17  1  0  0  0
 17 15  1  0  0  0
 15  9  1  0  0  0
  9 10  2  0  0  0
 10 11  1  0  0  0
 11 12  2  0  0  0
 12  1  1  0  0  0
  1  2  1  0  0  0
  1  3  1  0  0  0
  3  4  1  0  0  0
  4  5  1  0  0  0
  5 18  1  0  0  0
 18 19  1  0  0  0
 19 20  2  0  0  0
 20 21  1  0  0  0
 21 22  2  0  0  0
 22 23  1  0  0  0
 23 24  2  0  0  0
 18 25  1  0  0  0
 25 26  2  0  0  0
 26 27  1  0  0  0
 27 28  2  0  0  0
 28 29  1  0  0  0
 29 30  2  0  0  0
  5  6  1  0  0  0
  6  7  1  0  0  0
 12 13  1  0  0  0
 13 14  2  0  0  0
 14  9  1  0  0  0
  7  1  1  0  0  0
 24 19  1  0  0  0
 30 25  1  0  0  0
  2  8  1  0  0  0
M  END
> <minimizedAffinity>
24.53974

> <CNNscore>
0.4907337725

> <CNNaffinity>
5.8514699936

> <CNN_VS>
2.8715138435

> <CNNaffinity_variance>
0.2148049176

$$$$
[H]OC1(c2c([H])c([H])c(C([H])([H])C([H])([H])C([H])([H])[H])c([H])c2[H])C([H])([H])C([H])([H])N(C([H])(c2c([H])c([H])c([H])c([H])c2[H])c2c([H])c([H])c([H])c([H])c2[H])C([H])([H])C1([H])[H]


 30 33  0  0  0  0  0  0  0  0999 V2000
   24.0367    8.3382   55.2902 C   0  0  0  0  0  0  0  0  0  0  0  0
   25.1690    7.5180   55.0892 O   0  0  0  0  0  0  0  0  0  0  0  0
   24.3555    9.6839   54.7617 C   0  0  0  0  0  0  0  0  0  0  0  0
   25.6409   10.1444   55.3934 C   0  0  0  0  0  0  0  0  0  0  0  0
   25.8983    9.5837   56.6673 N   0  0  0  0  0  0  0  0  0  0  0  0
   24.8803    9.1410   57.4944 C   0  0  0  0  0  0  0  0  0  0  0  0
   23.7772    8.4114   56.7642 C   0  0  0  0  0  0  0  0  0  0  0  0
   25.0731    7.0215   54.2371 H   0  0  0  0  0  0  0  0  0  0  0  0
   20.8062    6.3716   53.2712 C   0  0  0  0  0  0  0  0  0  0  0  0
   20.6882    7.6927   53.6585 C   0  0  0  0  0  0  0  0  0  0  0  0
   21.7308    8.3598   54.2987 C   0  0  0  0  0  0  0  0  0  0  0  0
   22.9224    7.7107   54.5672 C   0  0  0  0  0  0  0  0  0  0  0  0
   23.0140    6.3965   54.1670 C   0  0  0  0  0  0  0  0  0  0  0  0
   21.9957    5.7239   53.5346 C   0  0  0  0  0  0  0  0  0  0  0  0
   19.6301    5.6817   52.7017 C   0  0  0  0  0  0  0  0  0  0  0  0
   18.7001    3.8143   54.0250 C   0  0  0  0  0  0  0  0  0  0  0  0
   19.6888    4.1842   52.9526 C   0  0  0  0  0  0  0  0  0  0  0  0
   27.2537    9.3086   56.9360 C   0  0  0  0  0  0  0  0  0  0  0  0
   28.1736    9.5818   55.7575 C   0  0  0  0  0  0  0  0  0  0  0  0
   28.1993    8.6995   54.6748 C   0  0  0  0  0  0  0  0  0  0  0  0
   29.0486    8.8904   53.6204 C   0  0  0  0  0  0  0  0  0  0  0  0
   29.8877    9.9893   53.6551 C   0  0  0  0  0  0  0  0  0  0  0  0
   29.8603   10.8534   54.7099 C   0  0  0  0  0  0  0  0  0  0  0  0
   28.9836   10.6478   55.7883 C   0  0  0  0  0  0  0  0  0  0  0  0
   27.8875   10.0159   58.0472 C   0  0  0  0  0  0  0  0  0  0  0  0
   28.5280    9.3125   59.0637 C   0  0  0  0  0  0  0  0  0  0  0  0
   29.1909    9.9389   60.0804 C   0  0  0  0  0  0  0  0  0  0  0  0
   29.2504   11.3288   60.1309 C   0  0  0  0  0  0  0  0  0  0  0  0
   28.6229   12.0373   59.1458 C   0  0  0  0  0  0  0  0  0  0  0  0
   27.9542   11.3756   58.1268 C   0  0  0  0  0  0  0  0  0  0  0  0
 16 17  1  0  0  0
 17 15  1  0  0  0
 15  9  1  0  0  0
  9 10  2  0  0  0
 10 11  1  0  0  0
 11 12  2  0  0  0
 12  1  1  0  0  0
  1  2  1  0  0  0
  1  3  1  0  0  0
  3  4  1  0  0  0
  4  5  1  0  0  0
  5 18  1  0  0  0
 18 19  1  0  0  0
 19 20  2  0  0  0
 20 21  1  0  0  0
 21 22  2  0  0  0
 22 23  1  0  0  0
 23 24  2  0  0  0
 18 25  1  0  0  0
 25 26  2  0  0  0
 26 27  1  0  0  0
 27 28  2  0  0  0
 28 29  1  0  0  0
 29 30  2  0  0  0
  5  6  1  0  0  0
  6  7  1  0  0  0
 12 13  1  0  0  0
 13 14  2  0  0  0
 14  9  1  0  0  0
  7  1  1  0  0  0
 24 19  1  0  0  0
 30 25  1  0  0  0
  2  8  1  0  0  0
M  END
> <minimizedAffinity>
37.21216

> <CNNscore>
0.4843019247

> <CNNaffinity>
5.4472551346

> <CNN_VS>
2.6381161213

> <CNNaffinity_variance>
0.1326800436

$$$$
[H]OC1(c2c([H])c([H])c(C([H])([H])C([H])([H])C([H])([H])[H])c([H])c2[H])C([H])([H])C([H])([H])N(C([H])(c2c([H])c([H])c([H])c([H])c2[H])c2c([H])c([H])c([H])c([H])c2[H])C([H])([H])C1([H])[H]


 30 33  0  0  0  0  0  0  0  0999 V2000
   21.0708    5.2588   53.6667 C   0  0  0  0  0  0  0  0  0  0  0  0
   20.8429    6.2101   54.6857 O   0  0  0  0  0  0  0  0  0  0  0  0
   22.1753    4.3785   54.1109 C   0  0  0  0  0  0  0  0  0  0  0  0
   23.3426    5.2465   54.4947 C   0  0  0  0  0  0  0  0  0  0  0  0
   23.3867    6.4935   53.8265 N   0  0  0  0  0  0  0  0  0  0  0  0
   22.8076    6.6817   52.5834 C   0  0  0  0  0  0  0  0  0  0  0  0
   21.4688    5.9994   52.4263 C   0  0  0  0  0  0  0  0  0  0  0  0
   20.1216    5.8895   55.2847 H   0  0  0  0  0  0  0  0  0  0  0  0
   17.3310    3.2424   53.0940 C   0  0  0  0  0  0  0  0  0  0  0  0
   18.5075    2.6761   52.6418 C   0  0  0  0  0  0  0  0  0  0  0  0
   19.7377    3.3023   52.8327 C   0  0  0  0  0  0  0  0  0  0  0  0
   19.8144    4.5196   53.4852 C   0  0  0  0  0  0  0  0  0  0  0  0
   18.6277    5.0589   53.9286 C   0  0  0  0  0  0  0  0  0  0  0  0
   17.4063    4.4546   53.7487 C   0  0  0  0  0  0  0  0  0  0  0  0
   16.0463    2.5921   52.7623 C   0  0  0  0  0  0  0  0  0  0  0  0
   15.1269    0.3284   53.1271 C   0  0  0  0  0  0  0  0  0  0  0  0
   15.6594    1.5600   53.8082 C   0  0  0  0  0  0  0  0  0  0  0  0
   23.8605    7.5702   54.6019 C   0  0  0  0  0  0  0  0  0  0  0  0
   25.2568    8.0288   54.2148 C   0  0  0  0  0  0  0  0  0  0  0  0
   25.5686    8.2538   52.8718 C   0  0  0  0  0  0  0  0  0  0  0  0
   26.8274    8.6216   52.4848 C   0  0  0  0  0  0  0  0  0  0  0  0
   27.7908    8.7660   53.4666 C   0  0  0  0  0  0  0  0  0  0  0  0
   27.4860    8.5504   54.7784 C   0  0  0  0  0  0  0  0  0  0  0  0
   26.1892    8.1730   55.1651 C   0  0  0  0  0  0  0  0  0  0  0  0
   23.0760    8.8036   54.6105 C   0  0  0  0  0  0  0  0  0  0  0  0
   21.9365    8.9259   53.8200 C   0  0  0  0  0  0  0  0  0  0  0  0
   21.1394   10.0346   53.8533 C   0  0  0  0  0  0  0  0  0  0  0  0
   21.4465   11.0971   54.6986 C   0  0  0  0  0  0  0  0  0  0  0  0
   22.5641   10.9989   55.4781 C   0  0  0  0  0  0  0  0  0  0  0  0
   23.3575    9.8628   55.4220 C   0  0  0  0  0  0  0  0  0  0  0  0
 16 17  1  0  0  0
 17 15  1  0  0  0
 15  9  1  0  0  0
  9 10  2  0  0  0
 10 11  1  0  0  0
 11 12  2  0  0  0
 12  1  1  0  0  0
  1  2  1  0  0  0
  1  3  1  0  0  0
  3  4  1  0  0  0
  4  5  1  0  0  0
  5 18  1  0  0  0
 18 19  1  0  0  0
 19 20  2  0  0  0
 20 21  1  0  0  0
 21 22  2  0  0  0
 22 23  1  0  0  0
 23 24  2  0  0  0
 18 25  1  0  0  0
 25 26  2  0  0  0
 26 27  1  0  0  0
 27 28  2  0  0  0
 28 29  1  0  0  0
 29 30  2  0  0  0
  5  6  1  0  0  0
  6  7  1  0  0  0
 12 13  1  0  0  0
 13 14  2  0  0  0
 14  9  1  0  0  0
  7  1  1  0  0  0
 24 19  1  0  0  0
 30 25  1  0  0  0
  2  8  1  0  0  0
M  END
> <minimizedAffinity>
34.88492

> <CNNscore>
0.4780777693

> <CNNaffinity>
5.8386101723

> <CNN_VS>
2.7913098335

> <CNNaffinity_variance>
0.2345509827

$$$$
[H]OC1(c2c([H])c([H])c(C([H])([H])C([H])([H])C([H])([H])[H])c([H])c2[H])C([H])([H])C([H])([H])N(C([H])(c2c([H])c([H])c([H])c([H])c2[H])c2c([H])c([H])c([H])c([H])c2[H])C([H])([H])C1([H])[H]


 30 33  0  0  0  0  0  0  0  0999 V2000
   25.2535    8.2175   54.7046 C   0  0  0  0  0  0  0  0  0  0  0  0
   24.2284    9.1873   54.6413 O   0  0  0  0  0  0  0  0  0  0  0  0
   25.8249    8.0766   53.3461 C   0  0  0  0  0  0  0  0  0  0  0  0
   24.6975    7.8030   52.3882 C   0  0  0  0  0  0  0  0  0  0  0  0
   23.5764    7.1669   52.9733 N   0  0  0  0  0  0  0  0  0  0  0  0
   23.6883    6.3732   54.1018 C   0  0  0  0  0  0  0  0  0  0  0  0
   24.6366    6.9235   55.1412 C   0  0  0  0  0  0  0  0  0  0  0  0
   24.5947   10.0749   54.8862 H   0  0  0  0  0  0  0  0  0  0  0  0
   28.2413    9.6913   57.4030 C   0  0  0  0  0  0  0  0  0  0  0  0
   26.9033    9.9496   57.6318 C   0  0  0  0  0  0  0  0  0  0  0  0
   25.9120    9.4655   56.7805 C   0  0  0  0  0  0  0  0  0  0  0  0
   26.2442    8.7073   55.6723 C   0  0  0  0  0  0  0  0  0  0  0  0
   27.5839    8.4619   55.4705 C   0  0  0  0  0  0  0  0  0  0  0  0
   28.5740    8.9316   56.3002 C   0  0  0  0  0  0  0  0  0  0  0  0
   29.2547   10.3256   58.2712 C   0  0  0  0  0  0  0  0  0  0  0  0
   29.3090   11.5886   60.3937 C   0  0  0  0  0  0  0  0  0  0  0  0
   28.8135   10.3348   59.7253 C   0  0  0  0  0  0  0  0  0  0  0  0
   22.3267    7.5724   52.4646 C   0  0  0  0  0  0  0  0  0  0  0  0
   21.1735    6.6899   52.9131 C   0  0  0  0  0  0  0  0  0  0  0  0
   19.9118    7.2491   53.1293 C   0  0  0  0  0  0  0  0  0  0  0  0
   18.8648    6.4926   53.5777 C   0  0  0  0  0  0  0  0  0  0  0  0
   19.0906    5.1485   53.8130 C   0  0  0  0  0  0  0  0  0  0  0  0
   20.3212    4.6011   53.5983 C   0  0  0  0  0  0  0  0  0  0  0  0
   21.3901    5.3875   53.1373 C   0  0  0  0  0  0  0  0  0  0  0  0
   21.8712    8.9273   52.7705 C   0  0  0  0  0  0  0  0  0  0  0  0
   21.5108    9.2791   54.0685 C   0  0  0  0  0  0  0  0  0  0  0  0
   21.1474   10.5516   54.4066 C   0  0  0  0  0  0  0  0  0  0  0  0
   21.1290   11.5575   53.4445 C   0  0  0  0  0  0  0  0  0  0  0  0
   21.4736   11.2311   52.1635 C   0  0  0  0  0  0  0  0  0  0  0  0
   21.8355    9.9302   51.8472 C   0  0  0  0  0  0  0  0  0  0  0  0
 16 17  1  0  0  0
 17 15  1  0  0  0
 15  9  1  0  0  0
  9 10  2  0  0  0
 10 11  1  0  0  0
 11 12  2  0  0  0
 12  1  1  0  0  0
  1  2  1  0  0  0
  1  3  1  0  0  0
  3  4  1  0  0  0
  4  5  1  0  0  0
  5 18  1  0  0  0
 18 19  1  0  0  0
 19 20  2  0  0  0
 20 21  1  0  0  0
 21 22  2  0  0  0
 22 23  1  0  0  0
 23 24  2  0  0  0
 18 25  1  0  0  0
 25 26  2  0  0  0
 26 27  1  0  0  0
 27 28  2  0  0  0
 28 29  1  0  0  0
 29 30  2  0  0  0
  5  6  1  0  0  0
  6  7  1  0  0  0
 12 13  1  0  0  0
 13 14  2  0  0  0
 14  9  1  0  0  0
  7  1  1  0  0  0
 24 19  1  0  0  0
 30 25  1  0  0  0
  2  8  1  0  0  0
M  END
> <minimizedAffinity>
18.94302

> <CNNscore>
0.4771506786

> <CNNaffinity>
5.6700043678

> <CNN_VS>
2.7054464817

> <CNNaffinity_variance>
0.1399699599

$$$$
[H]N=C(c1c([H])c([H])c([H])c(Oc2nc(Oc3c([H])c([H])c([H])c(N([H])C(=O)C([H])([H])[H])c3[H])c(F)c(C([H])([H])[H])c2F)c1[H])N([H])[H]


 34 36  0  0  0  0  0  0  0  0999 V2000
   27.3449    8.5235   53.1172 C   0  0  0  0  0  0  0  0  0  0  0  0
   26.0926    8.1369   53.4615 N   0  0  0  0  0  0  0  0  0  0  0  0
   25.5707    8.2583   54.6844 C   0  0  0  0  0  0  0  0  0  0  0  0
   26.3484    8.8148   55.6788 C   0  0  0  0  0  0  0  0  0  0  0  0
   25.8336    8.9481   56.9356 F   0  0  0  0  0  0  0  0  0  0  0  0
   27.6314    9.2328   55.4098 C   0  0  0  0  0  0  0  0  0  0  0  0
   28.4869    9.8344   56.4629 C   0  0  0  0  0  0  0  0  0  0  0  0
   28.1035    9.0763   54.1258 C   0  0  0  0  0  0  0  0  0  0  0  0
   29.3830    9.5061   53.9097 F   0  0  0  0  0  0  0  0  0  0  0  0
   27.8097    8.3677   51.8468 O   0  0  0  0  0  0  0  0  0  0  0  0
   28.3697    9.9329   48.5749 C   0  0  0  0  0  0  0  0  0  0  0  0
   28.6429   11.2071   49.0076 C   0  0  0  0  0  0  0  0  0  0  0  0
   28.6515   11.5782   50.3374 C   0  0  0  0  0  0  0  0  0  0  0  0
   28.3779   10.6543   51.3006 C   0  0  0  0  0  0  0  0  0  0  0  0
   28.0963    9.3613   50.9314 C   0  0  0  0  0  0  0  0  0  0  0  0
   28.0951    9.0220   49.6037 C   0  0  0  0  0  0  0  0  0  0  0  0
   28.7199    8.0590   45.2147 C   0  0  0  0  0  0  0  0  0  0  0  0
   28.8282    8.3096   46.6896 C   0  0  0  0  0  0  0  0  0  0  0  0
   29.3461    7.4055   47.3552 O   0  0  0  0  0  0  0  0  0  0  0  0
   28.3626    9.4977   47.2309 N   0  0  0  0  0  0  0  0  0  0  0  0
   27.9299   10.2165   46.5485 H   0  0  0  0  0  0  0  0  0  0  0  0
   24.2682    7.8282   54.9355 O   0  0  0  0  0  0  0  0  0  0  0  0
   23.1628    8.4819   54.4266 C   0  0  0  0  0  0  0  0  0  0  0  0
   22.6665    9.6631   54.9612 C   0  0  0  0  0  0  0  0  0  0  0  0
   21.5639   10.2756   54.4190 C   0  0  0  0  0  0  0  0  0  0  0  0
   20.9109    9.7242   53.3122 C   0  0  0  0  0  0  0  0  0  0  0  0
   21.3785    8.5648   52.7687 C   0  0  0  0  0  0  0  0  0  0  0  0
   22.5117    7.9571   53.3445 C   0  0  0  0  0  0  0  0  0  0  0  0
   20.7433    7.9426   51.6171 C   0  0  0  0  0  0  0  0  0  0  0  0
   21.3788    7.7140   50.5474 N   0  0  0  0  0  0  0  0  0  0  0  0
   19.3756    7.5801   51.6904 N   0  0  0  0  0  0  0  0  0  0  0  0
   22.3627    7.9449   50.4172 H   0  0  0  0  0  0  0  0  0  0  0  0
   18.7202    7.9730   50.9952 H   0  0  0  0  0  0  0  0  0  0  0  0
   19.0527    6.9345   52.4297 H   0  0  0  0  0  0  0  0  0  0  0  0
 17 18  1  0  0  0
 18 19  2  0  0  0
 18 20  1  0  0  0
 20 11  1  0  0  0
 11 12  2  0  0  0
 12 13  1  0  0  0
 13 14  2  0  0  0
 14 15  1  0  0  0
 15 10  1  0  0  0
 10  1  1  0  0  0
  1  2  2  0  0  0
  2  3  1  0  0  0
  3 22  1  0  0  0
 22 23  1  0  0  0
 23 24  2  0  0  0
 24 25  1  0  0  0
 25 26  2  0  0  0
 26 27  1  0  0  0
 27 29  1  0  0  0
 29 30  2  0  0  0
 29 31  1  0  0  0
 27 28  2  0  0  0
  3  4  2  0  0  0
  4  5  1  0  0  0
  4  6  1  0  0  0
  6  7  1  0  0  0
  6  8  2  0  0  0
  8  9  1  0  0  0
 15 16  2  0  0  0
 16 11  1  0  0  0
  8  1  1  0  0  0
 28 23  1  0  0  0
 20 21  1  0  0  0
 30 32  1  0  0  0
 31 33  1  0  0  0
 31 34  1  0  0  0
M  END
> <minimizedAffinity>
18.28449

> <CNNscore>
0.7341285944

> <CNNaffinity>
6.6653442383

> <CNN_VS>
4.8932199478

> <CNNaffinity_variance>
0.1434524357

$$$$
[H]N=C(c1c([H])c([H])c([H])c(Oc2nc(Oc3c([H])c([H])c([H])c(N([H])C(=O)C([H])([H])[H])c3[H])c(F)c(C([H])([H])[H])c2F)c1[H])N([H])[H]


 34 36  0  0  0  0  0  0  0  0999 V2000
   27.3805   10.3299   56.4691 C   0  0  0  0  0  0  0  0  0  0  0  0
   26.0462   10.1655   56.6387 N   0  0  0  0  0  0  0  0  0  0  0  0
   25.3110    9.2404   56.0170 C   0  0  0  0  0  0  0  0  0  0  0  0
   25.9393    8.3836   55.1370 C   0  0  0  0  0  0  0  0  0  0  0  0
   25.2058    7.4309   54.4916 F   0  0  0  0  0  0  0  0  0  0  0  0
   27.2924    8.4856   54.9095 C   0  0  0  0  0  0  0  0  0  0  0  0
   27.9903    7.5754   53.9677 C   0  0  0  0  0  0  0  0  0  0  0  0
   27.9869    9.4636   55.5858 C   0  0  0  0  0  0  0  0  0  0  0  0
   29.3274    9.5244   55.3252 F   0  0  0  0  0  0  0  0  0  0  0  0
   28.0653   11.2978   57.1389 O   0  0  0  0  0  0  0  0  0  0  0  0
   29.0815   10.0486   60.4367 C   0  0  0  0  0  0  0  0  0  0  0  0
   29.0000   11.2303   61.1313 C   0  0  0  0  0  0  0  0  0  0  0  0
   28.6229   12.4292   60.5598 C   0  0  0  0  0  0  0  0  0  0  0  0
   28.3074   12.4792   59.2354 C   0  0  0  0  0  0  0  0  0  0  0  0
   28.3698   11.3296   58.4856 C   0  0  0  0  0  0  0  0  0  0  0  0
   28.7473   10.1540   59.0799 C   0  0  0  0  0  0  0  0  0  0  0  0
   29.8822    6.3359   61.1437 C   0  0  0  0  0  0  0  0  0  0  0  0
   29.4554    7.5475   60.3693 C   0  0  0  0  0  0  0  0  0  0  0  0
   29.1257    7.3499   59.1942 O   0  0  0  0  0  0  0  0  0  0  0  0
   29.4462    8.7943   60.9748 N   0  0  0  0  0  0  0  0  0  0  0  0
   29.7540    8.8440   62.0104 H   0  0  0  0  0  0  0  0  0  0  0  0
   23.9409    9.1544   56.2620 O   0  0  0  0  0  0  0  0  0  0  0  0
   22.9986    9.3656   55.2743 C   0  0  0  0  0  0  0  0  0  0  0  0
   22.5462   10.6276   54.9139 C   0  0  0  0  0  0  0  0  0  0  0  0
   21.6076   10.7859   53.9245 C   0  0  0  0  0  0  0  0  0  0  0  0
   21.0820    9.6777   53.2530 C   0  0  0  0  0  0  0  0  0  0  0  0
   21.5097    8.4275   53.5882 C   0  0  0  0  0  0  0  0  0  0  0  0
   22.4736    8.2934   54.6070 C   0  0  0  0  0  0  0  0  0  0  0  0
   21.0013    7.2359   52.9261 C   0  0  0  0  0  0  0  0  0  0  0  0
   20.3318    7.3025   51.8548 N   0  0  0  0  0  0  0  0  0  0  0  0
   21.2606    5.9632   53.4921 N   0  0  0  0  0  0  0  0  0  0  0  0
   20.1042    8.1787   51.3871 H   0  0  0  0  0  0  0  0  0  0  0  0
   20.4611    5.3547   53.7323 H   0  0  0  0  0  0  0  0  0  0  0  0
   22.2350    5.6613   53.6563 H   0  0  0  0  0  0  0  0  0  0  0  0
 17 18  1  0  0  0
 18 19  2  0  0  0
 18 20  1  0  0  0
 20 11  1  0  0  0
 11 12  2  0  0  0
 12 13  1  0  0  0
 13 14  2  0  0  0
 14 15  1  0  0  0
 15 10  1  0  0  0
 10  1  1  0  0  0
  1  2  2  0  0  0
  2  3  1  0  0  0
  3 22  1  0  0  0
 22 23  1  0  0  0
 23 24  2  0  0  0
 24 25  1  0  0  0
 25 26  2  0  0  0
 26 27  1  0  0  0
 27 29  1  0  0  0
 29 30  2  0  0  0
 29 31  1  0  0  0
 27 28  2  0  0  0
  3  4  2  0  0  0
  4  5  1  0  0  0
  4  6  1  0  0  0
  6  7  1  0  0  0
  6  8  2  0  0  0
  8  9  1  0  0  0
 15 16  2  0  0  0
 16 11  1  0  0  0
  8  1  1  0  0  0
 28 23  1  0  0  0
 20 21  1  0  0  0
 30 32  1  0  0  0
 31 33  1  0  0  0
 31 34  1  0  0  0
M  END
> <minimizedAffinity>
4.79189

> <CNNscore>
0.6922016144

> <CNNaffinity>
6.4945726395

> <CNN_VS>
4.4955534935

> <CNNaffinity_variance>
0.2869318724

$$$$
[H]N=C(c1c([H])c([H])c([H])c(Oc2nc(Oc3c([H])c([H])c([H])c(N([H])C(=O)C([H])([H])[H])c3[H])c(F)c(C([H])([H])[H])c2F)c1[H])N([H])[H]


 34 36  0  0  0  0  0  0  0  0999 V2000
   28.1206    9.1005   52.7289 C   0  0  0  0  0  0  0  0  0  0  0  0
   26.9420    8.4591   52.5397 N   0  0  0  0  0  0  0  0  0  0  0  0
   26.1323    8.0551   53.5215 C   0  0  0  0  0  0  0  0  0  0  0  0
   26.5076    8.3007   54.8261 C   0  0  0  0  0  0  0  0  0  0  0  0
   25.6940    7.8961   55.8442 F   0  0  0  0  0  0  0  0  0  0  0  0
   27.6904    8.9472   55.1022 C   0  0  0  0  0  0  0  0  0  0  0  0
   28.1153    9.2225   56.4973 C   0  0  0  0  0  0  0  0  0  0  0  0
   28.4754    9.3350   54.0395 C   0  0  0  0  0  0  0  0  0  0  0  0
   29.6396    9.9725   54.3658 F   0  0  0  0  0  0  0  0  0  0  0  0
   28.8953    9.4830   51.6764 O   0  0  0  0  0  0  0  0  0  0  0  0
   27.3449   11.7235   49.2176 C   0  0  0  0  0  0  0  0  0  0  0  0
   27.5702   10.9704   48.0917 C   0  0  0  0  0  0  0  0  0  0  0  0
   28.2141    9.7491   48.1044 C   0  0  0  0  0  0  0  0  0  0  0  0
   28.6644    9.2325   49.2819 C   0  0  0  0  0  0  0  0  0  0  0  0
   28.4695    9.9387   50.4441 C   0  0  0  0  0  0  0  0  0  0  0  0
   27.8270   11.1483   50.4010 C   0  0  0  0  0  0  0  0  0  0  0  0
   25.7234   15.1610   48.5255 C   0  0  0  0  0  0  0  0  0  0  0  0
   26.4607   13.8852   48.2455 C   0  0  0  0  0  0  0  0  0  0  0  0
   26.8417   13.7252   47.0802 O   0  0  0  0  0  0  0  0  0  0  0  0
   26.6796   12.9689   49.2623 N   0  0  0  0  0  0  0  0  0  0  0  0
   26.3009   13.2190   50.2439 H   0  0  0  0  0  0  0  0  0  0  0  0
   24.9380    7.4016   53.2196 O   0  0  0  0  0  0  0  0  0  0  0  0
   23.7026    7.9528   53.4989 C   0  0  0  0  0  0  0  0  0  0  0  0
   23.5333    9.0611   54.3178 C   0  0  0  0  0  0  0  0  0  0  0  0
   22.2834    9.5725   54.5651 C   0  0  0  0  0  0  0  0  0  0  0  0
   21.1464    8.9890   53.9975 C   0  0  0  0  0  0  0  0  0  0  0  0
   21.2858    7.8998   53.1898 C   0  0  0  0  0  0  0  0  0  0  0  0
   22.5797    7.3952   52.9526 C   0  0  0  0  0  0  0  0  0  0  0  0
   20.1417    7.2489   52.5698 C   0  0  0  0  0  0  0  0  0  0  0  0
   19.4846    6.3465   53.1648 N   0  0  0  0  0  0  0  0  0  0  0  0
   19.7481    7.6328   51.2640 N   0  0  0  0  0  0  0  0  0  0  0  0
   19.7047    6.0162   54.1033 H   0  0  0  0  0  0  0  0  0  0  0  0
   19.7087    6.9116   50.5255 H   0  0  0  0  0  0  0  0  0  0  0  0
   19.5078    8.6183   51.0673 H   0  0  0  0  0  0  0  0  0  0  0  0
 17 18  1  0  0  0
 18 19  2  0  0  0
 18 20  1  0  0  0
 20 11  1  0  0  0
 11 12  2  0  0  0
 12 13  1  0  0  0
 13 14  2  0  0  0
 14 15  1  0  0  0
 15 10  1  0  0  0
 10  1  1  0  0  0
  1  2  2  0  0  0
  2  3  1  0  0  0
  3 22  1  0  0  0
 22 23  1  0  0  0
 23 24  2  0  0  0
 24 25  1  0  0  0
 25 26  2  0  0  0
 26 27  1  0  0  0
 27 29  1  0  0  0
 29 30  2  0  0  0
 29 31  1  0  0  0
 27 28  2  0  0  0
  3  4  2  0  0  0
  4  5  1  0  0  0
  4  6  1  0  0  0
  6  7  1  0  0  0
  6  8  2  0  0  0
  8  9  1  0  0  0
 15 16  2  0  0  0
 16 11  1  0  0  0
  8  1  1  0  0  0
 28 23  1  0  0  0
 20 21  1  0  0  0
 30 32  1  0  0  0
 31 33  1  0  0  0
 31 34  1  0  0  0
M  END
> <minimizedAffinity>
24.65579

> <CNNscore>
0.6850323081

> <CNNaffinity>
6.4369950294

> <CNN_VS>
4.4095497131

> <CNNaffinity_variance>
0.1010853276

$$$$
[H]N=C(c1c([H])c([H])c([H])c(Oc2nc(Oc3c([H])c([H])c([H])c(N([H])C(=O)C([H])([H])[H])c3[H])c(F)c(C([H])([H])[H])c2F)c1[H])N([H])[H]


 34 36  0  0  0  0  0  0  0  0999 V2000
   25.1786    7.7553   54.6290 C   0  0  0  0  0  0  0  0  0  0  0  0
   25.9639    7.9263   55.7199 N   0  0  0  0  0  0  0  0  0  0  0  0
   27.1887    8.4574   55.6969 C   0  0  0  0  0  0  0  0  0  0  0  0
   27.7054    8.8660   54.4848 C   0  0  0  0  0  0  0  0  0  0  0  0
   28.9555    9.4116   54.4397 F   0  0  0  0  0  0  0  0  0  0  0  0
   26.9704    8.7265   53.3301 C   0  0  0  0  0  0  0  0  0  0  0  0
   27.5049    9.1587   52.0147 C   0  0  0  0  0  0  0  0  0  0  0  0
   25.7147    8.1703   53.4295 C   0  0  0  0  0  0  0  0  0  0  0  0
   25.0253    8.0527   52.2551 F   0  0  0  0  0  0  0  0  0  0  0  0
   23.9370    7.2050   54.7297 O   0  0  0  0  0  0  0  0  0  0  0  0
   20.5327    6.8757   53.3991 C   0  0  0  0  0  0  0  0  0  0  0  0
   20.5778    7.8962   52.4814 C   0  0  0  0  0  0  0  0  0  0  0  0
   21.6859    8.6944   52.2785 C   0  0  0  0  0  0  0  0  0  0  0  0
   22.8147    8.4860   53.0124 C   0  0  0  0  0  0  0  0  0  0  0  0
   22.8325    7.4796   53.9475 C   0  0  0  0  0  0  0  0  0  0  0  0
   21.7176    6.7032   54.1269 C   0  0  0  0  0  0  0  0  0  0  0  0
   18.0720    3.9330   53.8578 C   0  0  0  0  0  0  0  0  0  0  0  0
   19.3629    4.6389   53.5660 C   0  0  0  0  0  0  0  0  0  0  0  0
   20.3205    3.9148   53.2706 O   0  0  0  0  0  0  0  0  0  0  0  0
   19.4326    6.0215   53.6353 N   0  0  0  0  0  0  0  0  0  0  0  0
   18.5276    6.5500   53.9025 H   0  0  0  0  0  0  0  0  0  0  0  0
   27.9167    8.5896   56.8790 O   0  0  0  0  0  0  0  0  0  0  0  0
   28.0862    9.8065   57.5105 C   0  0  0  0  0  0  0  0  0  0  0  0
   27.5376   10.9906   57.0370 C   0  0  0  0  0  0  0  0  0  0  0  0
   27.7346   12.1759   57.7012 C   0  0  0  0  0  0  0  0  0  0  0  0
   28.4946   12.2210   58.8742 C   0  0  0  0  0  0  0  0  0  0  0  0
   29.0442   11.0720   59.3599 C   0  0  0  0  0  0  0  0  0  0  0  0
   28.8265    9.8695   58.6588 C   0  0  0  0  0  0  0  0  0  0  0  0
   29.8439   11.0542   60.5752 C   0  0  0  0  0  0  0  0  0  0  0  0
   30.1703    9.9718   61.1429 N   0  0  0  0  0  0  0  0  0  0  0  0
   30.2720   12.2797   61.1425 N   0  0  0  0  0  0  0  0  0  0  0  0
   29.9019    9.0517   60.7970 H   0  0  0  0  0  0  0  0  0  0  0  0
   30.0095   12.4933   62.1185 H   0  0  0  0  0  0  0  0  0  0  0  0
   30.8353   12.9387   60.5803 H   0  0  0  0  0  0  0  0  0  0  0  0
 17 18  1  0  0  0
 18 19  2  0  0  0
 18 20  1  0  0  0
 20 11  1  0  0  0
 11 12  2  0  0  0
 12 13  1  0  0  0
 13 14  2  0  0  0
 14 15  1  0  0  0
 15 10  1  0  0  0
 10  1  1  0  0  0
  1  2  2  0  0  0
  2  3  1  0  0  0
  3 22  1  0  0  0
 22 23  1  0  0  0
 23 24  2  0  0  0
 24 25  1  0  0  0
 25 26  2  0  0  0
 26 27  1  0  0  0
 27 29  1  0  0  0
 29 30  2  0  0  0
 29 31  1  0  0  0
 27 28  2  0  0  0
  3  4  2  0  0  0
  4  5  1  0  0  0
  4  6  1  0  0  0
  6  7  1  0  0  0
  6  8  2  0  0  0
  8  9  1  0  0  0
 15 16  2  0  0  0
 16 11  1  0  0  0
  8  1  1  0  0  0
 28 23  1  0  0  0
 20 21  1  0  0  0
 30 32  1  0  0  0
 31 33  1  0  0  0
 31 34  1  0  0  0
M  END
> <minimizedAffinity>
10.65135

> <CNNscore>
0.6722369194

> <CNNaffinity>
6.3901062012

> <CNN_VS>
4.2956652641

> <CNNaffinity_variance>
0.0995517001

$$$$
[H]N=C(c1c([H])c([H])c([H])c(Oc2nc(Oc3c([H])c([H])c([H])c(N([H])C(=O)C([H])([H])[H])c3[H])c(F)c(C([H])([H])[H])c2F)c1[H])N([H])[H]


 34 36  0  0  0  0  0  0  0  0999 V2000
   25.7612    7.4435   54.8182 C   0  0  0  0  0  0  0  0  0  0  0  0
   26.7560    7.5581   55.7312 N   0  0  0  0  0  0  0  0  0  0  0  0
   27.9032    8.2094   55.5251 C   0  0  0  0  0  0  0  0  0  0  0  0
   28.1052    8.8141   54.3017 C   0  0  0  0  0  0  0  0  0  0  0  0
   29.2709    9.4851   54.0710 F   0  0  0  0  0  0  0  0  0  0  0  0
   27.1429    8.7436   53.3209 C   0  0  0  0  0  0  0  0  0  0  0  0
   27.3374    9.3861   51.9973 C   0  0  0  0  0  0  0  0  0  0  0  0
   25.9845    8.0549   53.6039 C   0  0  0  0  0  0  0  0  0  0  0  0
   25.0605    8.0132   52.5975 F   0  0  0  0  0  0  0  0  0  0  0  0
   24.6166    6.7619   55.1002 O   0  0  0  0  0  0  0  0  0  0  0  0
   21.5423    8.3015   53.8166 C   0  0  0  0  0  0  0  0  0  0  0  0
   21.0070    7.1959   53.2029 C   0  0  0  0  0  0  0  0  0  0  0  0
   21.6159    5.9568   53.1919 C   0  0  0  0  0  0  0  0  0  0  0  0
   22.8155    5.7857   53.8146 C   0  0  0  0  0  0  0  0  0  0  0  0
   23.4034    6.8544   54.4469 C   0  0  0  0  0  0  0  0  0  0  0  0
   22.7755    8.0724   54.4415 C   0  0  0  0  0  0  0  0  0  0  0  0
   20.6304   12.0112   54.3916 C   0  0  0  0  0  0  0  0  0  0  0  0
   21.4357   10.7474   54.4536 C   0  0  0  0  0  0  0  0  0  0  0  0
   22.5193   10.8250   55.0437 O   0  0  0  0  0  0  0  0  0  0  0  0
   20.9552    9.5852   53.8707 N   0  0  0  0  0  0  0  0  0  0  0  0
   19.9914    9.6380   53.3829 H   0  0  0  0  0  0  0  0  0  0  0  0
   28.8652    8.2686   56.5329 O   0  0  0  0  0  0  0  0  0  0  0  0
   28.6842    9.0087   57.6851 C   0  0  0  0  0  0  0  0  0  0  0  0
   28.6728    8.4466   58.9545 C   0  0  0  0  0  0  0  0  0  0  0  0
   28.4893    9.2252   60.0703 C   0  0  0  0  0  0  0  0  0  0  0  0
   28.3088   10.6072   59.9567 C   0  0  0  0  0  0  0  0  0  0  0  0
   28.3158   11.1835   58.7213 C   0  0  0  0  0  0  0  0  0  0  0  0
   28.5061   10.3615   57.5930 C   0  0  0  0  0  0  0  0  0  0  0  0
   28.1338   12.6154   58.5381 C   0  0  0  0  0  0  0  0  0  0  0  0
   27.5320   13.0875   57.5305 N   0  0  0  0  0  0  0  0  0  0  0  0
   28.6422   13.5100   59.5119 N   0  0  0  0  0  0  0  0  0  0  0  0
   27.1388   12.5105   56.7884 H   0  0  0  0  0  0  0  0  0  0  0  0
   29.3140   14.2366   59.2156 H   0  0  0  0  0  0  0  0  0  0  0  0
   28.3389   13.4267   60.4962 H   0  0  0  0  0  0  0  0  0  0  0  0
 17 18  1  0  0  0
 18 19  2  0  0  0
 18 20  1  0  0  0
 20 11  1  0  0  0
 11 12  2  0  0  0
 12 13  1  0  0  0
 13 14  2  0  0  0
 14 15  1  0  0  0
 15 10  1  0  0  0
 10  1  1  0  0  0
  1  2  2  0  0  0
  2  3  1  0  0  0
  3 22  1  0  0  0
 22 23  1  0  0  0
 23 24  2  0  0  0
 24 25  1  0  0  0
 25 26  2  0  0  0
 26 27  1  0  0  0
 27 29  1  0  0  0
 29 30  2  0  0  0
 29 31  1  0  0  0
 27 28  2  0  0  0
  3  4  2  0  0  0
  4  5  1  0  0  0
  4  6  1  0  0  0
  6  7  1  0  0  0
  6  8  2  0  0  0
  8  9  1  0  0  0
 15 16  2  0  0  0
 16 11  1  0  0  0
  8  1  1  0  0  0
 28 23  1  0  0  0
 20 21  1  0  0  0
 30 32  1  0  0  0
 31 33  1  0  0  0
 31 34  1  0  0  0
M  END
> <minimizedAffinity>
15.97403

> <CNNscore>
0.6445292234

> <CNNaffinity>
6.4065437317

> <CNN_VS>
4.1292047501

> <CNNaffinity_variance>
0.1786889136

$$$$
[H]N=C(c1c([H])c([H])c([H])c(Oc2nc(Oc3c([H])c([H])c([H])c(N([H])C(=O)C([H])([H])[H])c3[H])c(F)c(C([H])([H])[H])c2F)c1[H])N([H])[H]


 34 36  0  0  0  0  0  0  0  0999 V2000
   27.3632    9.6586   56.0489 C   0  0  0  0  0  0  0  0  0  0  0  0
   26.0203    9.5824   56.2131 N   0  0  0  0  0  0  0  0  0  0  0  0
   25.2197    8.7531   55.5394 C   0  0  0  0  0  0  0  0  0  0  0  0
   25.7841    7.9074   54.6069 C   0  0  0  0  0  0  0  0  0  0  0  0
   24.9832    7.0518   53.9078 F   0  0  0  0  0  0  0  0  0  0  0  0
   27.1412    7.9236   54.3810 C   0  0  0  0  0  0  0  0  0  0  0  0
   27.7712    7.0234   53.3833 C   0  0  0  0  0  0  0  0  0  0  0  0
   27.9051    8.8053   55.1126 C   0  0  0  0  0  0  0  0  0  0  0  0
   29.2466    8.7834   54.8513 F   0  0  0  0  0  0  0  0  0  0  0  0
   28.1166   10.5314   56.7734 O   0  0  0  0  0  0  0  0  0  0  0  0
   29.2733   11.5821   60.0941 C   0  0  0  0  0  0  0  0  0  0  0  0
   29.2539   10.3548   60.7095 C   0  0  0  0  0  0  0  0  0  0  0  0
   28.8747    9.1876   60.0770 C   0  0  0  0  0  0  0  0  0  0  0  0
   28.4922    9.2186   58.7698 C   0  0  0  0  0  0  0  0  0  0  0  0
   28.4900   10.4172   58.0981 C   0  0  0  0  0  0  0  0  0  0  0  0
   28.8715   11.5595   58.7518 C   0  0  0  0  0  0  0  0  0  0  0  0
   29.8436   15.2561   61.1437 C   0  0  0  0  0  0  0  0  0  0  0  0
   29.2906   14.0969   60.3690 C   0  0  0  0  0  0  0  0  0  0  0  0
   28.5042   14.3808   59.4583 O   0  0  0  0  0  0  0  0  0  0  0  0
   29.6663   12.8016   60.6892 N   0  0  0  0  0  0  0  0  0  0  0  0
   30.3638   12.6762   61.5061 H   0  0  0  0  0  0  0  0  0  0  0  0
   23.8468    8.7529   55.7838 O   0  0  0  0  0  0  0  0  0  0  0  0
   22.9304    9.2045   54.8540 C   0  0  0  0  0  0  0  0  0  0  0  0
   22.5470   10.5348   54.7500 C   0  0  0  0  0  0  0  0  0  0  0  0
   21.6317   10.9347   53.8080 C   0  0  0  0  0  0  0  0  0  0  0  0
   21.0607   10.0104   52.9276 C   0  0  0  0  0  0  0  0  0  0  0  0
   21.4204    8.6981   53.0093 C   0  0  0  0  0  0  0  0  0  0  0  0
   22.3618    8.3147   53.9849 C   0  0  0  0  0  0  0  0  0  0  0  0
   20.8623    7.6895   52.1216 C   0  0  0  0  0  0  0  0  0  0  0  0
   20.8882    7.8204   50.8636 N   0  0  0  0  0  0  0  0  0  0  0  0
   20.2727    6.5266   52.6758 N   0  0  0  0  0  0  0  0  0  0  0  0
   21.2938    8.6263   50.3899 H   0  0  0  0  0  0  0  0  0  0  0  0
   19.2895    6.3102   52.4444 H   0  0  0  0  0  0  0  0  0  0  0  0
   20.8263    5.9150   53.2980 H   0  0  0  0  0  0  0  0  0  0  0  0
 17 18  1  0  0  0
 18 19  2  0  0  0
 18 20  1  0  0  0
 20 11  1  0  0  0
 11 12  2  0  0  0
 12 13  1  0  0  0
 13 14  2  0  0  0
 14 15  1  0  0  0
 15 10  1  0  0  0
 10  1  1  0  0  0
  1  2  2  0  0  0
  2  3  1  0  0  0
  3 22  1  0  0  0
 22 23  1  0  0  0
 23 24  2  0  0  0
 24 25  1  0  0  0
 25 26  2  0  0  0
 26 27  1  0  0  0
 27 29  1  0  0  0
 29 30  2  0  0  0
 29 31  1  0  0  0
 27 28  2  0  0  0
  3  4  2  0  0  0
  4  5  1  0  0  0
  4  6  1  0  0  0
  6  7  1  0  0  0
  6  8  2  0  0  0
  8  9  1  0  0  0
 15 16  2  0  0  0
 16 11  1  0  0  0
  8  1  1  0  0  0
 28 23  1  0  0  0
 20 21  1  0  0  0
 30 32  1  0  0  0
 31 33  1  0  0  0
 31 34  1  0  0  0
M  END
> <minimizedAffinity>
1.40182

> <CNNscore>
0.6025616527

> <CNNaffinity>
6.4817099571

> <CNN_VS>
3.9056298733

> <CNNaffinity_variance>
0.0840069428

$$$$
[H]N=C(c1c([H])c([H])c([H])c(Oc2nc(Oc3c([H])c([H])c([H])c(N([H])C(=O)C([H])([H])[H])c3[H])c(F)c(C([H])([H])[H])c2F)c1[H])N([H])[H]


 34 36  0  0  0  0  0  0  0  0999 V2000
   27.2602    9.9318   56.0863 C   0  0  0  0  0  0  0  0  0  0  0  0
   25.9539   10.1727   56.3536 N   0  0  0  0  0  0  0  0  0  0  0  0
   24.9317    9.5386   55.7741 C   0  0  0  0  0  0  0  0  0  0  0  0
   25.2084    8.5667   54.8349 C   0  0  0  0  0  0  0  0  0  0  0  0
   24.1778    7.9067   54.2311 F   0  0  0  0  0  0  0  0  0  0  0  0
   26.5097    8.2630   54.5074 C   0  0  0  0  0  0  0  0  0  0  0  0
   26.8321    7.2215   53.5004 C   0  0  0  0  0  0  0  0  0  0  0  0
   27.5130    8.9576   55.1453 C   0  0  0  0  0  0  0  0  0  0  0  0
   28.7876    8.6198   54.7851 F   0  0  0  0  0  0  0  0  0  0  0  0
   28.2508   10.6201   56.7183 O   0  0  0  0  0  0  0  0  0  0  0  0
   28.8383    9.4728   60.1545 C   0  0  0  0  0  0  0  0  0  0  0  0
   28.9271   10.7009   60.7623 C   0  0  0  0  0  0  0  0  0  0  0  0
   28.8014   11.8991   60.0880 C   0  0  0  0  0  0  0  0  0  0  0  0
   28.5767   11.9003   58.7443 C   0  0  0  0  0  0  0  0  0  0  0  0
   28.4780   10.7029   58.0780 C   0  0  0  0  0  0  0  0  0  0  0  0
   28.6068    9.5292   58.7736 C   0  0  0  0  0  0  0  0  0  0  0  0
   29.2982    5.7667   61.1434 C   0  0  0  0  0  0  0  0  0  0  0  0
   29.2436    6.9779   60.2605 C   0  0  0  0  0  0  0  0  0  0  0  0
   29.4783    6.7847   59.0621 O   0  0  0  0  0  0  0  0  0  0  0  0
   28.9439    8.2198   60.7983 N   0  0  0  0  0  0  0  0  0  0  0  0
   28.7545    8.2658   61.8621 H   0  0  0  0  0  0  0  0  0  0  0  0
   23.6202    9.8620   56.1207 O   0  0  0  0  0  0  0  0  0  0  0  0
   22.5286    9.3126   55.4769 C   0  0  0  0  0  0  0  0  0  0  0  0
   21.2332    9.4012   55.9685 C   0  0  0  0  0  0  0  0  0  0  0  0
   20.1803    8.8383   55.2909 C   0  0  0  0  0  0  0  0  0  0  0  0
   20.3858    8.1595   54.0857 C   0  0  0  0  0  0  0  0  0  0  0  0
   21.6484    8.0584   53.5817 C   0  0  0  0  0  0  0  0  0  0  0  0
   22.7108    8.6452   54.2971 C   0  0  0  0  0  0  0  0  0  0  0  0
   21.9262    7.3658   52.3327 C   0  0  0  0  0  0  0  0  0  0  0  0
   22.6514    6.3300   52.2916 N   0  0  0  0  0  0  0  0  0  0  0  0
   21.3715    7.8602   51.1265 N   0  0  0  0  0  0  0  0  0  0  0  0
   23.0853    5.9139   53.1143 H   0  0  0  0  0  0  0  0  0  0  0  0
   22.0088    8.1080   50.3522 H   0  0  0  0  0  0  0  0  0  0  0  0
   20.3477    7.9662   51.0357 H   0  0  0  0  0  0  0  0  0  0  0  0
 17 18  1  0  0  0
 18 19  2  0  0  0
 18 20  1  0  0  0
 20 11  1  0  0  0
 11 12  2  0  0  0
 12 13  1  0  0  0
 13 14  2  0  0  0
 14 15  1  0  0  0
 15 10  1  0  0  0
 10  1  1  0  0  0
  1  2  2  0  0  0
  2  3  1  0  0  0
  3 22  1  0  0  0
 22 23  1  0  0  0
 23 24  2  0  0  0
 24 25  1  0  0  0
 25 26  2  0  0  0
 26 27  1  0  0  0
 27 29  1  0  0  0
 29 30  2  0  0  0
 29 31  1  0  0  0
 27 28  2  0  0  0
  3  4  2  0  0  0
  4  5  1  0  0  0
  4  6  1  0  0  0
  6  7  1  0  0  0
  6  8  2  0  0  0
  8  9  1  0  0  0
 15 16  2  0  0  0
 16 11  1  0  0  0
  8  1  1  0  0  0
 28 23  1  0  0  0
 20 21  1  0  0  0
 30 32  1  0  0  0
 31 33  1  0  0  0
 31 34  1  0  0  0
M  END
> <minimizedAffinity>
9.85355

> <CNNscore>
0.5919210911

> <CNNaffinity>
6.4228391647

> <CNN_VS>
3.8018140793

> <CNNaffinity_variance>
0.2727358043

$$$$
[H]N=C(c1c([H])c([H])c([H])c(Oc2nc(Oc3c([H])c([H])c([H])c(N([H])C(=O)C([H])([H])[H])c3[H])c(F)c(C([H])([H])[H])c2F)c1[H])N([H])[H]


 34 36  0  0  0  0  0  0  0  0999 V2000
   23.6706    7.6041   53.6873 C   0  0  0  0  0  0  0  0  0  0  0  0
   22.5507    7.0786   53.1344 N   0  0  0  0  0  0  0  0  0  0  0  0
   21.3080    7.4818   53.4098 C   0  0  0  0  0  0  0  0  0  0  0  0
   21.1351    8.5047   54.3191 C   0  0  0  0  0  0  0  0  0  0  0  0
   19.8730    8.9318   54.6143 F   0  0  0  0  0  0  0  0  0  0  0  0
   22.2223    9.0913   54.9249 C   0  0  0  0  0  0  0  0  0  0  0  0
   22.0614   10.1931   55.9061 C   0  0  0  0  0  0  0  0  0  0  0  0
   23.4742    8.6241   54.5926 C   0  0  0  0  0  0  0  0  0  0  0  0
   24.5209    9.2385   55.2213 F   0  0  0  0  0  0  0  0  0  0  0  0
   24.9077    7.1404   53.3572 O   0  0  0  0  0  0  0  0  0  0  0  0
   27.6926    9.3531   52.4533 C   0  0  0  0  0  0  0  0  0  0  0  0
   28.4594    9.1785   53.5789 C   0  0  0  0  0  0  0  0  0  0  0  0
   28.0994    8.3594   54.6304 C   0  0  0  0  0  0  0  0  0  0  0  0
   26.9246    7.6713   54.5821 C   0  0  0  0  0  0  0  0  0  0  0  0
   26.1124    7.8040   53.4819 C   0  0  0  0  0  0  0  0  0  0  0  0
   26.4958    8.6242   52.4532 C   0  0  0  0  0  0  0  0  0  0  0  0
   28.5494   10.8519   48.9972 C   0  0  0  0  0  0  0  0  0  0  0  0
   28.1952    9.8100   50.0164 C   0  0  0  0  0  0  0  0  0  0  0  0
   28.0770    8.6553   49.5908 O   0  0  0  0  0  0  0  0  0  0  0  0
   28.0205   10.1652   51.3448 N   0  0  0  0  0  0  0  0  0  0  0  0
   28.1521   11.2079   51.5998 H   0  0  0  0  0  0  0  0  0  0  0  0
   20.2200    6.8736   52.7845 O   0  0  0  0  0  0  0  0  0  0  0  0
   19.7801    5.6105   53.1299 C   0  0  0  0  0  0  0  0  0  0  0  0
   20.5800    4.4789   53.0470 C   0  0  0  0  0  0  0  0  0  0  0  0
   20.0964    3.2441   53.4026 C   0  0  0  0  0  0  0  0  0  0  0  0
   18.7829    3.0943   53.8583 C   0  0  0  0  0  0  0  0  0  0  0  0
   17.9770    4.1901   53.9488 C   0  0  0  0  0  0  0  0  0  0  0  0
   18.4984    5.4452   53.5775 C   0  0  0  0  0  0  0  0  0  0  0  0
   16.6021    4.0988   54.4159 C   0  0  0  0  0  0  0  0  0  0  0  0
   15.6206    4.2936   53.6420 N   0  0  0  0  0  0  0  0  0  0  0  0
   16.3498    3.7830   55.7738 N   0  0  0  0  0  0  0  0  0  0  0  0
   15.7197    4.5243   52.6544 H   0  0  0  0  0  0  0  0  0  0  0  0
   15.7915    4.4416   56.3410 H   0  0  0  0  0  0  0  0  0  0  0  0
   16.7227    2.9078   56.1769 H   0  0  0  0  0  0  0  0  0  0  0  0
 17 18  1  0  0  0
 18 19  2  0  0  0
 18 20  1  0  0  0
 20 11  1  0  0  0
 11 12  2  0  0  0
 12 13  1  0  0  0
 13 14  2  0  0  0
 14 15  1  0  0  0
 15 10  1  0  0  0
 10  1  1  0  0  0
  1  2  2  0  0  0
  2  3  1  0  0  0
  3 22  1  0  0  0
 22 23  1  0  0  0
 23 24  2  0  0  0
 24 25  1  0  0  0
 25 26  2  0  0  0
 26 27  1  0  0  0
 27 29  1  0  0  0
 29 30  2  0  0  0
 29 31  1  0  0  0
 27 28  2  0  0  0
  3  4  2  0  0  0
  4  5  1  0  0  0
  4  6  1  0  0  0
  6  7  1  0  0  0
  6  8  2  0  0  0
  8  9  1  0  0  0
 15 16  2  0  0  0
 16 11  1  0  0  0
  8  1  1  0  0  0
 28 23  1  0  0  0
 20 21  1  0  0  0
 30 32  1  0  0  0
 31 33  1  0  0  0
 31 34  1  0  0  0
M  END
> <minimizedAffinity>
22.73953

> <CNNscore>
0.5881008506

> <CNNaffinity>
6.7736601830

> <CNN_VS>
3.9835953712

> <CNNaffinity_variance>
0.2910244465

$$$$
[H]N=C(c1c([H])c([H])c([H])c(Oc2nc(Oc3c([H])c([H])c([H])c(N([H])C(=O)C([H])([H])[H])c3[H])c(F)c(C([H])([H])[H])c2F)c1[H])N([H])[H]


 34 36  0  0  0  0  0  0  0  0999 V2000
   25.5828    8.0596   53.2093 C   0  0  0  0  0  0  0  0  0  0  0  0
   26.6221    8.4550   52.4348 N   0  0  0  0  0  0  0  0  0  0  0  0
   27.7437    9.0123   52.8976 C   0  0  0  0  0  0  0  0  0  0  0  0
   27.8689    9.2058   54.2578 C   0  0  0  0  0  0  0  0  0  0  0  0
   29.0076    9.7736   54.7511 F   0  0  0  0  0  0  0  0  0  0  0  0
   26.8576    8.8311   55.1121 C   0  0  0  0  0  0  0  0  0  0  0  0
   26.9694    9.0291   56.5787 C   0  0  0  0  0  0  0  0  0  0  0  0
   25.7296    8.2625   54.5641 C   0  0  0  0  0  0  0  0  0  0  0  0
   24.7541    7.9084   55.4537 F   0  0  0  0  0  0  0  0  0  0  0  0
   24.4682    7.4975   52.6651 O   0  0  0  0  0  0  0  0  0  0  0  0
   21.5963    9.7645   52.9504 C   0  0  0  0  0  0  0  0  0  0  0  0
   20.6228    8.8247   53.1836 C   0  0  0  0  0  0  0  0  0  0  0  0
   20.8698    7.4680   53.2520 C   0  0  0  0  0  0  0  0  0  0  0  0
   22.1383    7.0007   53.0831 C   0  0  0  0  0  0  0  0  0  0  0  0
   23.1570    7.8916   52.8462 C   0  0  0  0  0  0  0  0  0  0  0  0
   22.8820    9.2326   52.7837 C   0  0  0  0  0  0  0  0  0  0  0  0
   21.1795   13.4732   51.9518 C   0  0  0  0  0  0  0  0  0  0  0  0
   21.4097   12.0008   51.7823 C   0  0  0  0  0  0  0  0  0  0  0  0
   21.6005   11.6130   50.6240 O   0  0  0  0  0  0  0  0  0  0  0  0
   21.4006   11.1621   52.8860 N   0  0  0  0  0  0  0  0  0  0  0  0
   21.2249   11.6165   53.8515 H   0  0  0  0  0  0  0  0  0  0  0  0
   28.7564    9.3846   52.0142 O   0  0  0  0  0  0  0  0  0  0  0  0
   28.4964    9.7858   50.7182 C   0  0  0  0  0  0  0  0  0  0  0  0
   28.0287   11.0524   50.3949 C   0  0  0  0  0  0  0  0  0  0  0  0
   27.7854   11.4039   49.0902 C   0  0  0  0  0  0  0  0  0  0  0  0
   28.0025   10.4933   48.0514 C   0  0  0  0  0  0  0  0  0  0  0  0
   28.4613    9.2431   48.3426 C   0  0  0  0  0  0  0  0  0  0  0  0
   28.7029    8.9084   49.6897 C   0  0  0  0  0  0  0  0  0  0  0  0
   28.7071    8.2519   47.3063 C   0  0  0  0  0  0  0  0  0  0  0  0
   28.3961    8.4594   46.0978 N   0  0  0  0  0  0  0  0  0  0  0  0
   29.3116    7.0188   47.6546 N   0  0  0  0  0  0  0  0  0  0  0  0
   27.9592    9.3191   45.7688 H   0  0  0  0  0  0  0  0  0  0  0  0
   28.8112    6.1418   47.4364 H   0  0  0  0  0  0  0  0  0  0  0  0
   30.2353    7.0105   48.1175 H   0  0  0  0  0  0  0  0  0  0  0  0
 17 18  1  0  0  0
 18 19  2  0  0  0
 18 20  1  0  0  0
 20 11  1  0  0  0
 11 12  2  0  0  0
 12 13  1  0  0  0
 13 14  2  0  0  0
 14 15  1  0  0  0
 15 10  1  0  0  0
 10  1  1  0  0  0
  1  2  2  0  0  0
  2  3  1  0  0  0
  3 22  1  0  0  0
 22 23  1  0  0  0
 23 24  2  0  0  0
 24 25  1  0  0  0
 25 26  2  0  0  0
 26 27  1  0  0  0
 27 29  1  0  0  0
 29 30  2  0  0  0
 29 31  1  0  0  0
 27 28  2  0  0  0
  3  4  2  0  0  0
  4  5  1  0  0  0
  4  6  1  0  0  0
  6  7  1  0  0  0
  6  8  2  0  0  0
  8  9  1  0  0  0
 15 16  2  0  0  0
 16 11  1  0  0  0
  8  1  1  0  0  0
 28 23  1  0  0  0
 20 21  1  0  0  0
 30 32  1  0  0  0
 31 33  1  0  0  0
 31 34  1  0  0  0
M  END
> <minimizedAffinity>
20.91638

> <CNNscore>
0.5872014761

> <CNNaffinity>
6.4464936256

> <CNN_VS>
3.7853906155

> <CNNaffinity_variance>
0.2036420405

$$$$
[H]c1c([H])c(C(N=[N+]=[N-])(C([H])([H])[H])C([H])([H])[H])c(Cl)c([H])c1C(F)(F)F


 17 17  0  0  0  0  0  0  0  0999 V2000
   23.3417    8.2449   54.3575 C   0  0  0  0  0  0  0  0  0  0  0  0
   23.8614    9.2030   55.2538 C   0  0  0  0  0  0  0  0  0  0  0  0
   25.2253    9.2258   55.3351 C   0  0  0  0  0  0  0  0  0  0  0  0
   26.1063    8.4404   54.6849 C   0  0  0  0  0  0  0  0  0  0  0  0
   25.5702    7.4786   53.7924 C   0  0  0  0  0  0  0  0  0  0  0  0
   24.1787    7.4070   53.6488 C   0  0  0  0  0  0  0  0  0  0  0  0
   23.5080    6.1834   52.5521 Cl  0  0  0  0  0  0  0  0  0  0  0  0
   27.5854    8.5331   54.7990 C   0  0  0  0  0  0  0  0  0  0  0  0
   28.2173    7.3242   54.5155 F   0  0  0  0  0  0  0  0  0  0  0  0
   27.9699    9.0330   55.9986 F   0  0  0  0  0  0  0  0  0  0  0  0
   28.1007    9.3884   53.8147 F   0  0  0  0  0  0  0  0  0  0  0  0
   21.4339    6.6976   54.0952 C   0  0  0  0  0  0  0  0  0  0  0  0
   21.8772    8.1989   54.0958 C   0  0  0  0  0  0  0  0  0  0  0  0
   21.0500    8.8651   55.1379 C   0  0  0  0  0  0  0  0  0  0  0  0
   21.5572    8.7241   52.7893 N   0  0  0  0  0  0  0  0  0  0  0  0
   20.8608    8.0842   52.0364 N   0  0  0  0  0  0  0  0  0  0  0  0
   20.2784    8.0120   50.9058 N   0  0  0  0  0  0  0  0  0  0  0  0
 12 13  1  0  0  0
 13 14  1  0  0  0
 13 15  1  0  0  0
 15 16  2  0  0  0
 16 17  2  0  0  0
 13  1  1  0  0  0
  1  2  2  0  0  0
  2  3  1  0  0  0
  3  4  2  0  0  0
  4  8  1  0  0  0
  8  9  1  0  0  0
  8 10  1  0  0  0
  8 11  1  0  0  0
  4  5  1  0  0  0
  5  6  2  0  0  0
  6  7  1  0  0  0
  6  1  1  0  0  0
M  CHG 1  16   1
M  CHG 1  17  -1
M  END
> <minimizedAffinity>
-2.95673

> <CNNscore>
0.7063208222

> <CNNaffinity>
5.4709987640

> <CNN_VS>
3.8642804623

> <CNNaffinity_variance>
0.3050616980

$$$$
[H]c1c([H])c(C(N=[N+]=[N-])(C([H])([H])[H])C([H])([H])[H])c(Cl)c([H])c1C(F)(F)F


 17 17  0  0  0  0  0  0  0  0999 V2000
   22.9757    7.9762   53.8054 C   0  0  0  0  0  0  0  0  0  0  0  0
   23.8672    7.1431   53.0966 C   0  0  0  0  0  0  0  0  0  0  0  0
   25.1864    7.3339   53.3979 C   0  0  0  0  0  0  0  0  0  0  0  0
   25.7179    8.2215   54.2612 C   0  0  0  0  0  0  0  0  0  0  0  0
   24.8113    9.0559   54.9619 C   0  0  0  0  0  0  0  0  0  0  0  0
   23.4411    8.9067   54.7122 C   0  0  0  0  0  0  0  0  0  0  0  0
   22.3090    9.9712   55.5696 Cl  0  0  0  0  0  0  0  0  0  0  0  0
   27.1664    8.3623   54.5636 C   0  0  0  0  0  0  0  0  0  0  0  0
   27.8592    7.1623   54.4175 F   0  0  0  0  0  0  0  0  0  0  0  0
   27.3773    8.9205   55.7805 F   0  0  0  0  0  0  0  0  0  0  0  0
   27.7863    9.1929   53.6192 F   0  0  0  0  0  0  0  0  0  0  0  0
   21.2422    6.2641   53.3971 C   0  0  0  0  0  0  0  0  0  0  0  0
   21.5077    7.7861   53.6492 C   0  0  0  0  0  0  0  0  0  0  0  0
   20.7146    8.1410   54.8571 C   0  0  0  0  0  0  0  0  0  0  0  0
   21.0039    8.4897   52.4933 N   0  0  0  0  0  0  0  0  0  0  0  0
   21.3848    9.6126   52.2577 N   0  0  0  0  0  0  0  0  0  0  0  0
   21.3400   10.6268   51.4884 N   0  0  0  0  0  0  0  0  0  0  0  0
 12 13  1  0  0  0
 13 14  1  0  0  0
 13 15  1  0  0  0
 15 16  2  0  0  0
 16 17  2  0  0  0
 13  1  1  0  0  0
  1  2  2  0  0  0
  2  3  1  0  0  0
  3  4  2  0  0  0
  4  8  1  0  0  0
  8  9  1  0  0  0
  8 10  1  0  0  0
  8 11  1  0  0  0
  4  5  1  0  0  0
  5  6  2  0  0  0
  6  7  1  0  0  0
  6  1  1  0  0  0
M  CHG 1  16   1
M  CHG 1  17  -1
M  END
> <minimizedAffinity>
-3.81430

> <CNNscore>
0.6293973327

> <CNNaffinity>
5.5239324570

> <CNN_VS>
3.4767484665

> <CNNaffinity_variance>
0.1955874264

$$$$
[H]c1c([H])c(C(N=[N+]=[N-])(C([H])([H])[H])C([H])([H])[H])c(Cl)c([H])c1C(F)(F)F


 17 17  0  0  0  0  0  0  0  0999 V2000
   23.3157    8.3475   53.8731 C   0  0  0  0  0  0  0  0  0  0  0  0
   24.1866    7.6175   53.0364 C   0  0  0  0  0  0  0  0  0  0  0  0
   25.5087    7.7136   53.3683 C   0  0  0  0  0  0  0  0  0  0  0  0
   26.0608    8.4267   54.3694 C   0  0  0  0  0  0  0  0  0  0  0  0
   25.1750    9.1598   55.1983 C   0  0  0  0  0  0  0  0  0  0  0  0
   23.8027    9.0977   54.9242 C   0  0  0  0  0  0  0  0  0  0  0  0
   22.6975   10.0384   55.9456 Cl  0  0  0  0  0  0  0  0  0  0  0  0
   27.5107    8.4693   54.6943 C   0  0  0  0  0  0  0  0  0  0  0  0
   28.1436    7.2500   54.4615 F   0  0  0  0  0  0  0  0  0  0  0  0
   27.7342    8.9205   55.9525 F   0  0  0  0  0  0  0  0  0  0  0  0
   28.1835    9.3370   53.8224 F   0  0  0  0  0  0  0  0  0  0  0  0
   21.2531    9.6798   53.6027 C   0  0  0  0  0  0  0  0  0  0  0  0
   21.8438    8.2325   53.6841 C   0  0  0  0  0  0  0  0  0  0  0  0
   21.4418    7.5592   52.4196 C   0  0  0  0  0  0  0  0  0  0  0  0
   21.2143    7.5930   54.8154 N   0  0  0  0  0  0  0  0  0  0  0  0
   21.8704    6.9024   55.5597 N   0  0  0  0  0  0  0  0  0  0  0  0
   21.9054    6.1756   56.6051 N   0  0  0  0  0  0  0  0  0  0  0  0
 12 13  1  0  0  0
 13 14  1  0  0  0
 13 15  1  0  0  0
 15 16  2  0  0  0
 16 17  2  0  0  0
 13  1  1  0  0  0
  1  2  2  0  0  0
  2  3  1  0  0  0
  3  4  2  0  0  0
  4  8  1  0  0  0
  8  9  1  0  0  0
  8 10  1  0  0  0
  8 11  1  0  0  0
  4  5  1  0  0  0
  5  6  2  0  0  0
  6  7  1  0  0  0
  6  1  1  0  0  0
M  CHG 1  16   1
M  CHG 1  17  -1
M  END
> <minimizedAffinity>
-2.97217

> <CNNscore>
0.6183218956

> <CNNaffinity>
5.5624938011

> <CNN_VS>
3.4394116402

> <CNNaffinity_variance>
0.1933958083

$$$$
[H]c1c([H])c(C(N=[N+]=[N-])(C([H])([H])[H])C([H])([H])[H])c(Cl)c([H])c1C(F)(F)F


 17 17  0  0  0  0  0  0  0  0999 V2000
   22.9647    7.6935   53.6025 C   0  0  0  0  0  0  0  0  0  0  0  0
   23.6400    8.6449   52.8087 C   0  0  0  0  0  0  0  0  0  0  0  0
   24.9807    8.7428   53.0543 C   0  0  0  0  0  0  0  0  0  0  0  0
   25.7074    8.0623   53.9623 C   0  0  0  0  0  0  0  0  0  0  0  0
   25.0153    7.1143   54.7567 C   0  0  0  0  0  0  0  0  0  0  0  0
   23.6394    6.9513   54.5505 C   0  0  0  0  0  0  0  0  0  0  0  0
   22.7691    5.7840   55.5653 Cl  0  0  0  0  0  0  0  0  0  0  0  0
   27.1739    8.1980   54.1634 C   0  0  0  0  0  0  0  0  0  0  0  0
   27.7683    9.0173   53.2059 F   0  0  0  0  0  0  0  0  0  0  0  0
   27.7872    6.9922   54.2449 F   0  0  0  0  0  0  0  0  0  0  0  0
   27.4442    8.8766   55.3601 F   0  0  0  0  0  0  0  0  0  0  0  0
   21.1973    7.8475   51.8834 C   0  0  0  0  0  0  0  0  0  0  0  0
   21.5247    7.4130   53.3512 C   0  0  0  0  0  0  0  0  0  0  0  0
   21.1592    5.9733   53.4385 C   0  0  0  0  0  0  0  0  0  0  0  0
   20.6748    8.1999   54.2135 N   0  0  0  0  0  0  0  0  0  0  0  0
   21.0981    9.2160   54.7131 N   0  0  0  0  0  0  0  0  0  0  0  0
   20.8731   10.2287   55.4523 N   0  0  0  0  0  0  0  0  0  0  0  0
 12 13  1  0  0  0
 13 14  1  0  0  0
 13 15  1  0  0  0
 15 16  2  0  0  0
 16 17  2  0  0  0
 13  1  1  0  0  0
  1  2  2  0  0  0
  2  3  1  0  0  0
  3  4  2  0  0  0
  4  8  1  0  0  0
  8  9  1  0  0  0
  8 10  1  0  0  0
  8 11  1  0  0  0
  4  5  1  0  0  0
  5  6  2  0  0  0
  6  7  1  0  0  0
  6  1  1  0  0  0
M  CHG 1  16   1
M  CHG 1  17  -1
M  END
> <minimizedAffinity>
-1.33856

> <CNNscore>
0.5879749656

> <CNNaffinity>
5.1919031143

> <CNN_VS>
3.0527091026

> <CNNaffinity_variance>
0.2525005639

$$$$
[H]c1c([H])c(C(N=[N+]=[N-])(C([H])([H])[H])C([H])([H])[H])c(Cl)c([H])c1C(F)(F)F


 17 17  0  0  0  0  0  0  0  0999 V2000
   21.7534    8.1812   53.1653 C   0  0  0  0  0  0  0  0  0  0  0  0
   21.4339    9.4561   53.6790 C   0  0  0  0  0  0  0  0  0  0  0  0
   22.3132    9.9312   54.6110 C   0  0  0  0  0  0  0  0  0  0  0  0
   23.4134    9.3232   55.0962 C   0  0  0  0  0  0  0  0  0  0  0  0
   23.7190    8.0408   54.5758 C   0  0  0  0  0  0  0  0  0  0  0  0
   22.8672    7.4960   53.6063 C   0  0  0  0  0  0  0  0  0  0  0  0
   23.2357    5.8783   52.9761 Cl  0  0  0  0  0  0  0  0  0  0  0  0
   24.3462    9.9072   56.0954 C   0  0  0  0  0  0  0  0  0  0  0  0
   25.6564    9.4667   55.9206 F   0  0  0  0  0  0  0  0  0  0  0  0
   23.9145    9.7119   57.3651 F   0  0  0  0  0  0  0  0  0  0  0  0
   24.4595   11.2924   55.9098 F   0  0  0  0  0  0  0  0  0  0  0  0
   21.9157    7.0110   50.9958 C   0  0  0  0  0  0  0  0  0  0  0  0
   20.9363    7.6053   52.0626 C   0  0  0  0  0  0  0  0  0  0  0  0
   20.0580    6.4785   52.4783 C   0  0  0  0  0  0  0  0  0  0  0  0
   20.1630    8.6231   51.3909 N   0  0  0  0  0  0  0  0  0  0  0  0
   19.0629    8.3607   50.9637 N   0  0  0  0  0  0  0  0  0  0  0  0
   18.0117    8.7674   50.3704 N   0  0  0  0  0  0  0  0  0  0  0  0
 12 13  1  0  0  0
 13 14  1  0  0  0
 13 15  1  0  0  0
 15 16  2  0  0  0
 16 17  2  0  0  0
 13  1  1  0  0  0
  1  2  2  0  0  0
  2  3  1  0  0  0
  3  4  2  0  0  0
  4  8  1  0  0  0
  8  9  1  0  0  0
  8 10  1  0  0  0
  8 11  1  0  0  0
  4  5  1  0  0  0
  5  6  2  0  0  0
  6  7  1  0  0  0
  6  1  1  0  0  0
M  CHG 1  16   1
M  CHG 1  17  -1
M  END
> <minimizedAffinity>
13.86033

> <CNNscore>
0.5829493403

> <CNNaffinity>
5.3225212097

> <CNN_VS>
3.1027603149

> <CNNaffinity_variance>
0.4669326842

$$$$
[H]c1c([H])c(C(N=[N+]=[N-])(C([H])([H])[H])C([H])([H])[H])c(Cl)c([H])c1C(F)(F)F


 17 17  0  0  0  0  0  0  0  0999 V2000
   22.5038    7.3867   53.4660 C   0  0  0  0  0  0  0  0  0  0  0  0
   23.2801    6.3932   54.0995 C   0  0  0  0  0  0  0  0  0  0  0  0
   24.5905    6.7303   54.2910 C   0  0  0  0  0  0  0  0  0  0  0  0
   25.2124    7.8707   53.9325 C   0  0  0  0  0  0  0  0  0  0  0  0
   24.4220    8.8575   53.2919 C   0  0  0  0  0  0  0  0  0  0  0  0
   23.0654    8.5850   53.0740 C   0  0  0  0  0  0  0  0  0  0  0  0
   22.0835    9.8102   52.2466 Cl  0  0  0  0  0  0  0  0  0  0  0  0
   26.6411    8.1872   54.1933 C   0  0  0  0  0  0  0  0  0  0  0  0
   27.4410    7.0469   54.2255 F   0  0  0  0  0  0  0  0  0  0  0  0
   26.7967    8.9429   55.3075 F   0  0  0  0  0  0  0  0  0  0  0  0
   27.1851    8.9152   53.1255 F   0  0  0  0  0  0  0  0  0  0  0  0
   20.6508    7.6074   51.8473 C   0  0  0  0  0  0  0  0  0  0  0  0
   21.0381    7.1846   53.3038 C   0  0  0  0  0  0  0  0  0  0  0  0
   20.5979    5.7704   53.4457 C   0  0  0  0  0  0  0  0  0  0  0  0
   20.2856    8.0363   54.1945 N   0  0  0  0  0  0  0  0  0  0  0  0
   20.8541    8.8860   54.8397 N   0  0  0  0  0  0  0  0  0  0  0  0
   20.7673    9.8413   55.6778 N   0  0  0  0  0  0  0  0  0  0  0  0
 12 13  1  0  0  0
 13 14  1  0  0  0
 13 15  1  0  0  0
 15 16  2  0  0  0
 16 17  2  0  0  0
 13  1  1  0  0  0
  1  2  2  0  0  0
  2  3  1  0  0  0
  3  4  2  0  0  0
  4  8  1  0  0  0
  8  9  1  0  0  0
  8 10  1  0  0  0
  8 11  1  0  0  0
  4  5  1  0  0  0
  5  6  2  0  0  0
  6  7  1  0  0  0
  6  1  1  0  0  0
M  CHG 1  16   1
M  CHG 1  17  -1
M  END
> <minimizedAffinity>
-2.47189

> <CNNscore>
0.5785725117

> <CNNaffinity>
5.2912507057

> <CNN_VS>
3.0613722801

> <CNNaffinity_variance>
0.2719656229

$$$$
[H]c1c([H])c(C(N=[N+]=[N-])(C([H])([H])[H])C([H])([H])[H])c(Cl)c([H])c1C(F)(F)F


 17 17  0  0  0  0  0  0  0  0999 V2000
   26.2399    8.8096   54.8268 C   0  0  0  0  0  0  0  0  0  0  0  0
   25.1818    8.9248   55.7532 C   0  0  0  0  0  0  0  0  0  0  0  0
   23.9444    8.6524   55.2412 C   0  0  0  0  0  0  0  0  0  0  0  0
   23.6288    8.3136   53.9758 C   0  0  0  0  0  0  0  0  0  0  0  0
   24.7007    8.2073   53.0545 C   0  0  0  0  0  0  0  0  0  0  0  0
   25.9998    8.4605   53.5133 C   0  0  0  0  0  0  0  0  0  0  0  0
   27.3377    8.3543   52.3521 Cl  0  0  0  0  0  0  0  0  0  0  0  0
   22.2598    8.0043   53.4865 C   0  0  0  0  0  0  0  0  0  0  0  0
   21.7627    8.9915   52.6381 F   0  0  0  0  0  0  0  0  0  0  0  0
   21.4062    7.7395   54.5053 F   0  0  0  0  0  0  0  0  0  0  0  0
   22.2779    6.8703   52.6621 F   0  0  0  0  0  0  0  0  0  0  0  0
   28.4216    7.6562   54.9406 C   0  0  0  0  0  0  0  0  0  0  0  0
   27.6454    8.9699   55.2899 C   0  0  0  0  0  0  0  0  0  0  0  0
   28.3877   10.0701   54.6171 C   0  0  0  0  0  0  0  0  0  0  0  0
   27.7150    9.1212   56.7243 N   0  0  0  0  0  0  0  0  0  0  0  0
   28.1758   10.1315   57.2022 N   0  0  0  0  0  0  0  0  0  0  0  0
   28.4613   10.7946   58.2516 N   0  0  0  0  0  0  0  0  0  0  0  0
 12 13  1  0  0  0
 13 14  1  0  0  0
 13 15  1  0  0  0
 15 16  2  0  0  0
 16 17  2  0  0  0
 13  1  1  0  0  0
  1  2  2  0  0  0
  2  3  1  0  0  0
  3  4  2  0  0  0
  4  8  1  0  0  0
  8  9  1  0  0  0
  8 10  1  0  0  0
  8 11  1  0  0  0
  4  5  1  0  0  0
  5  6  2  0  0  0
  6  7  1  0  0  0
  6  1  1  0  0  0
M  CHG 1  16   1
M  CHG 1  17  -1
M  END
> <minimizedAffinity>
4.13038

> <CNNscore>
0.5687499046

> <CNNaffinity>
4.9911050797

> <CNN_VS>
2.8386905193

> <CNNaffinity_variance>
0.2706749141

$$$$
[H]c1c([H])c(C(N=[N+]=[N-])(C([H])([H])[H])C([H])([H])[H])c(Cl)c([H])c1C(F)(F)F


 17 17  0  0  0  0  0  0  0  0999 V2000
   22.5783    8.2428   52.6625 C   0  0  0  0  0  0  0  0  0  0  0  0
   23.5605    7.2979   52.2968 C   0  0  0  0  0  0  0  0  0  0  0  0
   24.7405    7.4110   52.9767 C   0  0  0  0  0  0  0  0  0  0  0  0
   25.0685    8.3153   53.9203 C   0  0  0  0  0  0  0  0  0  0  0  0
   24.0745    9.2620   54.2736 C   0  0  0  0  0  0  0  0  0  0  0  0
   22.8343    9.1978   53.6255 C   0  0  0  0  0  0  0  0  0  0  0  0
   21.6006   10.4013   54.0489 Cl  0  0  0  0  0  0  0  0  0  0  0  0
   26.3663    8.3691   54.6428 C   0  0  0  0  0  0  0  0  0  0  0  0
   27.2953    9.1900   54.0068 F   0  0  0  0  0  0  0  0  0  0  0  0
   26.8660    7.1315   54.8781 F   0  0  0  0  0  0  0  0  0  0  0  0
   26.2084    8.9908   55.8895 F   0  0  0  0  0  0  0  0  0  0  0  0
   20.9050    9.5088   51.3586 C   0  0  0  0  0  0  0  0  0  0  0  0
   21.2136    8.1518   52.0754 C   0  0  0  0  0  0  0  0  0  0  0  0
   21.0668    7.1004   51.0328 C   0  0  0  0  0  0  0  0  0  0  0  0
   20.2081    7.9878   53.0987 N   0  0  0  0  0  0  0  0  0  0  0  0
   19.0667    7.7388   52.7879 N   0  0  0  0  0  0  0  0  0  0  0  0
   17.8756    7.4929   53.1665 N   0  0  0  0  0  0  0  0  0  0  0  0
 12 13  1  0  0  0
 13 14  1  0  0  0
 13 15  1  0  0  0
 15 16  2  0  0  0
 16 17  2  0  0  0
 13  1  1  0  0  0
  1  2  2  0  0  0
  2  3  1  0  0  0
  3  4  2  0  0  0
  4  8  1  0  0  0
  8  9  1  0  0  0
  8 10  1  0  0  0
  8 11  1  0  0  0
  4  5  1  0  0  0
  5  6  2  0  0  0
  6  7  1  0  0  0
  6  1  1  0  0  0
M  CHG 1  16   1
M  CHG 1  17  -1
M  END
> <minimizedAffinity>
9.50823

> <CNNscore>
0.5512728691

> <CNNaffinity>
5.4933819771

> <CNN_VS>
3.0283524990

> <CNNaffinity_variance>
0.1029932722

$$$$
[H]c1c([H])c(C(N=[N+]=[N-])(C([H])([H])[H])C([H])([H])[H])c(Cl)c([H])c1C(F)(F)F


 17 17  0  0  0  0  0  0  0  0999 V2000
   22.9010    7.7359   53.5857 C   0  0  0  0  0  0  0  0  0  0  0  0
   23.8610    6.8425   53.0647 C   0  0  0  0  0  0  0  0  0  0  0  0
   25.1511    7.1242   53.4164 C   0  0  0  0  0  0  0  0  0  0  0  0
   25.5986    8.1471   54.1707 C   0  0  0  0  0  0  0  0  0  0  0  0
   24.6241    9.0400   54.6826 C   0  0  0  0  0  0  0  0  0  0  0  0
   23.2784    8.8051   54.3726 C   0  0  0  0  0  0  0  0  0  0  0  0
   22.0621    9.9400   54.9910 Cl  0  0  0  0  0  0  0  0  0  0  0  0
   27.0190    8.3843   54.5390 C   0  0  0  0  0  0  0  0  0  0  0  0
   27.7876    7.2244   54.4674 F   0  0  0  0  0  0  0  0  0  0  0  0
   27.1344    8.9910   55.7453 F   0  0  0  0  0  0  0  0  0  0  0  0
   27.6363    9.2215   53.5988 F   0  0  0  0  0  0  0  0  0  0  0  0
   20.6615    8.1007   54.5624 C   0  0  0  0  0  0  0  0  0  0  0  0
   21.4528    7.4705   53.3678 C   0  0  0  0  0  0  0  0  0  0  0  0
   20.8960    8.0964   52.1381 C   0  0  0  0  0  0  0  0  0  0  0  0
   21.1666    6.0553   53.3843 N   0  0  0  0  0  0  0  0  0  0  0  0
   20.0201    5.6720   53.3874 N   0  0  0  0  0  0  0  0  0  0  0  0
   19.2129    4.6866   53.3823 N   0  0  0  0  0  0  0  0  0  0  0  0
 12 13  1  0  0  0
 13 14  1  0  0  0
 13 15  1  0  0  0
 15 16  2  0  0  0
 16 17  2  0  0  0
 13  1  1  0  0  0
  1  2  2  0  0  0
  2  3  1  0  0  0
  3  4  2  0  0  0
  4  8  1  0  0  0
  8  9  1  0  0  0
  8 10  1  0  0  0
  8 11  1  0  0  0
  4  5  1  0  0  0
  5  6  2  0  0  0
  6  7  1  0  0  0
  6  1  1  0  0  0
M  CHG 1  16   1
M  CHG 1  17  -1
M  END
> <minimizedAffinity>
-2.00107

> <CNNscore>
0.5501529574

> <CNNaffinity>
5.6082334518

> <CNN_VS>
3.0853862762

> <CNNaffinity_variance>
0.4772542417

$$$$
[H]c1c([H])c(C([H])([H])OC([H])([H])C2([H])C([H])([H])C([H])([H])N(C([H])([H])C([H])([H])C([H])([H])C([H])([H])C([H])([H])[H])C([H])([H])C2([H])[H])c([H])c([H])c1F


 21 22  0  0  0  0  0  0  0  0999 V2000
   20.6307    6.3349   52.9913 N   0  0  0  0  0  0  0  0  0  0  0  0
   20.2061    7.6601   52.7635 C   0  0  0  0  0  0  0  0  0  0  0  0
   21.1110    8.7498   53.1936 C   0  0  0  0  0  0  0  0  0  0  0  0
   21.4500    8.5116   54.6602 C   0  0  0  0  0  0  0  0  0  0  0  0
   22.2194    7.2088   54.6723 C   0  0  0  0  0  0  0  0  0  0  0  0
   21.5103    6.0688   54.0514 C   0  0  0  0  0  0  0  0  0  0  0  0
   19.4820    5.4682   52.9315 C   0  0  0  0  0  0  0  0  0  0  0  0
   19.7385    4.0670   53.3577 C   0  0  0  0  0  0  0  0  0  0  0  0
   18.5619    3.4755   54.0915 C   0  0  0  0  0  0  0  0  0  0  0  0
   16.1147    3.6213   54.1248 C   0  0  0  0  0  0  0  0  0  0  0  0
   17.3920    4.4243   54.1401 C   0  0  0  0  0  0  0  0  0  0  0  0
   22.3541    9.5973   55.1941 C   0  0  0  0  0  0  0  0  0  0  0  0
   23.6800    9.3138   54.8614 O   0  0  0  0  0  0  0  0  0  0  0  0
   24.4885    9.4815   55.9825 C   0  0  0  0  0  0  0  0  0  0  0  0
   25.8898    9.1203   55.6066 C   0  0  0  0  0  0  0  0  0  0  0  0
   26.1653    8.4628   54.4213 C   0  0  0  0  0  0  0  0  0  0  0  0
   27.4493    8.1184   54.0514 C   0  0  0  0  0  0  0  0  0  0  0  0
   28.5193    8.4244   54.8669 C   0  0  0  0  0  0  0  0  0  0  0  0
   29.7993    8.0948   54.5243 F   0  0  0  0  0  0  0  0  0  0  0  0
   28.2514    9.0798   56.0502 C   0  0  0  0  0  0  0  0  0  0  0  0
   26.9568    9.4279   56.4247 C   0  0  0  0  0  0  0  0  0  0  0  0
 10 11  1  0  0  0
 11  9  1  0  0  0
  9  8  1  0  0  0
  8  7  1  0  0  0
  7  1  1  0  0  0
  1  2  1  0  0  0
  2  3  1  0  0  0
  3  4  1  0  0  0
  4 12  1  0  0  0
 12 13  1  0  0  0
 13 14  1  0  0  0
 14 15  1  0  0  0
 15 16  2  0  0  0
 16 17  1  0  0  0
 17 18  2  0  0  0
 18 19  1  0  0  0
 18 20  1  0  0  0
 20 21  2  0  0  0
  4  5  1  0  0  0
  5  6  1  0  0  0
  6  1  1  0  0  0
 21 15  1  0  0  0
M  END
> <minimizedAffinity>
7.22942

> <CNNscore>
0.6271789670

> <CNNaffinity>
5.4313988686

> <CNN_VS>
3.4064590931

> <CNNaffinity_variance>
0.3838768601

$$$$
[H]c1c([H])c(C([H])([H])OC([H])([H])C2([H])C([H])([H])C([H])([H])N(C([H])([H])C([H])([H])C([H])([H])C([H])([H])C([H])([H])[H])C([H])([H])C2([H])[H])c([H])c([H])c1F


 21 22  0  0  0  0  0  0  0  0999 V2000
   20.2416    8.0089   52.9978 N   0  0  0  0  0  0  0  0  0  0  0  0
   20.3997    7.9248   54.3965 C   0  0  0  0  0  0  0  0  0  0  0  0
   20.8695    9.1372   55.1040 C   0  0  0  0  0  0  0  0  0  0  0  0
   22.1502    9.5996   54.4196 C   0  0  0  0  0  0  0  0  0  0  0  0
   21.7223    9.9889   53.0214 C   0  0  0  0  0  0  0  0  0  0  0  0
   21.0203    8.9236   52.2730 C   0  0  0  0  0  0  0  0  0  0  0  0
   20.2230    6.6742   52.4570 C   0  0  0  0  0  0  0  0  0  0  0  0
   21.2795    5.7736   52.9897 C   0  0  0  0  0  0  0  0  0  0  0  0
   22.6482    6.4007   52.9120 C   0  0  0  0  0  0  0  0  0  0  0  0
   23.0172    5.9747   55.2981 C   0  0  0  0  0  0  0  0  0  0  0  0
   23.6001    5.8045   53.9168 C   0  0  0  0  0  0  0  0  0  0  0  0
   22.7184   10.8245   55.0963 C   0  0  0  0  0  0  0  0  0  0  0  0
   23.8432   10.4719   55.8443 O   0  0  0  0  0  0  0  0  0  0  0  0
   24.0930    9.1100   55.6977 C   0  0  0  0  0  0  0  0  0  0  0  0
   25.5527    8.9285   55.4302 C   0  0  0  0  0  0  0  0  0  0  0  0
   26.5042    9.3431   56.3446 C   0  0  0  0  0  0  0  0  0  0  0  0
   27.8570    9.1871   56.1216 C   0  0  0  0  0  0  0  0  0  0  0  0
   28.3124    8.6018   54.9581 C   0  0  0  0  0  0  0  0  0  0  0  0
   29.6454    8.4358   54.7132 F   0  0  0  0  0  0  0  0  0  0  0  0
   27.3689    8.1864   54.0424 C   0  0  0  0  0  0  0  0  0  0  0  0
   26.0040    8.3430   54.2658 C   0  0  0  0  0  0  0  0  0  0  0  0
 10 11  1  0  0  0
 11  9  1  0  0  0
  9  8  1  0  0  0
  8  7  1  0  0  0
  7  1  1  0  0  0
  1  2  1  0  0  0
  2  3  1  0  0  0
  3  4  1  0  0  0
  4 12  1  0  0  0
 12 13  1  0  0  0
 13 14  1  0  0  0
 14 15  1  0  0  0
 15 16  2  0  0  0
 16 17  1  0  0  0
 17 18  2  0  0  0
 18 19  1  0  0  0
 18 20  1  0  0  0
 20 21  2  0  0  0
  4  5  1  0  0  0
  5  6  1  0  0  0
  6  1  1  0  0  0
 21 15  1  0  0  0
M  END
> <minimizedAffinity>
3.19981

> <CNNscore>
0.6269312501

> <CNNaffinity>
5.5930175781

> <CNN_VS>
3.5064375401

> <CNNaffinity_variance>
0.5188056827

$$$$
[H]c1c([H])c(C([H])([H])OC([H])([H])C2([H])C([H])([H])C([H])([H])N(C([H])([H])C([H])([H])C([H])([H])C([H])([H])C([H])([H])[H])C([H])([H])C2([H])[H])c([H])c([H])c1F


 21 22  0  0  0  0  0  0  0  0999 V2000
   20.9798    7.0954   53.0570 N   0  0  0  0  0  0  0  0  0  0  0  0
   22.3750    6.9004   52.9957 C   0  0  0  0  0  0  0  0  0  0  0  0
   23.1489    7.1137   54.2394 C   0  0  0  0  0  0  0  0  0  0  0  0
   22.7968    8.4999   54.7658 C   0  0  0  0  0  0  0  0  0  0  0  0
   21.3273    8.4183   55.1167 C   0  0  0  0  0  0  0  0  0  0  0  0
   20.4520    7.9832   54.0065 C   0  0  0  0  0  0  0  0  0  0  0  0
   20.4832    7.2825   51.7181 C   0  0  0  0  0  0  0  0  0  0  0  0
   20.2682    8.7012   51.3281 C   0  0  0  0  0  0  0  0  0  0  0  0
   21.5304    9.5171   51.4469 C   0  0  0  0  0  0  0  0  0  0  0  0
   21.6293   11.9550   51.6875 C   0  0  0  0  0  0  0  0  0  0  0  0
   21.3749   10.6593   52.4177 C   0  0  0  0  0  0  0  0  0  0  0  0
   23.5653    8.8154   56.0272 C   0  0  0  0  0  0  0  0  0  0  0  0
   24.0765   10.1128   55.9568 O   0  0  0  0  0  0  0  0  0  0  0  0
   25.3229   10.1574   56.5755 C   0  0  0  0  0  0  0  0  0  0  0  0
   26.2764    9.3386   55.7658 C   0  0  0  0  0  0  0  0  0  0  0  0
   27.6122    9.2455   56.1126 C   0  0  0  0  0  0  0  0  0  0  0  0
   28.5122    8.4968   55.3823 C   0  0  0  0  0  0  0  0  0  0  0  0
   28.1012    7.8042   54.2620 C   0  0  0  0  0  0  0  0  0  0  0  0
   28.9716    7.0563   53.5220 F   0  0  0  0  0  0  0  0  0  0  0  0
   26.7708    7.8930   53.9107 C   0  0  0  0  0  0  0  0  0  0  0  0
   25.8616    8.6478   54.6464 C   0  0  0  0  0  0  0  0  0  0  0  0
 10 11  1  0  0  0
 11  9  1  0  0  0
  9  8  1  0  0  0
  8  7  1  0  0  0
  7  1  1  0  0  0
  1  2  1  0  0  0
  2  3  1  0  0  0
  3  4  1  0  0  0
  4 12  1  0  0  0
 12 13  1  0  0  0
 13 14  1  0  0  0
 14 15  1  0  0  0
 15 16  2  0  0  0
 16 17  1  0  0  0
 17 18  2  0  0  0
 18 19  1  0  0  0
 18 20  1  0  0  0
 20 21  2  0  0  0
  4  5  1  0  0  0
  5  6  1  0  0  0
  6  1  1  0  0  0
 21 15  1  0  0  0
M  END
> <minimizedAffinity>
6.77713

> <CNNscore>
0.6237775087

> <CNNaffinity>
5.5494027138

> <CNN_VS>
3.4615926743

> <CNNaffinity_variance>
0.2419005930

$$$$
[H]c1c([H])c(C([H])([H])OC([H])([H])C2([H])C([H])([H])C([H])([H])N(C([H])([H])C([H])([H])C([H])([H])C([H])([H])C([H])([H])[H])C([H])([H])C2([H])[H])c([H])c([H])c1F


 21 22  0  0  0  0  0  0  0  0999 V2000
   25.4147    8.1127   54.0000 N   0  0  0  0  0  0  0  0  0  0  0  0
   25.1020    9.0687   54.9883 C   0  0  0  0  0  0  0  0  0  0  0  0
   23.6827    9.4646   55.1297 C   0  0  0  0  0  0  0  0  0  0  0  0
   23.1880    9.8948   53.7539 C   0  0  0  0  0  0  0  0  0  0  0  0
   23.2605    8.6423   52.9081 C   0  0  0  0  0  0  0  0  0  0  0  0
   24.5934    8.0023   52.8679 C   0  0  0  0  0  0  0  0  0  0  0  0
   26.8241    8.1917   53.7147 C   0  0  0  0  0  0  0  0  0  0  0  0
   27.7031    8.1602   54.9136 C   0  0  0  0  0  0  0  0  0  0  0  0
   28.3627    9.4922   55.1654 C   0  0  0  0  0  0  0  0  0  0  0  0
   27.2424    9.1468   57.3187 C   0  0  0  0  0  0  0  0  0  0  0  0
   28.3944    9.8381   56.6319 C   0  0  0  0  0  0  0  0  0  0  0  0
   21.7469   10.3434   53.8085 C   0  0  0  0  0  0  0  0  0  0  0  0
   21.3977   10.6518   55.1246 O   0  0  0  0  0  0  0  0  0  0  0  0
   20.5145    9.6913   55.6104 C   0  0  0  0  0  0  0  0  0  0  0  0
   20.8573    8.3796   54.9801 C   0  0  0  0  0  0  0  0  0  0  0  0
   21.7325    7.4998   55.5910 C   0  0  0  0  0  0  0  0  0  0  0  0
   22.0651    6.2836   55.0303 C   0  0  0  0  0  0  0  0  0  0  0  0
   21.5255    5.8990   53.8202 C   0  0  0  0  0  0  0  0  0  0  0  0
   21.8382    4.7012   53.2440 F   0  0  0  0  0  0  0  0  0  0  0  0
   20.6523    6.7717   53.2059 C   0  0  0  0  0  0  0  0  0  0  0  0
   20.3157    7.9988   53.7701 C   0  0  0  0  0  0  0  0  0  0  0  0
 10 11  1  0  0  0
 11  9  1  0  0  0
  9  8  1  0  0  0
  8  7  1  0  0  0
  7  1  1  0  0  0
  1  2  1  0  0  0
  2  3  1  0  0  0
  3  4  1  0  0  0
  4 12  1  0  0  0
 12 13  1  0  0  0
 13 14  1  0  0  0
 14 15  1  0  0  0
 15 16  2  0  0  0
 16 17  1  0  0  0
 17 18  2  0  0  0
 18 19  1  0  0  0
 18 20  1  0  0  0
 20 21  2  0  0  0
  4  5  1  0  0  0
  5  6  1  0  0  0
  6  1  1  0  0  0
 21 15  1  0  0  0
M  END
> <minimizedAffinity>
6.52348

> <CNNscore>
0.5950586796

> <CNNaffinity>
5.5467443466

> <CNN_VS>
3.3006384373

> <CNNaffinity_variance>
0.3495664001

$$$$
[H]c1c([H])c(C([H])([H])OC([H])([H])C2([H])C([H])([H])C([H])([H])N(C([H])([H])C([H])([H])C([H])([H])C([H])([H])C([H])([H])[H])C([H])([H])C2([H])[H])c([H])c([H])c1F


 21 22  0  0  0  0  0  0  0  0999 V2000
   20.5516    8.1523   54.9986 N   0  0  0  0  0  0  0  0  0  0  0  0
   20.5729    8.0127   53.5956 C   0  0  0  0  0  0  0  0  0  0  0  0
   21.3770    6.9049   53.0323 C   0  0  0  0  0  0  0  0  0  0  0  0
   22.7833    7.0210   53.6078 C   0  0  0  0  0  0  0  0  0  0  0  0
   22.6131    6.7905   55.0935 C   0  0  0  0  0  0  0  0  0  0  0  0
   21.6444    7.6949   55.7503 C   0  0  0  0  0  0  0  0  0  0  0  0
   20.1171    9.4871   55.3205 C   0  0  0  0  0  0  0  0  0  0  0  0
   21.2153   10.4781   55.4717 C   0  0  0  0  0  0  0  0  0  0  0  0
   22.1322   10.4920   54.2750 C   0  0  0  0  0  0  0  0  0  0  0  0
   21.4017   10.4437   51.9351 C   0  0  0  0  0  0  0  0  0  0  0  0
   21.5767   11.3241   53.1480 C   0  0  0  0  0  0  0  0  0  0  0  0
   23.6861    5.9392   53.0639 C   0  0  0  0  0  0  0  0  0  0  0  0
   25.0063    6.3928   53.0414 O   0  0  0  0  0  0  0  0  0  0  0  0
   25.0210    7.7844   53.0003 C   0  0  0  0  0  0  0  0  0  0  0  0
   25.8878    8.2760   54.1149 C   0  0  0  0  0  0  0  0  0  0  0  0
   27.2670    8.2374   54.0184 C   0  0  0  0  0  0  0  0  0  0  0  0
   28.0890    8.6848   55.0324 C   0  0  0  0  0  0  0  0  0  0  0  0
   27.5517    9.1942   56.1967 C   0  0  0  0  0  0  0  0  0  0  0  0
   28.3428    9.6432   57.2150 F   0  0  0  0  0  0  0  0  0  0  0  0
   26.1773    9.2353   56.2992 C   0  0  0  0  0  0  0  0  0  0  0  0
   25.3468    8.7845   55.2772 C   0  0  0  0  0  0  0  0  0  0  0  0
 10 11  1  0  0  0
 11  9  1  0  0  0
  9  8  1  0  0  0
  8  7  1  0  0  0
  7  1  1  0  0  0
  1  2  1  0  0  0
  2  3  1  0  0  0
  3  4  1  0  0  0
  4 12  1  0  0  0
 12 13  1  0  0  0
 13 14  1  0  0  0
 14 15  1  0  0  0
 15 16  2  0  0  0
 16 17  1  0  0  0
 17 18  2  0  0  0
 18 19  1  0  0  0
 18 20  1  0  0  0
 20 21  2  0  0  0
  4  5  1  0  0  0
  5  6  1  0  0  0
  6  1  1  0  0  0
 21 15  1  0  0  0
M  END
> <minimizedAffinity>
1.46671

> <CNNscore>
0.5950204730

> <CNNaffinity>
5.5924062729

> <CNN_VS>
3.3275961876

> <CNNaffinity_variance>
0.6526063681

$$$$
[H]c1c([H])c(C([H])([H])OC([H])([H])C2([H])C([H])([H])C([H])([H])N(C([H])([H])C([H])([H])C([H])([H])C([H])([H])C([H])([H])[H])C([H])([H])C2([H])[H])c([H])c([H])c1F


 21 22  0  0  0  0  0  0  0  0999 V2000
   20.7261    6.4263   53.1887 N   0  0  0  0  0  0  0  0  0  0  0  0
   20.8979    7.8169   53.0308 C   0  0  0  0  0  0  0  0  0  0  0  0
   22.2845    8.3272   52.9416 C   0  0  0  0  0  0  0  0  0  0  0  0
   23.0454    7.7999   54.1522 C   0  0  0  0  0  0  0  0  0  0  0  0
   23.0684    6.2980   53.9700 C   0  0  0  0  0  0  0  0  0  0  0  0
   21.7358    5.6763   53.8104 C   0  0  0  0  0  0  0  0  0  0  0  0
   19.3992    6.1820   53.6926 C   0  0  0  0  0  0  0  0  0  0  0  0
   18.9452    4.7700   53.5875 C   0  0  0  0  0  0  0  0  0  0  0  0
   17.4419    4.6608   53.5584 C   0  0  0  0  0  0  0  0  0  0  0  0
   16.3145    3.7327   55.5279 C   0  0  0  0  0  0  0  0  0  0  0  0
   16.9557    3.3897   54.2058 C   0  0  0  0  0  0  0  0  0  0  0  0
   24.4722    8.2954   54.1576 C   0  0  0  0  0  0  0  0  0  0  0  0
   24.9700    8.3158   52.8534 O   0  0  0  0  0  0  0  0  0  0  0  0
   26.3475    8.1148   52.8765 C   0  0  0  0  0  0  0  0  0  0  0  0
   26.8566    8.5199   54.2226 C   0  0  0  0  0  0  0  0  0  0  0  0
   25.9888    8.8975   55.2314 C   0  0  0  0  0  0  0  0  0  0  0  0
   26.4331    9.2755   56.4819 C   0  0  0  0  0  0  0  0  0  0  0  0
   27.7820    9.2892   56.7716 C   0  0  0  0  0  0  0  0  0  0  0  0
   28.2476    9.6591   58.0008 F   0  0  0  0  0  0  0  0  0  0  0  0
   28.6525    8.9139   55.7702 C   0  0  0  0  0  0  0  0  0  0  0  0
   28.2059    8.5323   54.5083 C   0  0  0  0  0  0  0  0  0  0  0  0
 10 11  1  0  0  0
 11  9  1  0  0  0
  9  8  1  0  0  0
  8  7  1  0  0  0
  7  1  1  0  0  0
  1  2  1  0  0  0
  2  3  1  0  0  0
  3  4  1  0  0  0
  4 12  1  0  0  0
 12 13  1  0  0  0
 13 14  1  0  0  0
 14 15  1  0  0  0
 15 16  2  0  0  0
 16 17  1  0  0  0
 17 18  2  0  0  0
 18 19  1  0  0  0
 18 20  1  0  0  0
 20 21  2  0  0  0
  4  5  1  0  0  0
  5  6  1  0  0  0
  6  1  1  0  0  0
 21 15  1  0  0  0
M  END
> <minimizedAffinity>
8.87629

> <CNNscore>
0.5794922709

> <CNNaffinity>
5.3046817780

> <CNN_VS>
3.0740220547

> <CNNaffinity_variance>
0.3824790418

$$$$
[H]c1c([H])c(C([H])([H])OC([H])([H])C2([H])C([H])([H])C([H])([H])N(C([H])([H])C([H])([H])C([H])([H])C([H])([H])C([H])([H])[H])C([H])([H])C2([H])[H])c([H])c([H])c1F


 21 22  0  0  0  0  0  0  0  0999 V2000
   27.3477    8.3766   54.7592 N   0  0  0  0  0  0  0  0  0  0  0  0
   26.3559    7.8288   55.5986 C   0  0  0  0  0  0  0  0  0  0  0  0
   25.3148    6.9881   54.9657 C   0  0  0  0  0  0  0  0  0  0  0  0
   24.7047    7.7952   53.8260 C   0  0  0  0  0  0  0  0  0  0  0  0
   25.8366    7.9895   52.8409 C   0  0  0  0  0  0  0  0  0  0  0  0
   27.0477    8.6195   53.4104 C   0  0  0  0  0  0  0  0  0  0  0  0
   27.9708    9.4796   55.4443 C   0  0  0  0  0  0  0  0  0  0  0  0
   27.4568    9.7279   56.8173 C   0  0  0  0  0  0  0  0  0  0  0  0
   28.1822    8.9029   57.8498 C   0  0  0  0  0  0  0  0  0  0  0  0
   28.5725   11.1973   58.6211 C   0  0  0  0  0  0  0  0  0  0  0  0
   28.6622    9.7412   59.0066 C   0  0  0  0  0  0  0  0  0  0  0  0
   23.6074    7.0204   53.1356 C   0  0  0  0  0  0  0  0  0  0  0  0
   23.3063    7.6180   51.9103 O   0  0  0  0  0  0  0  0  0  0  0  0
   21.9469    7.9145   51.8573 C   0  0  0  0  0  0  0  0  0  0  0  0
   21.6003    8.7356   53.0576 C   0  0  0  0  0  0  0  0  0  0  0  0
   21.0747    8.1516   54.1959 C   0  0  0  0  0  0  0  0  0  0  0  0
   20.7466    8.8869   55.3165 C   0  0  0  0  0  0  0  0  0  0  0  0
   20.9357   10.2535   55.3380 C   0  0  0  0  0  0  0  0  0  0  0  0
   20.6193   11.0040   56.4339 F   0  0  0  0  0  0  0  0  0  0  0  0
   21.4594   10.8419   54.2062 C   0  0  0  0  0  0  0  0  0  0  0  0
   21.7909   10.1015   53.0751 C   0  0  0  0  0  0  0  0  0  0  0  0
 10 11  1  0  0  0
 11  9  1  0  0  0
  9  8  1  0  0  0
  8  7  1  0  0  0
  7  1  1  0  0  0
  1  2  1  0  0  0
  2  3  1  0  0  0
  3  4  1  0  0  0
  4 12  1  0  0  0
 12 13  1  0  0  0
 13 14  1  0  0  0
 14 15  1  0  0  0
 15 16  2  0  0  0
 16 17  1  0  0  0
 17 18  2  0  0  0
 18 19  1  0  0  0
 18 20  1  0  0  0
 20 21  2  0  0  0
  4  5  1  0  0  0
  5  6  1  0  0  0
  6  1  1  0  0  0
 21 15  1  0  0  0
M  END
> <minimizedAffinity>
5.68982

> <CNNscore>
0.5706845522

> <CNNaffinity>
5.3756246567

> <CNN_VS>
3.0677859783

> <CNNaffinity_variance>
0.3528622389

$$$$
[H]c1c([H])c(C([H])([H])OC([H])([H])C2([H])C([H])([H])C([H])([H])N(C([H])([H])C([H])([H])C([H])([H])C([H])([H])C([H])([H])[H])C([H])([H])C2([H])[H])c([H])c([H])c1F


 21 22  0  0  0  0  0  0  0  0999 V2000
   28.1627    8.8119   57.6442 N   0  0  0  0  0  0  0  0  0  0  0  0
   26.9855    9.5860   57.5858 C   0  0  0  0  0  0  0  0  0  0  0  0
   25.9783    9.2198   56.5647 C   0  0  0  0  0  0  0  0  0  0  0  0
   26.6884    9.1726   55.2171 C   0  0  0  0  0  0  0  0  0  0  0  0
   27.6841    8.0405   55.3444 C   0  0  0  0  0  0  0  0  0  0  0  0
   28.6178    8.1665   56.4846 C   0  0  0  0  0  0  0  0  0  0  0  0
   29.1701    9.5612   58.3498 C   0  0  0  0  0  0  0  0  0  0  0  0
   28.8998   11.0196   58.4546 C   0  0  0  0  0  0  0  0  0  0  0  0
   29.1106   11.5338   59.8560 C   0  0  0  0  0  0  0  0  0  0  0  0
   27.9274   13.6171   60.3764 C   0  0  0  0  0  0  0  0  0  0  0  0
   29.2333   13.0353   59.8939 C   0  0  0  0  0  0  0  0  0  0  0  0
   25.7255    8.8301   54.1051 C   0  0  0  0  0  0  0  0  0  0  0  0
   26.0410    7.5770   53.5764 O   0  0  0  0  0  0  0  0  0  0  0  0
   24.8794    6.9531   53.1294 C   0  0  0  0  0  0  0  0  0  0  0  0
   23.7080    7.7563   53.5963 C   0  0  0  0  0  0  0  0  0  0  0  0
   22.9909    8.5508   52.7201 C   0  0  0  0  0  0  0  0  0  0  0  0
   21.9063    9.3014   53.1257 C   0  0  0  0  0  0  0  0  0  0  0  0
   21.4948    9.2832   54.4425 C   0  0  0  0  0  0  0  0  0  0  0  0
   20.4251   10.0166   54.8695 F   0  0  0  0  0  0  0  0  0  0  0  0
   22.2056    8.4933   55.3212 C   0  0  0  0  0  0  0  0  0  0  0  0
   23.2998    7.7356   54.9136 C   0  0  0  0  0  0  0  0  0  0  0  0
 10 11  1  0  0  0
 11  9  1  0  0  0
  9  8  1  0  0  0
  8  7  1  0  0  0
  7  1  1  0  0  0
  1  2  1  0  0  0
  2  3  1  0  0  0
  3  4  1  0  0  0
  4 12  1  0  0  0
 12 13  1  0  0  0
 13 14  1  0  0  0
 14 15  1  0  0  0
 15 16  2  0  0  0
 16 17  1  0  0  0
 17 18  2  0  0  0
 18 19  1  0  0  0
 18 20  1  0  0  0
 20 21  2  0  0  0
  4  5  1  0  0  0
  5  6  1  0  0  0
  6  1  1  0  0  0
 21 15  1  0  0  0
M  END
> <minimizedAffinity>
9.16975

> <CNNscore>
0.5692841411

> <CNNaffinity>
5.2400512695

> <CNN_VS>
2.9830780029

> <CNNaffinity_variance>
0.5294598341

$$$$
[H]c1c([H])c(C([H])([H])OC([H])([H])C2([H])C([H])([H])C([H])([H])N(C([H])([H])C([H])([H])C([H])([H])C([H])([H])C([H])([H])[H])C([H])([H])C2([H])[H])c([H])c([H])c1F


 21 22  0  0  0  0  0  0  0  0999 V2000
   20.8393    8.0303   52.0280 N   0  0  0  0  0  0  0  0  0  0  0  0
   22.2154    7.8936   51.7524 C   0  0  0  0  0  0  0  0  0  0  0  0
   22.9419    6.7982   52.4333 C   0  0  0  0  0  0  0  0  0  0  0  0
   22.6779    6.9334   53.9282 C   0  0  0  0  0  0  0  0  0  0  0  0
   21.1911    6.6979   54.0808 C   0  0  0  0  0  0  0  0  0  0  0  0
   20.3391    7.5873   53.2617 C   0  0  0  0  0  0  0  0  0  0  0  0
   20.4260    9.3583   51.6538 C   0  0  0  0  0  0  0  0  0  0  0  0
   21.4220   10.4235   51.9443 C   0  0  0  0  0  0  0  0  0  0  0  0
   21.2563   10.9883   53.3322 C   0  0  0  0  0  0  0  0  0  0  0  0
   21.4969   10.0266   55.5746 C   0  0  0  0  0  0  0  0  0  0  0  0
   22.2339   10.3848   54.3076 C   0  0  0  0  0  0  0  0  0  0  0  0
   23.4064    5.8655   54.7092 C   0  0  0  0  0  0  0  0  0  0  0  0
   24.7790    6.1203   54.6906 O   0  0  0  0  0  0  0  0  0  0  0  0
   25.0278    7.2841   53.9680 C   0  0  0  0  0  0  0  0  0  0  0  0
   26.0077    8.1112   54.7367 C   0  0  0  0  0  0  0  0  0  0  0  0
   25.6128    8.8467   55.8395 C   0  0  0  0  0  0  0  0  0  0  0  0
   26.4972    9.6178   56.5657 C   0  0  0  0  0  0  0  0  0  0  0  0
   27.8284    9.6811   56.2085 C   0  0  0  0  0  0  0  0  0  0  0  0
   28.7238   10.4364   56.9101 F   0  0  0  0  0  0  0  0  0  0  0  0
   28.2286    8.9502   55.1099 C   0  0  0  0  0  0  0  0  0  0  0  0
   27.3377    8.1720   54.3764 C   0  0  0  0  0  0  0  0  0  0  0  0
 10 11  1  0  0  0
 11  9  1  0  0  0
  9  8  1  0  0  0
  8  7  1  0  0  0
  7  1  1  0  0  0
  1  2  1  0  0  0
  2  3  1  0  0  0
  3  4  1  0  0  0
  4 12  1  0  0  0
 12 13  1  0  0  0
 13 14  1  0  0  0
 14 15  1  0  0  0
 15 16  2  0  0  0
 16 17  1  0  0  0
 17 18  2  0  0  0
 18 19  1  0  0  0
 18 20  1  0  0  0
 20 21  2  0  0  0
  4  5  1  0  0  0
  5  6  1  0  0  0
  6  1  1  0  0  0
 21 15  1  0  0  0
M  END
> <minimizedAffinity>
2.53569

> <CNNscore>
0.5605208874

> <CNNaffinity>
5.5055990219

> <CNN_VS>
3.0860033035

> <CNNaffinity_variance>
0.7606966496

$$$$
[H]c1c([H])c([H])c([C@@]2([H])C([H])([H])[C@]2([H])N([H])C([H])([H])C2([H])C([H])([H])C([H])([H])N([H])C([H])([H])C2([H])[H])c([H])c1[H]


 19 21  0  0  0  0  0  0  0  0999 V2000
   22.3508    8.3573   54.5912 N   0  0  0  0  0  0  0  0  0  0  0  0
   21.8164    9.0174   55.1783 H   0  0  0  0  0  0  0  0  0  0  0  0
   24.8257    7.9833   54.0925 C   0  0  0  0  0  0  0  0  0  0  0  0
   24.1969    6.7198   54.6878 C   0  0  0  0  0  0  0  0  0  0  0  0
   23.7053    8.1245   55.0529 C   0  0  0  0  0  0  0  0  0  0  0  0
   28.6567    9.2197   55.6206 C   0  0  0  0  0  0  0  0  0  0  0  0
   27.5088    9.3214   56.3777 C   0  0  0  0  0  0  0  0  0  0  0  0
   26.2776    8.9140   55.8610 C   0  0  0  0  0  0  0  0  0  0  0  0
   26.1573    8.4010   54.5932 C   0  0  0  0  0  0  0  0  0  0  0  0
   27.3095    8.3022   53.8416 C   0  0  0  0  0  0  0  0  0  0  0  0
   28.5402    8.7065   54.3504 C   0  0  0  0  0  0  0  0  0  0  0  0
   22.4488    8.7729   53.2073 C   0  0  0  0  0  0  0  0  0  0  0  0
   22.2086    7.6609   52.2293 C   0  0  0  0  0  0  0  0  0  0  0  0
   21.0078    7.9960   51.3914 C   0  0  0  0  0  0  0  0  0  0  0  0
   19.7151    8.0204   52.1403 C   0  0  0  0  0  0  0  0  0  0  0  0
   19.7547    7.2371   53.3629 N   0  0  0  0  0  0  0  0  0  0  0  0
   20.4976    6.0139   53.0224 C   0  0  0  0  0  0  0  0  0  0  0  0
   21.9704    6.3971   53.0486 C   0  0  0  0  0  0  0  0  0  0  0  0
   18.7987    7.0281   53.6681 H   0  0  0  0  0  0  0  0  0  0  0  0
  6  7  2  0  0  0
  7  8  1  0  0  0
  8  9  2  0  0  0
  9  3  1  0  0  0
  3  4  1  0  0  0
  4  5  1  0  0  0
  5  1  1  0  0  0
  1 12  1  0  0  0
 12 13  1  0  0  0
 13 14  1  0  0  0
 14 15  1  0  0  0
 15 16  1  0  0  0
 16 17  1  0  0  0
 17 18  1  0  0  0
  9 10  1  0  0  0
 10 11  2  0  0  0
 11  6  1  0  0  0
  5  3  1  0  0  0
 18 13  1  0  0  0
  1  2  1  0  0  0
 16 19  1  0  0  0
M  END
> <minimizedAffinity>
1.31435

> <CNNscore>
0.6082708240

> <CNNaffinity>
5.1941313744

> <CNN_VS>
3.1594386101

> <CNNaffinity_variance>
0.6998323202

$$$$
[H]c1c([H])c([H])c([C@@]2([H])C([H])([H])[C@]2([H])N([H])C([H])([H])C2([H])C([H])([H])C([H])([H])N([H])C([H])([H])C2([H])[H])c([H])c1[H]


 19 21  0  0  0  0  0  0  0  0999 V2000
   20.6738    6.7544   53.5307 N   0  0  0  0  0  0  0  0  0  0  0  0
   21.5833    6.4255   53.8922 H   0  0  0  0  0  0  0  0  0  0  0  0
   19.3929    4.6061   54.0386 C   0  0  0  0  0  0  0  0  0  0  0  0
   20.5183    4.3403   53.0341 C   0  0  0  0  0  0  0  0  0  0  0  0
   19.7902    5.6867   53.1048 C   0  0  0  0  0  0  0  0  0  0  0  0
   15.5123    2.8780   53.3354 C   0  0  0  0  0  0  0  0  0  0  0  0
   15.6656    4.0419   54.0585 C   0  0  0  0  0  0  0  0  0  0  0  0
   16.9340    4.5837   54.2736 C   0  0  0  0  0  0  0  0  0  0  0  0
   18.0694    3.9894   53.7812 C   0  0  0  0  0  0  0  0  0  0  0  0
   17.9086    2.8254   53.0589 C   0  0  0  0  0  0  0  0  0  0  0  0
   16.6470    2.2797   52.8407 C   0  0  0  0  0  0  0  0  0  0  0  0
   20.7987    7.6630   52.4098 C   0  0  0  0  0  0  0  0  0  0  0  0
   21.6936    8.8352   52.6857 C   0  0  0  0  0  0  0  0  0  0  0  0
   23.1058    8.3475   52.8414 C   0  0  0  0  0  0  0  0  0  0  0  0
   23.3408    7.5007   54.0496 C   0  0  0  0  0  0  0  0  0  0  0  0
   22.3567    7.7209   55.0951 N   0  0  0  0  0  0  0  0  0  0  0  0
   22.1353    9.1749   55.1267 C   0  0  0  0  0  0  0  0  0  0  0  0
   21.1909    9.4802   53.9727 C   0  0  0  0  0  0  0  0  0  0  0  0
   22.7203    7.3727   55.9879 H   0  0  0  0  0  0  0  0  0  0  0  0
  6  7  2  0  0  0
  7  8  1  0  0  0
  8  9  2  0  0  0
  9  3  1  0  0  0
  3  4  1  0  0  0
  4  5  1  0  0  0
  5  1  1  0  0  0
  1 12  1  0  0  0
 12 13  1  0  0  0
 13 14  1  0  0  0
 14 15  1  0  0  0
 15 16  1  0  0  0
 16 17  1  0  0  0
 17 18  1  0  0  0
  9 10  1  0  0  0
 10 11  2  0  0  0
 11  6  1  0  0  0
  5  3  1  0  0  0
 18 13  1  0  0  0
  1  2  1  0  0  0
 16 19  1  0  0  0
M  END
> <minimizedAffinity>
11.70680

> <CNNscore>
0.5496311188

> <CNNaffinity>
5.1988382339

> <CNN_VS>
2.8574433327

> <CNNaffinity_variance>
0.3690167964

$$$$
[H]c1c([H])c([H])c([C@@]2([H])C([H])([H])[C@]2([H])N([H])C([H])([H])C2([H])C([H])([H])C([H])([H])N([H])C([H])([H])C2([H])[H])c([H])c1[H]


 19 21  0  0  0  0  0  0  0  0999 V2000
   21.1881    7.8016   55.9233 N   0  0  0  0  0  0  0  0  0  0  0  0
   20.5406    6.9997   55.8623 H   0  0  0  0  0  0  0  0  0  0  0  0
   21.8630    9.9078   54.6497 C   0  0  0  0  0  0  0  0  0  0  0  0
   20.8739   10.2462   55.7692 C   0  0  0  0  0  0  0  0  0  0  0  0
   20.8487    8.8992   55.0390 C   0  0  0  0  0  0  0  0  0  0  0  0
   21.2966   11.8305   50.8389 C   0  0  0  0  0  0  0  0  0  0  0  0
   21.6803   12.5400   51.9572 C   0  0  0  0  0  0  0  0  0  0  0  0
   21.8579   11.8950   53.1824 C   0  0  0  0  0  0  0  0  0  0  0  0
   21.6610   10.5438   53.3257 C   0  0  0  0  0  0  0  0  0  0  0  0
   21.2773    9.8405   52.2030 C   0  0  0  0  0  0  0  0  0  0  0  0
   21.0983   10.4772   50.9785 C   0  0  0  0  0  0  0  0  0  0  0  0
   22.5637    7.4486   55.6391 C   0  0  0  0  0  0  0  0  0  0  0  0
   22.7028    6.2499   54.7477 C   0  0  0  0  0  0  0  0  0  0  0  0
   24.1561    6.0413   54.4303 C   0  0  0  0  0  0  0  0  0  0  0  0
   24.7680    7.1131   53.5882 C   0  0  0  0  0  0  0  0  0  0  0  0
   23.7870    7.8536   52.8141 N   0  0  0  0  0  0  0  0  0  0  0  0
   22.8349    6.8471   52.3198 C   0  0  0  0  0  0  0  0  0  0  0  0
   21.9021    6.5451   53.4840 C   0  0  0  0  0  0  0  0  0  0  0  0
   24.2551    8.3435   52.0450 H   0  0  0  0  0  0  0  0  0  0  0  0
  6  7  2  0  0  0
  7  8  1  0  0  0
  8  9  2  0  0  0
  9  3  1  0  0  0
  3  4  1  0  0  0
  4  5  1  0  0  0
  5  1  1  0  0  0
  1 12  1  0  0  0
 12 13  1  0  0  0
 13 14  1  0  0  0
 14 15  1  0  0  0
 15 16  1  0  0  0
 16 17  1  0  0  0
 17 18  1  0  0  0
  9 10  1  0  0  0
 10 11  2  0  0  0
 11  6  1  0  0  0
  5  3  1  0  0  0
 18 13  1  0  0  0
  1  2  1  0  0  0
 16 19  1  0  0  0
M  END
> <minimizedAffinity>
3.02009

> <CNNscore>
0.5316150188

> <CNNaffinity>
5.2421822548

> <CNN_VS>
2.7868227959

> <CNNaffinity_variance>
0.1287099272

$$$$
[H]c1c([H])c([H])c([C@@]2([H])C([H])([H])[C@]2([H])N([H])C([H])([H])C2([H])C([H])([H])C([H])([H])N([H])C([H])([H])C2([H])[H])c([H])c1[H]


 19 21  0  0  0  0  0  0  0  0999 V2000
   21.5149    9.3691   54.2869 N   0  0  0  0  0  0  0  0  0  0  0  0
   20.8450    9.8127   54.9354 H   0  0  0  0  0  0  0  0  0  0  0  0
   23.7056    8.6913   55.4073 C   0  0  0  0  0  0  0  0  0  0  0  0
   23.1056    9.9226   56.0930 C   0  0  0  0  0  0  0  0  0  0  0  0
   22.9040    9.6419   54.6001 C   0  0  0  0  0  0  0  0  0  0  0  0
   27.9513    8.7129   54.6912 C   0  0  0  0  0  0  0  0  0  0  0  0
   27.4149    9.1758   55.8740 C   0  0  0  0  0  0  0  0  0  0  0  0
   26.0349    9.1589   56.0838 C   0  0  0  0  0  0  0  0  0  0  0  0
   25.1629    8.6869   55.1342 C   0  0  0  0  0  0  0  0  0  0  0  0
   25.7064    8.2256   53.9535 C   0  0  0  0  0  0  0  0  0  0  0  0
   27.0813    8.2396   53.7377 C   0  0  0  0  0  0  0  0  0  0  0  0
   21.3161    9.7569   52.9057 C   0  0  0  0  0  0  0  0  0  0  0  0
   21.7569    8.7140   51.9213 C   0  0  0  0  0  0  0  0  0  0  0  0
   20.5599    7.9230   51.4765 C   0  0  0  0  0  0  0  0  0  0  0  0
   19.9388    7.0829   52.5445 C   0  0  0  0  0  0  0  0  0  0  0  0
   20.8577    6.7713   53.6254 N   0  0  0  0  0  0  0  0  0  0  0  0
   22.1439    6.4761   52.9753 C   0  0  0  0  0  0  0  0  0  0  0  0
   22.7647    7.8253   52.6422 C   0  0  0  0  0  0  0  0  0  0  0  0
   20.5061    5.9668   54.1542 H   0  0  0  0  0  0  0  0  0  0  0  0
  6  7  2  0  0  0
  7  8  1  0  0  0
  8  9  2  0  0  0
  9  3  1  0  0  0
  3  4  1  0  0  0
  4  5  1  0  0  0
  5  1  1  0  0  0
  1 12  1  0  0  0
 12 13  1  0  0  0
 13 14  1  0  0  0
 14 15  1  0  0  0
 15 16  1  0  0  0
 16 17  1  0  0  0
 17 18  1  0  0  0
  9 10  1  0  0  0
 10 11  2  0  0  0
 11  6  1  0  0  0
  5  3  1  0  0  0
 18 13  1  0  0  0
  1  2  1  0  0  0
 16 19  1  0  0  0
M  END
> <minimizedAffinity>
0.14065

> <CNNscore>
0.5245825052

> <CNNaffinity>
5.5074872971

> <CNN_VS>
2.8891315460

> <CNNaffinity_variance>
0.5065141320

$$$$
[H]c1c([H])c([H])c([C@@]2([H])C([H])([H])[C@]2([H])N([H])C([H])([H])C2([H])C([H])([H])C([H])([H])N([H])C([H])([H])C2([H])[H])c([H])c1[H]


 19 21  0  0  0  0  0  0  0  0999 V2000
   21.3170    6.2781   52.0699 N   0  0  0  0  0  0  0  0  0  0  0  0
   21.2619    5.6370   51.2625 H   0  0  0  0  0  0  0  0  0  0  0  0
   20.5093    8.6986   52.0201 C   0  0  0  0  0  0  0  0  0  0  0  0
   20.5577    8.1152   50.6046 C   0  0  0  0  0  0  0  0  0  0  0  0
   21.5249    7.6658   51.7049 C   0  0  0  0  0  0  0  0  0  0  0  0
   22.0180   12.6984   52.5350 C   0  0  0  0  0  0  0  0  0  0  0  0
   21.6474   12.2189   51.2965 C   0  0  0  0  0  0  0  0  0  0  0  0
   21.1608   10.9183   51.1539 C   0  0  0  0  0  0  0  0  0  0  0  0
   21.0315   10.0709   52.2262 C   0  0  0  0  0  0  0  0  0  0  0  0
   21.4040   10.5572   53.4620 C   0  0  0  0  0  0  0  0  0  0  0  0
   21.8900   11.8527   53.6113 C   0  0  0  0  0  0  0  0  0  0  0  0
   22.3679    5.9319   53.0044 C   0  0  0  0  0  0  0  0  0  0  0  0
   22.9502    7.1168   53.7170 C   0  0  0  0  0  0  0  0  0  0  0  0
   24.1303    6.6678   54.5307 C   0  0  0  0  0  0  0  0  0  0  0  0
   23.7903    5.7683   55.6742 C   0  0  0  0  0  0  0  0  0  0  0  0
   22.4109    5.9028   56.1090 N   0  0  0  0  0  0  0  0  0  0  0  0
   22.1250    7.3453   56.0699 C   0  0  0  0  0  0  0  0  0  0  0  0
   21.8496    7.6785   54.6105 C   0  0  0  0  0  0  0  0  0  0  0  0
   22.3102    5.5213   57.0550 H   0  0  0  0  0  0  0  0  0  0  0  0
  6  7  2  0  0  0
  7  8  1  0  0  0
  8  9  2  0  0  0
  9  3  1  0  0  0
  3  4  1  0  0  0
  4  5  1  0  0  0
  5  1  1  0  0  0
  1 12  1  0  0  0
 12 13  1  0  0  0
 13 14  1  0  0  0
 14 15  1  0  0  0
 15 16  1  0  0  0
 16 17  1  0  0  0
 17 18  1  0  0  0
  9 10  1  0  0  0
 10 11  2  0  0  0
 11  6  1  0  0  0
  5  3  1  0  0  0
 18 13  1  0  0  0
  1  2  1  0  0  0
 16 19  1  0  0  0
M  END
> <minimizedAffinity>
9.08946

> <CNNscore>
0.5118559599

> <CNNaffinity>
5.3015499115

> <CNN_VS>
2.7136299610

> <CNNaffinity_variance>
0.2632991672

$$$$
[H]c1c([H])c([H])c([C@@]2([H])C([H])([H])[C@]2([H])N([H])C([H])([H])C2([H])C([H])([H])C([H])([H])N([H])C([H])([H])C2([H])[H])c([H])c1[H]


 19 21  0  0  0  0  0  0  0  0999 V2000
   22.7361    7.4379   52.9133 N   0  0  0  0  0  0  0  0  0  0  0  0
   21.9010    6.9285   53.2438 H   0  0  0  0  0  0  0  0  0  0  0  0
   25.2016    7.3049   53.5591 C   0  0  0  0  0  0  0  0  0  0  0  0
   24.4009    6.1971   54.2503 C   0  0  0  0  0  0  0  0  0  0  0  0
   23.7833    7.5573   53.9088 C   0  0  0  0  0  0  0  0  0  0  0  0
   28.1658    9.4486   55.8302 C   0  0  0  0  0  0  0  0  0  0  0  0
   28.4299    8.9724   54.5635 C   0  0  0  0  0  0  0  0  0  0  0  0
   27.4530    8.2800   53.8459 C   0  0  0  0  0  0  0  0  0  0  0  0
   26.2030    8.0460   54.3631 C   0  0  0  0  0  0  0  0  0  0  0  0
   25.9458    8.5251   55.6306 C   0  0  0  0  0  0  0  0  0  0  0  0
   26.9151    9.2161   56.3516 C   0  0  0  0  0  0  0  0  0  0  0  0
   22.4430    8.7801   52.4549 C   0  0  0  0  0  0  0  0  0  0  0  0
   21.0927    9.2769   52.8801 C   0  0  0  0  0  0  0  0  0  0  0  0
   21.2222   10.6919   53.3671 C   0  0  0  0  0  0  0  0  0  0  0  0
   22.0083   10.8452   54.6284 C   0  0  0  0  0  0  0  0  0  0  0  0
   22.0557    9.6264   55.4172 N   0  0  0  0  0  0  0  0  0  0  0  0
   20.7012    9.0573   55.3433 C   0  0  0  0  0  0  0  0  0  0  0  0
   20.6149    8.3542   53.9961 C   0  0  0  0  0  0  0  0  0  0  0  0
   22.3210    9.8513   56.3814 H   0  0  0  0  0  0  0  0  0  0  0  0
  6  7  2  0  0  0
  7  8  1  0  0  0
  8  9  2  0  0  0
  9  3  1  0  0  0
  3  4  1  0  0  0
  4  5  1  0  0  0
  5  1  1  0  0  0
  1 12  1  0  0  0
 12 13  1  0  0  0
 13 14  1  0  0  0
 14 15  1  0  0  0
 15 16  1  0  0  0
 16 17  1  0  0  0
 17 18  1  0  0  0
  9 10  1  0  0  0
 10 11  2  0  0  0
 11  6  1  0  0  0
  5  3  1  0  0  0
 18 13  1  0  0  0
  1  2  1  0  0  0
 16 19  1  0  0  0
M  END
> <minimizedAffinity>
-0.66348

> <CNNscore>
0.5099696517

> <CNNaffinity>
5.1689920425

> <CNN_VS>
2.6360290051

> <CNNaffinity_variance>
0.5656378865

$$$$
[H]c1c([H])c([H])c([C@@]2([H])C([H])([H])[C@]2([H])N([H])C([H])([H])C2([H])C([H])([H])C([H])([H])N([H])C([H])([H])C2([H])[H])c([H])c1[H]


 19 21  0  0  0  0  0  0  0  0999 V2000
   22.4162    6.8393   54.6075 N   0  0  0  0  0  0  0  0  0  0  0  0
   22.0198    6.0080   55.0742 H   0  0  0  0  0  0  0  0  0  0  0  0
   24.6032    7.9149   53.8500 C   0  0  0  0  0  0  0  0  0  0  0  0
   24.4547    6.5124   53.2522 C   0  0  0  0  0  0  0  0  0  0  0  0
   23.8654    6.8832   54.6173 C   0  0  0  0  0  0  0  0  0  0  0  0
   28.4031    9.0612   55.5194 C   0  0  0  0  0  0  0  0  0  0  0  0
   27.2308    9.1893   56.2339 C   0  0  0  0  0  0  0  0  0  0  0  0
   26.0104    8.8109   55.6719 C   0  0  0  0  0  0  0  0  0  0  0  0
   25.9248    8.3014   54.3999 C   0  0  0  0  0  0  0  0  0  0  0  0
   27.1013    8.1761   53.6910 C   0  0  0  0  0  0  0  0  0  0  0  0
   28.3215    8.5515   54.2451 C   0  0  0  0  0  0  0  0  0  0  0  0
   21.9583    8.0889   55.1789 C   0  0  0  0  0  0  0  0  0  0  0  0
   20.7758    8.6757   54.4662 C   0  0  0  0  0  0  0  0  0  0  0  0
   20.3184    7.7170   53.4041 C   0  0  0  0  0  0  0  0  0  0  0  0
   21.2833    7.5300   52.2789 C   0  0  0  0  0  0  0  0  0  0  0  0
   22.2056    8.6427   52.1337 N   0  0  0  0  0  0  0  0  0  0  0  0
   21.3976    9.8535   52.3460 C   0  0  0  0  0  0  0  0  0  0  0  0
   21.2394    9.9928   53.8534 C   0  0  0  0  0  0  0  0  0  0  0  0
   22.6222    8.6236   51.1973 H   0  0  0  0  0  0  0  0  0  0  0  0
  6  7  2  0  0  0
  7  8  1  0  0  0
  8  9  2  0  0  0
  9  3  1  0  0  0
  3  4  1  0  0  0
  4  5  1  0  0  0
  5  1  1  0  0  0
  1 12  1  0  0  0
 12 13  1  0  0  0
 13 14  1  0  0  0
 14 15  1  0  0  0
 15 16  1  0  0  0
 16 17  1  0  0  0
 17 18  1  0  0  0
  9 10  1  0  0  0
 10 11  2  0  0  0
 11  6  1  0  0  0
  5  3  1  0  0  0
 18 13  1  0  0  0
  1  2  1  0  0  0
 16 19  1  0  0  0
M  END
> <minimizedAffinity>
-3.97585

> <CNNscore>
0.5071456432

> <CNNaffinity>
5.2321372032

> <CNN_VS>
2.6534554958

> <CNNaffinity_variance>
0.7399656773

$$$$
[H]c1c([H])c([H])c([C@@]2([H])C([H])([H])[C@]2([H])N([H])C([H])([H])C2([H])C([H])([H])C([H])([H])N([H])C([H])([H])C2([H])[H])c([H])c1[H]


 19 21  0  0  0  0  0  0  0  0999 V2000
   22.3801    6.7818   54.5435 N   0  0  0  0  0  0  0  0  0  0  0  0
   21.9886    5.9188   54.9534 H   0  0  0  0  0  0  0  0  0  0  0  0
   24.5664    7.9005   53.8490 C   0  0  0  0  0  0  0  0  0  0  0  0
   24.4551    6.5020   53.2341 C   0  0  0  0  0  0  0  0  0  0  0  0
   23.8277    6.8492   54.5883 C   0  0  0  0  0  0  0  0  0  0  0  0
   28.3853    9.0455   55.4753 C   0  0  0  0  0  0  0  0  0  0  0  0
   28.2653    8.5388   54.1985 C   0  0  0  0  0  0  0  0  0  0  0  0
   27.0164    8.1743   53.6925 C   0  0  0  0  0  0  0  0  0  0  0  0
   25.8680    8.3027   54.4339 C   0  0  0  0  0  0  0  0  0  0  0  0
   25.9956    8.8102   55.7101 C   0  0  0  0  0  0  0  0  0  0  0  0
   27.2376    9.1755   56.2209 C   0  0  0  0  0  0  0  0  0  0  0  0
   21.8878    7.9889   55.1746 C   0  0  0  0  0  0  0  0  0  0  0  0
   20.7263    8.6097   54.4560 C   0  0  0  0  0  0  0  0  0  0  0  0
   20.2897    7.6943   53.3480 C   0  0  0  0  0  0  0  0  0  0  0  0
   21.2808    7.5433   52.2402 C   0  0  0  0  0  0  0  0  0  0  0  0
   22.2125    8.6547   52.1592 N   0  0  0  0  0  0  0  0  0  0  0  0
   21.4062    9.8619   52.3972 C   0  0  0  0  0  0  0  0  0  0  0  0
   21.2121    9.9457   53.9045 C   0  0  0  0  0  0  0  0  0  0  0  0
   22.6517    8.6680   51.2332 H   0  0  0  0  0  0  0  0  0  0  0  0
  6  7  2  0  0  0
  7  8  1  0  0  0
  8  9  2  0  0  0
  9  3  1  0  0  0
  3  4  1  0  0  0
  4  5  1  0  0  0
  5  1  1  0  0  0
  1 12  1  0  0  0
 12 13  1  0  0  0
 13 14  1  0  0  0
 14 15  1  0  0  0
 15 16  1  0  0  0
 16 17  1  0  0  0
 17 18  1  0  0  0
  9 10  1  0  0  0
 10 11  2  0  0  0
 11  6  1  0  0  0
  5  3  1  0  0  0
 18 13  1  0  0  0
  1  2  1  0  0  0
 16 19  1  0  0  0
M  END
> <minimizedAffinity>
-3.94617

> <CNNscore>
0.5014977455

> <CNNaffinity>
5.2252063751

> <CNN_VS>
2.6204292774

> <CNNaffinity_variance>
0.7470390201

$$$$
[H]c1c([H])c([H])c([C@@]2([H])C([H])([H])[C@]2([H])N([H])C([H])([H])C2([H])C([H])([H])C([H])([H])N([H])C([H])([H])C2([H])[H])c([H])c1[H]


 19 21  0  0  0  0  0  0  0  0999 V2000
   23.5018    8.7257   55.8967 N   0  0  0  0  0  0  0  0  0  0  0  0
   23.3092    7.8157   56.3447 H   0  0  0  0  0  0  0  0  0  0  0  0
   21.8980   10.2696   54.6485 C   0  0  0  0  0  0  0  0  0  0  0  0
   21.1755    9.0021   55.1151 C   0  0  0  0  0  0  0  0  0  0  0  0
   22.6631    9.0037   54.7472 C   0  0  0  0  0  0  0  0  0  0  0  0
   21.1137   11.5998   50.6291 C   0  0  0  0  0  0  0  0  0  0  0  0
   20.9767   10.2769   50.9930 C   0  0  0  0  0  0  0  0  0  0  0  0
   21.2365    9.8689   52.3024 C   0  0  0  0  0  0  0  0  0  0  0  0
   21.6346   10.7551   53.2726 C   0  0  0  0  0  0  0  0  0  0  0  0
   21.7695   12.0767   52.9015 C   0  0  0  0  0  0  0  0  0  0  0  0
   21.5122   12.4903   51.5978 C   0  0  0  0  0  0  0  0  0  0  0  0
   24.8737    8.8665   55.4544 C   0  0  0  0  0  0  0  0  0  0  0  0
   25.3330    7.7509   54.5626 C   0  0  0  0  0  0  0  0  0  0  0  0
   26.7220    7.3433   54.9637 C   0  0  0  0  0  0  0  0  0  0  0  0
   27.7699    8.3781   54.7124 C   0  0  0  0  0  0  0  0  0  0  0  0
   27.3855    9.3361   53.6905 N   0  0  0  0  0  0  0  0  0  0  0  0
   26.7252    8.5464   52.6396 C   0  0  0  0  0  0  0  0  0  0  0  0
   25.3096    8.2888   53.1360 C   0  0  0  0  0  0  0  0  0  0  0  0
   28.2200    9.8154   53.3375 H   0  0  0  0  0  0  0  0  0  0  0  0
  6  7  2  0  0  0
  7  8  1  0  0  0
  8  9  2  0  0  0
  9  3  1  0  0  0
  3  4  1  0  0  0
  4  5  1  0  0  0
  5  1  1  0  0  0
  1 12  1  0  0  0
 12 13  1  0  0  0
 13 14  1  0  0  0
 14 15  1  0  0  0
 15 16  1  0  0  0
 16 17  1  0  0  0
 17 18  1  0  0  0
  9 10  1  0  0  0
 10 11  2  0  0  0
 11  6  1  0  0  0
  5  3  1  0  0  0
 18 13  1  0  0  0
  1  2  1  0  0  0
 16 19  1  0  0  0
M  END
> <minimizedAffinity>
8.89922

> <CNNscore>
0.5010969639

> <CNNaffinity>
4.9666624069

> <CNN_VS>
2.4887795448

> <CNNaffinity_variance>
0.1311067194

$$$$
[H]OC([H])([H])C(F)(F)C([H])([H])N1[C@]([H])(c2c(F)c([H])nc(OC([H])([H])C([H])([H])N([H])C([H])([H])C([H])([H])C([H])([H])F)c2F)c2c(c3c([H])c([H])c([H])c([H])c3n2[H])C([H])([H])[C@@]1([H])C([H])([H])[H]


 39 42  0  0  0  0  0  0  0  0999 V2000
   24.2816    5.2430   54.3815 C   0  0  0  0  0  0  0  0  0  0  0  0
   23.9187    6.1010   53.1994 C   0  0  0  0  0  0  0  0  0  0  0  0
   25.2804    6.7698   52.8490 C   0  0  0  0  0  0  0  0  0  0  0  0
   25.5349    7.7094   53.9564 C   0  0  0  0  0  0  0  0  0  0  0  0
   24.4881    8.3032   54.6135 C   0  0  0  0  0  0  0  0  0  0  0  0
   25.0469    9.0910   55.5586 N   0  0  0  0  0  0  0  0  0  0  0  0
   26.3826    9.0249   55.5310 C   0  0  0  0  0  0  0  0  0  0  0  0
   27.3986    9.6144   56.2600 C   0  0  0  0  0  0  0  0  0  0  0  0
   28.7167    9.3337   55.9797 C   0  0  0  0  0  0  0  0  0  0  0  0
   29.0644    8.4482   54.9542 C   0  0  0  0  0  0  0  0  0  0  0  0
   28.0317    7.8768   54.2460 C   0  0  0  0  0  0  0  0  0  0  0  0
   26.7121    8.1493   54.5163 C   0  0  0  0  0  0  0  0  0  0  0  0
   23.0527    8.0682   54.2821 C   0  0  0  0  0  0  0  0  0  0  0  0
   22.8891    7.0176   53.3267 N   0  0  0  0  0  0  0  0  0  0  0  0
   24.5157    9.6813   56.2317 H   0  0  0  0  0  0  0  0  0  0  0  0
   22.3034    9.3008   54.1017 C   0  0  0  0  0  0  0  0  0  0  0  0
   21.7333    9.9899   55.1504 C   0  0  0  0  0  0  0  0  0  0  0  0
   21.8704    9.5067   56.3786 F   0  0  0  0  0  0  0  0  0  0  0  0
   21.0252   11.1645   54.9680 C   0  0  0  0  0  0  0  0  0  0  0  0
   20.8837   11.6577   53.7251 N   0  0  0  0  0  0  0  0  0  0  0  0
   21.4066   11.0503   52.6474 C   0  0  0  0  0  0  0  0  0  0  0  0
   22.1123    9.8754   52.8485 C   0  0  0  0  0  0  0  0  0  0  0  0
   22.6247    9.2905   51.7339 F   0  0  0  0  0  0  0  0  0  0  0  0
   21.2317   11.5979   51.4063 O   0  0  0  0  0  0  0  0  0  0  0  0
   22.0164   12.5625   50.7783 C   0  0  0  0  0  0  0  0  0  0  0  0
   21.7977   13.9630   51.2347 C   0  0  0  0  0  0  0  0  0  0  0  0
   20.7431   14.6333   50.4938 N   0  0  0  0  0  0  0  0  0  0  0  0
   21.0815   15.2905   49.7814 H   0  0  0  0  0  0  0  0  0  0  0  0
   19.7238   15.1861   51.3373 C   0  0  0  0  0  0  0  0  0  0  0  0
   19.9560   14.8951   52.7989 C   0  0  0  0  0  0  0  0  0  0  0  0
   18.7657   15.1874   53.6643 C   0  0  0  0  0  0  0  0  0  0  0  0
   18.4735   14.1815   54.5579 F   0  0  0  0  0  0  0  0  0  0  0  0
   21.7056    7.0003   52.6294 C   0  0  0  0  0  0  0  0  0  0  0  0
   20.3690    6.7312   53.1301 C   0  0  0  0  0  0  0  0  0  0  0  0
   20.0254    7.4315   54.2861 F   0  0  0  0  0  0  0  0  0  0  0  0
   19.4091    7.3528   52.2122 F   0  0  0  0  0  0  0  0  0  0  0  0
   19.8235    5.3574   53.2405 C   0  0  0  0  0  0  0  0  0  0  0  0
   18.6294    5.1511   53.8435 O   0  0  0  0  0  0  0  0  0  0  0  0
   17.8720    5.1816   53.2138 H   0  0  0  0  0  0  0  0  0  0  0  0
  1  2  1  0  0  0
  2  3  1  0  0  0
  3  4  1  0  0  0
  4  5  2  0  0  0
  5  6  1  0  0  0
  6  7  1  0  0  0
  7  8  2  0  0  0
  8  9  1  0  0  0
  9 10  2  0  0  0
 10 11  1  0  0  0
 11 12  2  0  0  0
  5 13  1  0  0  0
 13 16  1  0  0  0
 16 17  2  0  0  0
 17 18  1  0  0  0
 17 19  1  0  0  0
 19 20  2  0  0  0
 20 21  1  0  0  0
 21 24  1  0  0  0
 24 25  1  0  0  0
 25 26  1  0  0  0
 26 27  1  0  0  0
 27 29  1  0  0  0
 29 30  1  0  0  0
 30 31  1  0  0  0
 31 32  1  0  0  0
 21 22  2  0  0  0
 22 23  1  0  0  0
 13 14  1  0  0  0
 14 33  1  0  0  0
 33 34  1  0  0  0
 34 35  1  0  0  0
 34 36  1  0  0  0
 34 37  1  0  0  0
 37 38  1  0  0  0
 14  2  1  0  0  0
 12  4  1  0  0  0
 22 16  1  0  0  0
 12  7  1  0  0  0
  6 15  1  0  0  0
 27 28  1  0  0  0
 38 39  1  0  0  0
M  END
> <minimizedAffinity>
18.45067

> <CNNscore>
0.4538792074

> <CNNaffinity>
7.0276842117

> <CNN_VS>
3.1897196770

> <CNNaffinity_variance>
0.5808210373

$$$$
[H]OC([H])([H])C(F)(F)C([H])([H])N1[C@]([H])(c2c(F)c([H])nc(OC([H])([H])C([H])([H])N([H])C([H])([H])C([H])([H])C([H])([H])F)c2F)c2c(c3c([H])c([H])c([H])c([H])c3n2[H])C([H])([H])[C@@]1([H])C([H])([H])[H]


 39 42  0  0  0  0  0  0  0  0999 V2000
   19.5941    8.3940   54.3729 C   0  0  0  0  0  0  0  0  0  0  0  0
   20.7108    8.6326   55.3533 C   0  0  0  0  0  0  0  0  0  0  0  0
   20.8351   10.1845   55.3377 C   0  0  0  0  0  0  0  0  0  0  0  0
   21.3971   10.5043   54.0126 C   0  0  0  0  0  0  0  0  0  0  0  0
   22.2369    9.6199   53.3860 C   0  0  0  0  0  0  0  0  0  0  0  0
   22.5686   10.1978   52.2105 N   0  0  0  0  0  0  0  0  0  0  0  0
   21.9855   11.3928   52.0649 C   0  0  0  0  0  0  0  0  0  0  0  0
   21.9936   12.3631   51.0802 C   0  0  0  0  0  0  0  0  0  0  0  0
   21.2661   13.5217   51.2315 C   0  0  0  0  0  0  0  0  0  0  0  0
   20.5011   13.7497   52.3803 C   0  0  0  0  0  0  0  0  0  0  0  0
   20.5124   12.7660   53.3430 C   0  0  0  0  0  0  0  0  0  0  0  0
   21.2348   11.6052   53.2036 C   0  0  0  0  0  0  0  0  0  0  0  0
   22.6479    8.3068   53.9627 C   0  0  0  0  0  0  0  0  0  0  0  0
   21.9243    7.9962   55.1557 N   0  0  0  0  0  0  0  0  0  0  0  0
   23.1987    9.7765   51.4970 H   0  0  0  0  0  0  0  0  0  0  0  0
   24.0875    8.1058   53.9454 C   0  0  0  0  0  0  0  0  0  0  0  0
   24.7028    7.1732   53.1382 C   0  0  0  0  0  0  0  0  0  0  0  0
   23.9495    6.4229   52.3443 F   0  0  0  0  0  0  0  0  0  0  0  0
   26.0746    6.9926   53.1267 C   0  0  0  0  0  0  0  0  0  0  0  0
   26.8418    7.7507   53.9297 N   0  0  0  0  0  0  0  0  0  0  0  0
   26.3246    8.6822   54.7474 C   0  0  0  0  0  0  0  0  0  0  0  0
   24.9495    8.8495   54.7460 C   0  0  0  0  0  0  0  0  0  0  0  0
   24.4647    9.8004   55.5873 F   0  0  0  0  0  0  0  0  0  0  0  0
   27.1534    9.4252   55.5423 O   0  0  0  0  0  0  0  0  0  0  0  0
   28.0014    8.9747   56.5516 C   0  0  0  0  0  0  0  0  0  0  0  0
   27.7558    9.5544   57.9011 C   0  0  0  0  0  0  0  0  0  0  0  0
   28.6434    9.0083   58.9133 N   0  0  0  0  0  0  0  0  0  0  0  0
   28.3712    8.0792   59.2548 H   0  0  0  0  0  0  0  0  0  0  0  0
   28.9381    9.9360   59.9661 C   0  0  0  0  0  0  0  0  0  0  0  0
   29.2366   11.3230   59.4538 C   0  0  0  0  0  0  0  0  0  0  0  0
   28.8124   12.4128   60.3938 C   0  0  0  0  0  0  0  0  0  0  0  0
   28.8329   13.6678   59.8279 F   0  0  0  0  0  0  0  0  0  0  0  0
   22.4937    7.0706   55.9960 C   0  0  0  0  0  0  0  0  0  0  0  0
   22.7010    5.6517   55.7652 C   0  0  0  0  0  0  0  0  0  0  0  0
   24.0338    5.2427   55.7956 F   0  0  0  0  0  0  0  0  0  0  0  0
   22.2298    4.9277   56.9502 F   0  0  0  0  0  0  0  0  0  0  0  0
   22.0142    4.9150   54.6777 C   0  0  0  0  0  0  0  0  0  0  0  0
   21.5311    5.5869   53.6067 O   0  0  0  0  0  0  0  0  0  0  0  0
   22.1835    5.6550   52.8712 H   0  0  0  0  0  0  0  0  0  0  0  0
  1  2  1  0  0  0
  2  3  1  0  0  0
  3  4  1  0  0  0
  4  5  2  0  0  0
  5  6  1  0  0  0
  6  7  1  0  0  0
  7  8  2  0  0  0
  8  9  1  0  0  0
  9 10  2  0  0  0
 10 11  1  0  0  0
 11 12  2  0  0  0
  5 13  1  0  0  0
 13 16  1  0  0  0
 16 17  2  0  0  0
 17 18  1  0  0  0
 17 19  1  0  0  0
 19 20  2  0  0  0
 20 21  1  0  0  0
 21 24  1  0  0  0
 24 25  1  0  0  0
 25 26  1  0  0  0
 26 27  1  0  0  0
 27 29  1  0  0  0
 29 30  1  0  0  0
 30 31  1  0  0  0
 31 32  1  0  0  0
 21 22  2  0  0  0
 22 23  1  0  0  0
 13 14  1  0  0  0
 14 33  1  0  0  0
 33 34  1  0  0  0
 34 35  1  0  0  0
 34 36  1  0  0  0
 34 37  1  0  0  0
 37 38  1  0  0  0
 14  2  1  0  0  0
 12  4  1  0  0  0
 22 16  1  0  0  0
 12  7  1  0  0  0
  6 15  1  0  0  0
 27 28  1  0  0  0
 38 39  1  0  0  0
M  END
> <minimizedAffinity>
19.48140

> <CNNscore>
0.4302597940

> <CNNaffinity>
6.7439332008

> <CNN_VS>
2.9016432762

> <CNNaffinity_variance>
0.8199156523

$$$$
[H]OC([H])([H])C(F)(F)C([H])([H])N1[C@]([H])(c2c(F)c([H])nc(OC([H])([H])C([H])([H])N([H])C([H])([H])C([H])([H])C([H])([H])F)c2F)c2c(c3c([H])c([H])c([H])c([H])c3n2[H])C([H])([H])[C@@]1([H])C([H])([H])[H]


 39 42  0  0  0  0  0  0  0  0999 V2000
   19.6637    8.4257   54.4949 C   0  0  0  0  0  0  0  0  0  0  0  0
   20.7968    8.7002   55.4467 C   0  0  0  0  0  0  0  0  0  0  0  0
   20.9386   10.2478   55.3505 C   0  0  0  0  0  0  0  0  0  0  0  0
   21.4853   10.4932   54.0034 C   0  0  0  0  0  0  0  0  0  0  0  0
   22.3060    9.5680   53.4112 C   0  0  0  0  0  0  0  0  0  0  0  0
   22.6276   10.0816   52.2035 N   0  0  0  0  0  0  0  0  0  0  0  0
   22.0561   11.2746   52.0053 C   0  0  0  0  0  0  0  0  0  0  0  0
   22.0614   12.1936   50.9725 C   0  0  0  0  0  0  0  0  0  0  0  0
   21.3492   13.3671   51.0745 C   0  0  0  0  0  0  0  0  0  0  0  0
   20.6032   13.6622   52.2205 C   0  0  0  0  0  0  0  0  0  0  0  0
   20.6170   12.7285   53.2317 C   0  0  0  0  0  0  0  0  0  0  0  0
   21.3241   11.5535   53.1417 C   0  0  0  0  0  0  0  0  0  0  0  0
   22.7102    8.2810   54.0483 C   0  0  0  0  0  0  0  0  0  0  0  0
   22.0001    8.0400   55.2652 N   0  0  0  0  0  0  0  0  0  0  0  0
   23.2428    9.6170   51.5038 H   0  0  0  0  0  0  0  0  0  0  0  0
   24.1471    8.0620   54.0217 C   0  0  0  0  0  0  0  0  0  0  0  0
   24.7448    7.1175   53.2153 C   0  0  0  0  0  0  0  0  0  0  0  0
   23.9766    6.3723   52.4310 F   0  0  0  0  0  0  0  0  0  0  0  0
   26.1142    6.9198   53.1949 C   0  0  0  0  0  0  0  0  0  0  0  0
   26.8965    7.6726   53.9881 N   0  0  0  0  0  0  0  0  0  0  0  0
   26.3969    8.6148   54.8043 C   0  0  0  0  0  0  0  0  0  0  0  0
   25.0240    8.7993   54.8119 C   0  0  0  0  0  0  0  0  0  0  0  0
   24.5571    9.7606   55.6515 F   0  0  0  0  0  0  0  0  0  0  0  0
   27.2406    9.3518   55.5892 O   0  0  0  0  0  0  0  0  0  0  0  0
   27.7791    9.0058   56.8265 C   0  0  0  0  0  0  0  0  0  0  0  0
   27.5976   10.0127   57.9085 C   0  0  0  0  0  0  0  0  0  0  0  0
   28.7297   10.9155   58.0266 N   0  0  0  0  0  0  0  0  0  0  0  0
   29.4331   10.8075   57.2867 H   0  0  0  0  0  0  0  0  0  0  0  0
   29.2927   10.9460   59.3449 C   0  0  0  0  0  0  0  0  0  0  0  0
   28.8561    9.7769   60.1921 C   0  0  0  0  0  0  0  0  0  0  0  0
   29.9286    8.7464   60.3893 C   0  0  0  0  0  0  0  0  0  0  0  0
   29.6451    7.5355   59.7985 F   0  0  0  0  0  0  0  0  0  0  0  0
   22.5708    7.1514   56.1438 C   0  0  0  0  0  0  0  0  0  0  0  0
   22.5288    5.7000   56.1113 C   0  0  0  0  0  0  0  0  0  0  0  0
   21.6530    5.1610   55.1694 F   0  0  0  0  0  0  0  0  0  0  0  0
   23.7872    5.2246   55.5275 F   0  0  0  0  0  0  0  0  0  0  0  0
   22.4474    4.8797   57.3433 C   0  0  0  0  0  0  0  0  0  0  0  0
   21.2870    4.8156   58.0368 O   0  0  0  0  0  0  0  0  0  0  0  0
   20.7088    4.0716   57.7481 H   0  0  0  0  0  0  0  0  0  0  0  0
  1  2  1  0  0  0
  2  3  1  0  0  0
  3  4  1  0  0  0
  4  5  2  0  0  0
  5  6  1  0  0  0
  6  7  1  0  0  0
  7  8  2  0  0  0
  8  9  1  0  0  0
  9 10  2  0  0  0
 10 11  1  0  0  0
 11 12  2  0  0  0
  5 13  1  0  0  0
 13 16  1  0  0  0
 16 17  2  0  0  0
 17 18  1  0  0  0
 17 19  1  0  0  0
 19 20  2  0  0  0
 20 21  1  0  0  0
 21 24  1  0  0  0
 24 25  1  0  0  0
 25 26  1  0  0  0
 26 27  1  0  0  0
 27 29  1  0  0  0
 29 30  1  0  0  0
 30 31  1  0  0  0
 31 32  1  0  0  0
 21 22  2  0  0  0
 22 23  1  0  0  0
 13 14  1  0  0  0
 14 33  1  0  0  0
 33 34  1  0  0  0
 34 35  1  0  0  0
 34 36  1  0  0  0
 34 37  1  0  0  0
 37 38  1  0  0  0
 14  2  1  0  0  0
 12  4  1  0  0  0
 22 16  1  0  0  0
 12  7  1  0  0  0
  6 15  1  0  0  0
 27 28  1  0  0  0
 38 39  1  0  0  0
M  END
> <minimizedAffinity>
20.56029

> <CNNscore>
0.4198424220

> <CNNaffinity>
6.6676454544

> <CNN_VS>
2.7993605137

> <CNNaffinity_variance>
0.8532584310

$$$$
[H]OC([H])([H])C(F)(F)C([H])([H])N1[C@]([H])(c2c(F)c([H])nc(OC([H])([H])C([H])([H])N([H])C([H])([H])C([H])([H])C([H])([H])F)c2F)c2c(c3c([H])c([H])c([H])c([H])c3n2[H])C([H])([H])[C@@]1([H])C([H])([H])[H]


 39 42  0  0  0  0  0  0  0  0999 V2000
   23.9676    5.2413   54.5893 C   0  0  0  0  0  0  0  0  0  0  0  0
   23.6622    6.0361   53.3482 C   0  0  0  0  0  0  0  0  0  0  0  0
   25.0628    6.5984   52.9657 C   0  0  0  0  0  0  0  0  0  0  0  0
   25.3666    7.5951   54.0088 C   0  0  0  0  0  0  0  0  0  0  0  0
   24.3534    8.2929   54.6144 C   0  0  0  0  0  0  0  0  0  0  0  0
   24.9529    9.1094   55.5087 N   0  0  0  0  0  0  0  0  0  0  0  0
   26.2824    8.9634   55.4980 C   0  0  0  0  0  0  0  0  0  0  0  0
   27.3277    9.5409   56.1946 C   0  0  0  0  0  0  0  0  0  0  0  0
   28.6283    9.1648   55.9461 C   0  0  0  0  0  0  0  0  0  0  0  0
   28.9284    8.1923   54.9865 C   0  0  0  0  0  0  0  0  0  0  0  0
   27.8674    7.6353   54.3093 C   0  0  0  0  0  0  0  0  0  0  0  0
   26.5648    8.0025   54.5483 C   0  0  0  0  0  0  0  0  0  0  0  0
   22.9083    8.1203   54.2865 C   0  0  0  0  0  0  0  0  0  0  0  0
   22.6878    7.0181   53.4034 N   0  0  0  0  0  0  0  0  0  0  0  0
   24.4540    9.7745   56.1351 H   0  0  0  0  0  0  0  0  0  0  0  0
   22.2341    9.3794   54.0157 C   0  0  0  0  0  0  0  0  0  0  0  0
   21.6674   10.1524   55.0061 C   0  0  0  0  0  0  0  0  0  0  0  0
   21.7362    9.7288   56.2617 F   0  0  0  0  0  0  0  0  0  0  0  0
   21.0312   11.3515   54.7378 C   0  0  0  0  0  0  0  0  0  0  0  0
   20.9592   11.7846   53.4669 N   0  0  0  0  0  0  0  0  0  0  0  0
   21.4841   11.0940   52.4417 C   0  0  0  0  0  0  0  0  0  0  0  0
   22.1173    9.8958   52.7285 C   0  0  0  0  0  0  0  0  0  0  0  0
   22.6344    9.2261   51.6650 F   0  0  0  0  0  0  0  0  0  0  0  0
   21.3816   11.5833   51.1685 O   0  0  0  0  0  0  0  0  0  0  0  0
   21.7320   12.8505   50.7080 C   0  0  0  0  0  0  0  0  0  0  0  0
   20.6081   13.6755   50.1849 C   0  0  0  0  0  0  0  0  0  0  0  0
   19.8915   13.0215   49.1036 N   0  0  0  0  0  0  0  0  0  0  0  0
   20.1823   12.0520   48.9319 H   0  0  0  0  0  0  0  0  0  0  0  0
   19.8242   13.8136   47.9103 C   0  0  0  0  0  0  0  0  0  0  0  0
   19.3977   13.0147   46.7040 C   0  0  0  0  0  0  0  0  0  0  0  0
   18.3831   11.9543   47.0160 C   0  0  0  0  0  0  0  0  0  0  0  0
   18.0279   11.1932   45.9251 F   0  0  0  0  0  0  0  0  0  0  0  0
   21.5090    7.0225   52.6981 C   0  0  0  0  0  0  0  0  0  0  0  0
   20.1517    6.9672   53.2119 C   0  0  0  0  0  0  0  0  0  0  0  0
   19.9130    7.7769   54.3220 F   0  0  0  0  0  0  0  0  0  0  0  0
   19.2783    7.6552   52.2558 F   0  0  0  0  0  0  0  0  0  0  0  0
   19.4268    5.6888   53.4057 C   0  0  0  0  0  0  0  0  0  0  0  0
   20.1187    4.5329   53.5363 O   0  0  0  0  0  0  0  0  0  0  0  0
   20.3320    4.3181   54.4741 H   0  0  0  0  0  0  0  0  0  0  0  0
  1  2  1  0  0  0
  2  3  1  0  0  0
  3  4  1  0  0  0
  4  5  2  0  0  0
  5  6  1  0  0  0
  6  7  1  0  0  0
  7  8  2  0  0  0
  8  9  1  0  0  0
  9 10  2  0  0  0
 10 11  1  0  0  0
 11 12  2  0  0  0
  5 13  1  0  0  0
 13 16  1  0  0  0
 16 17  2  0  0  0
 17 18  1  0  0  0
 17 19  1  0  0  0
 19 20  2  0  0  0
 20 21  1  0  0  0
 21 24  1  0  0  0
 24 25  1  0  0  0
 25 26  1  0  0  0
 26 27  1  0  0  0
 27 29  1  0  0  0
 29 30  1  0  0  0
 30 31  1  0  0  0
 31 32  1  0  0  0
 21 22  2  0  0  0
 22 23  1  0  0  0
 13 14  1  0  0  0
 14 33  1  0  0  0
 33 34  1  0  0  0
 34 35  1  0  0  0
 34 36  1  0  0  0
 34 37  1  0  0  0
 37 38  1  0  0  0
 14  2  1  0  0  0
 12  4  1  0  0  0
 22 16  1  0  0  0
 12  7  1  0  0  0
  6 15  1  0  0  0
 27 28  1  0  0  0
 38 39  1  0  0  0
M  END
> <minimizedAffinity>
26.33884

> <CNNscore>
0.4172600806

> <CNNaffinity>
6.9162874222

> <CNN_VS>
2.8858907223

> <CNNaffinity_variance>
0.5294214487

$$$$
[H]OC([H])([H])C(F)(F)C([H])([H])N1[C@]([H])(c2c(F)c([H])nc(OC([H])([H])C([H])([H])N([H])C([H])([H])C([H])([H])C([H])([H])F)c2F)c2c(c3c([H])c([H])c([H])c([H])c3n2[H])C([H])([H])[C@@]1([H])C([H])([H])[H]


 39 42  0  0  0  0  0  0  0  0999 V2000
   23.8894    5.2457   54.6662 C   0  0  0  0  0  0  0  0  0  0  0  0
   23.5801    6.0007   53.4014 C   0  0  0  0  0  0  0  0  0  0  0  0
   24.9860    6.5163   52.9751 C   0  0  0  0  0  0  0  0  0  0  0  0
   25.3299    7.5438   53.9750 C   0  0  0  0  0  0  0  0  0  0  0  0
   24.3431    8.2865   54.5706 C   0  0  0  0  0  0  0  0  0  0  0  0
   24.9759    9.1216   55.4238 N   0  0  0  0  0  0  0  0  0  0  0  0
   26.3015    8.9451   55.3966 C   0  0  0  0  0  0  0  0  0  0  0  0
   27.3714    9.5240   56.0536 C   0  0  0  0  0  0  0  0  0  0  0  0
   28.6588    9.1095   55.7980 C   0  0  0  0  0  0  0  0  0  0  0  0
   28.9206    8.0955   54.8705 C   0  0  0  0  0  0  0  0  0  0  0  0
   27.8358    7.5381   54.2323 C   0  0  0  0  0  0  0  0  0  0  0  0
   26.5460    7.9435   54.4790 C   0  0  0  0  0  0  0  0  0  0  0  0
   22.8890    8.1348   54.2734 C   0  0  0  0  0  0  0  0  0  0  0  0
   22.6289    7.0060   53.4360 N   0  0  0  0  0  0  0  0  0  0  0  0
   24.5029    9.8207   56.0331 H   0  0  0  0  0  0  0  0  0  0  0  0
   22.2383    9.3981   53.9669 C   0  0  0  0  0  0  0  0  0  0  0  0
   21.6840   10.2080   54.9346 C   0  0  0  0  0  0  0  0  0  0  0  0
   21.7429    9.8176   56.2014 F   0  0  0  0  0  0  0  0  0  0  0  0
   21.0702   11.4107   54.6323 C   0  0  0  0  0  0  0  0  0  0  0  0
   21.0082   11.8101   53.3499 N   0  0  0  0  0  0  0  0  0  0  0  0
   21.5224   11.0823   52.3450 C   0  0  0  0  0  0  0  0  0  0  0  0
   22.1332    9.8812   52.6659 C   0  0  0  0  0  0  0  0  0  0  0  0
   22.6398    9.1735   51.6221 F   0  0  0  0  0  0  0  0  0  0  0  0
   21.4310   11.5385   51.0588 O   0  0  0  0  0  0  0  0  0  0  0  0
   21.6616   12.8300   50.5905 C   0  0  0  0  0  0  0  0  0  0  0  0
   23.0458   13.3441   50.7836 C   0  0  0  0  0  0  0  0  0  0  0  0
   23.7568   13.5182   49.5287 N   0  0  0  0  0  0  0  0  0  0  0  0
   24.3120   12.7033   49.2430 H   0  0  0  0  0  0  0  0  0  0  0  0
   24.4826   14.7527   49.4573 C   0  0  0  0  0  0  0  0  0  0  0  0
   25.1759   14.9452   48.1317 C   0  0  0  0  0  0  0  0  0  0  0  0
   26.3647   14.0496   47.9419 C   0  0  0  0  0  0  0  0  0  0  0  0
   26.4653   13.0582   48.8919 F   0  0  0  0  0  0  0  0  0  0  0  0
   21.4384    7.0111   52.7505 C   0  0  0  0  0  0  0  0  0  0  0  0
   20.0899    7.0596   53.2879 C   0  0  0  0  0  0  0  0  0  0  0  0
   19.9425    7.8490   54.4280 F   0  0  0  0  0  0  0  0  0  0  0  0
   19.2667    7.8551   52.3713 F   0  0  0  0  0  0  0  0  0  0  0  0
   19.2563    5.8452   53.4535 C   0  0  0  0  0  0  0  0  0  0  0  0
   19.8034    4.6204   53.2729 O   0  0  0  0  0  0  0  0  0  0  0  0
   20.1661    4.2365   54.1049 H   0  0  0  0  0  0  0  0  0  0  0  0
  1  2  1  0  0  0
  2  3  1  0  0  0
  3  4  1  0  0  0
  4  5  2  0  0  0
  5  6  1  0  0  0
  6  7  1  0  0  0
  7  8  2  0  0  0
  8  9  1  0  0  0
  9 10  2  0  0  0
 10 11  1  0  0  0
 11 12  2  0  0  0
  5 13  1  0  0  0
 13 16  1  0  0  0
 16 17  2  0  0  0
 17 18  1  0  0  0
 17 19  1  0  0  0
 19 20  2  0  0  0
 20 21  1  0  0  0
 21 24  1  0  0  0
 24 25  1  0  0  0
 25 26  1  0  0  0
 26 27  1  0  0  0
 27 29  1  0  0  0
 29 30  1  0  0  0
 30 31  1  0  0  0
 31 32  1  0  0  0
 21 22  2  0  0  0
 22 23  1  0  0  0
 13 14  1  0  0  0
 14 33  1  0  0  0
 33 34  1  0  0  0
 34 35  1  0  0  0
 34 36  1  0  0  0
 34 37  1  0  0  0
 37 38  1  0  0  0
 14  2  1  0  0  0
 12  4  1  0  0  0
 22 16  1  0  0  0
 12  7  1  0  0  0
  6 15  1  0  0  0
 27 28  1  0  0  0
 38 39  1  0  0  0
M  END
> <minimizedAffinity>
20.06742

> <CNNscore>
0.4161306322

> <CNNaffinity>
6.9042143822

> <CNN_VS>
2.8730549812

> <CNNaffinity_variance>
0.7010798454

$$$$
[H]OC([H])([H])C(F)(F)C([H])([H])N1[C@]([H])(c2c(F)c([H])nc(OC([H])([H])C([H])([H])N([H])C([H])([H])C([H])([H])C([H])([H])F)c2F)c2c(c3c([H])c([H])c([H])c([H])c3n2[H])C([H])([H])[C@@]1([H])C([H])([H])[H]


 39 42  0  0  0  0  0  0  0  0999 V2000
   28.4363    7.4450   54.1021 C   0  0  0  0  0  0  0  0  0  0  0  0
   27.3846    8.4226   53.6509 C   0  0  0  0  0  0  0  0  0  0  0  0
   27.7557    9.7002   54.4598 C   0  0  0  0  0  0  0  0  0  0  0  0
   27.4180    9.3729   55.8572 C   0  0  0  0  0  0  0  0  0  0  0  0
   26.3894    8.5102   56.1361 C   0  0  0  0  0  0  0  0  0  0  0  0
   26.3403    8.4202   57.4834 N   0  0  0  0  0  0  0  0  0  0  0  0
   27.2781    9.1766   58.0642 C   0  0  0  0  0  0  0  0  0  0  0  0
   27.6451    9.4336   59.3721 C   0  0  0  0  0  0  0  0  0  0  0  0
   28.6873   10.2877   59.6531 C   0  0  0  0  0  0  0  0  0  0  0  0
   29.4017   10.9173   58.6284 C   0  0  0  0  0  0  0  0  0  0  0  0
   29.0137   10.6421   57.3367 C   0  0  0  0  0  0  0  0  0  0  0  0
   27.9749    9.7915   57.0436 C   0  0  0  0  0  0  0  0  0  0  0  0
   25.5468    7.8513   55.0961 C   0  0  0  0  0  0  0  0  0  0  0  0
   26.0498    8.0777   53.7774 N   0  0  0  0  0  0  0  0  0  0  0  0
   25.6618    7.8379   58.0167 H   0  0  0  0  0  0  0  0  0  0  0  0
   24.1220    8.0081   55.3380 C   0  0  0  0  0  0  0  0  0  0  0  0
   23.2875    6.9447   55.6071 C   0  0  0  0  0  0  0  0  0  0  0  0
   23.8049    5.7234   55.6441 F   0  0  0  0  0  0  0  0  0  0  0  0
   21.9331    7.1056   55.8397 C   0  0  0  0  0  0  0  0  0  0  0  0
   21.4046    8.3414   55.8031 N   0  0  0  0  0  0  0  0  0  0  0  0
   22.1453    9.4323   55.5481 C   0  0  0  0  0  0  0  0  0  0  0  0
   23.4993    9.2527   55.3177 C   0  0  0  0  0  0  0  0  0  0  0  0
   24.2144   10.3799   55.0623 F   0  0  0  0  0  0  0  0  0  0  0  0
   21.5541   10.6655   55.5240 O   0  0  0  0  0  0  0  0  0  0  0  0
   21.0882   11.3697   54.4160 C   0  0  0  0  0  0  0  0  0  0  0  0
   21.2248   10.6703   53.1085 C   0  0  0  0  0  0  0  0  0  0  0  0
   21.8109   11.5150   52.0820 N   0  0  0  0  0  0  0  0  0  0  0  0
   22.8132   11.3556   51.9275 H   0  0  0  0  0  0  0  0  0  0  0  0
   21.4728   12.9005   52.2297 C   0  0  0  0  0  0  0  0  0  0  0  0
   21.1731   13.5708   50.9122 C   0  0  0  0  0  0  0  0  0  0  0  0
   20.7357   14.9991   51.0525 C   0  0  0  0  0  0  0  0  0  0  0  0
   19.7686   15.1876   52.0142 F   0  0  0  0  0  0  0  0  0  0  0  0
   25.1604    7.9112   52.7438 C   0  0  0  0  0  0  0  0  0  0  0  0
   24.0682    6.9595   52.6399 C   0  0  0  0  0  0  0  0  0  0  0  0
   24.1635    6.0746   51.5663 F   0  0  0  0  0  0  0  0  0  0  0  0
   24.2105    5.9878   53.7289 F   0  0  0  0  0  0  0  0  0  0  0  0
   22.6485    7.3599   52.7864 C   0  0  0  0  0  0  0  0  0  0  0  0
   21.6903    6.7250   52.0718 O   0  0  0  0  0  0  0  0  0  0  0  0
   21.3083    5.9506   52.5468 H   0  0  0  0  0  0  0  0  0  0  0  0
  1  2  1  0  0  0
  2  3  1  0  0  0
  3  4  1  0  0  0
  4  5  2  0  0  0
  5  6  1  0  0  0
  6  7  1  0  0  0
  7  8  2  0  0  0
  8  9  1  0  0  0
  9 10  2  0  0  0
 10 11  1  0  0  0
 11 12  2  0  0  0
  5 13  1  0  0  0
 13 16  1  0  0  0
 16 17  2  0  0  0
 17 18  1  0  0  0
 17 19  1  0  0  0
 19 20  2  0  0  0
 20 21  1  0  0  0
 21 24  1  0  0  0
 24 25  1  0  0  0
 25 26  1  0  0  0
 26 27  1  0  0  0
 27 29  1  0  0  0
 29 30  1  0  0  0
 30 31  1  0  0  0
 31 32  1  0  0  0
 21 22  2  0  0  0
 22 23  1  0  0  0
 13 14  1  0  0  0
 14 33  1  0  0  0
 33 34  1  0  0  0
 34 35  1  0  0  0
 34 36  1  0  0  0
 34 37  1  0  0  0
 37 38  1  0  0  0
 14  2  1  0  0  0
 12  4  1  0  0  0
 22 16  1  0  0  0
 12  7  1  0  0  0
  6 15  1  0  0  0
 27 28  1  0  0  0
 38 39  1  0  0  0
M  END
> <minimizedAffinity>
23.38532

> <CNNscore>
0.4147787392

> <CNNaffinity>
6.6539335251

> <CNN_VS>
2.7599101067

> <CNNaffinity_variance>
0.8723024130

$$$$
[H]OC([H])([H])C(F)(F)C([H])([H])N1[C@]([H])(c2c(F)c([H])nc(OC([H])([H])C([H])([H])N([H])C([H])([H])C([H])([H])C([H])([H])F)c2F)c2c(c3c([H])c([H])c([H])c([H])c3n2[H])C([H])([H])[C@@]1([H])C([H])([H])[H]


 39 42  0  0  0  0  0  0  0  0999 V2000
   21.2784    8.0255   50.3878 C   0  0  0  0  0  0  0  0  0  0  0  0
   20.8434    7.9998   51.8284 C   0  0  0  0  0  0  0  0  0  0  0  0
   20.0522    9.3347   51.9561 C   0  0  0  0  0  0  0  0  0  0  0  0
   21.0780   10.3904   51.8715 C   0  0  0  0  0  0  0  0  0  0  0  0
   22.3493   10.1574   52.3293 C   0  0  0  0  0  0  0  0  0  0  0  0
   23.0345   11.3011   52.1095 N   0  0  0  0  0  0  0  0  0  0  0  0
   22.2659   12.2366   51.5409 C   0  0  0  0  0  0  0  0  0  0  0  0
   22.4706   13.5384   51.1229 C   0  0  0  0  0  0  0  0  0  0  0  0
   21.4459   14.2625   50.5572 C   0  0  0  0  0  0  0  0  0  0  0  0
   20.1739   13.7050   50.3898 C   0  0  0  0  0  0  0  0  0  0  0  0
   20.0002   12.4075   50.8152 C   0  0  0  0  0  0  0  0  0  0  0  0
   21.0154   11.6744   51.3815 C   0  0  0  0  0  0  0  0  0  0  0  0
   22.7959    8.8692   52.9348 C   0  0  0  0  0  0  0  0  0  0  0  0
   21.8019    7.8489   52.8159 N   0  0  0  0  0  0  0  0  0  0  0  0
   24.0369   11.4496   52.3479 H   0  0  0  0  0  0  0  0  0  0  0  0
   23.4679    9.0458   54.2117 C   0  0  0  0  0  0  0  0  0  0  0  0
   22.8225    9.5063   55.3391 C   0  0  0  0  0  0  0  0  0  0  0  0
   21.5324    9.8052   55.2563 F   0  0  0  0  0  0  0  0  0  0  0  0
   23.4709    9.6672   56.5508 C   0  0  0  0  0  0  0  0  0  0  0  0
   24.7782    9.3656   56.6392 N   0  0  0  0  0  0  0  0  0  0  0  0
   25.4832    8.9113   55.5902 C   0  0  0  0  0  0  0  0  0  0  0  0
   24.8182    8.7562   54.3850 C   0  0  0  0  0  0  0  0  0  0  0  0
   25.5656    8.2957   53.3476 F   0  0  0  0  0  0  0  0  0  0  0  0
   26.8113    8.6196   55.7382 O   0  0  0  0  0  0  0  0  0  0  0  0
   27.8180    9.4435   56.2368 C   0  0  0  0  0  0  0  0  0  0  0  0
   27.6744    9.8377   57.6656 C   0  0  0  0  0  0  0  0  0  0  0  0
   28.4846    9.0220   58.5539 N   0  0  0  0  0  0  0  0  0  0  0  0
   28.1264    8.0704   58.6950 H   0  0  0  0  0  0  0  0  0  0  0  0
   28.8257    9.6873   59.7774 C   0  0  0  0  0  0  0  0  0  0  0  0
   29.4731   11.0304   59.5494 C   0  0  0  0  0  0  0  0  0  0  0  0
   28.8882   12.1275   60.3892 C   0  0  0  0  0  0  0  0  0  0  0  0
   28.0335   12.9558   59.6970 F   0  0  0  0  0  0  0  0  0  0  0  0
   21.9003    6.7910   53.6867 C   0  0  0  0  0  0  0  0  0  0  0  0
   22.9656    5.8098   53.7952 C   0  0  0  0  0  0  0  0  0  0  0  0
   22.6039    4.5115   53.4367 F   0  0  0  0  0  0  0  0  0  0  0  0
   23.9278    6.0668   52.7188 F   0  0  0  0  0  0  0  0  0  0  0  0
   23.8584    5.7333   54.9760 C   0  0  0  0  0  0  0  0  0  0  0  0
   23.3442    5.4439   56.1941 O   0  0  0  0  0  0  0  0  0  0  0  0
   23.3416    4.4779   56.3890 H   0  0  0  0  0  0  0  0  0  0  0  0
  1  2  1  0  0  0
  2  3  1  0  0  0
  3  4  1  0  0  0
  4  5  2  0  0  0
  5  6  1  0  0  0
  6  7  1  0  0  0
  7  8  2  0  0  0
  8  9  1  0  0  0
  9 10  2  0  0  0
 10 11  1  0  0  0
 11 12  2  0  0  0
  5 13  1  0  0  0
 13 16  1  0  0  0
 16 17  2  0  0  0
 17 18  1  0  0  0
 17 19  1  0  0  0
 19 20  2  0  0  0
 20 21  1  0  0  0
 21 24  1  0  0  0
 24 25  1  0  0  0
 25 26  1  0  0  0
 26 27  1  0  0  0
 27 29  1  0  0  0
 29 30  1  0  0  0
 30 31  1  0  0  0
 31 32  1  0  0  0
 21 22  2  0  0  0
 22 23  1  0  0  0
 13 14  1  0  0  0
 14 33  1  0  0  0
 33 34  1  0  0  0
 34 35  1  0  0  0
 34 36  1  0  0  0
 34 37  1  0  0  0
 37 38  1  0  0  0
 14  2  1  0  0  0
 12  4  1  0  0  0
 22 16  1  0  0  0
 12  7  1  0  0  0
  6 15  1  0  0  0
 27 28  1  0  0  0
 38 39  1  0  0  0
M  END
> <minimizedAffinity>
27.50194

> <CNNscore>
0.4132474959

> <CNNaffinity>
7.0168938637

> <CNN_VS>
2.8997137547

> <CNNaffinity_variance>
0.6674630642

$$$$
[H]OC([H])([H])C(F)(F)C([H])([H])N1[C@]([H])(c2c(F)c([H])nc(OC([H])([H])C([H])([H])N([H])C([H])([H])C([H])([H])C([H])([H])F)c2F)c2c(c3c([H])c([H])c([H])c([H])c3n2[H])C([H])([H])[C@@]1([H])C([H])([H])[H]


 39 42  0  0  0  0  0  0  0  0999 V2000
   19.9846    7.6875   50.6437 C   0  0  0  0  0  0  0  0  0  0  0  0
   20.0236    7.4064   52.1219 C   0  0  0  0  0  0  0  0  0  0  0  0
   19.7396    8.8111   52.7305 C   0  0  0  0  0  0  0  0  0  0  0  0
   20.9535    9.5979   52.4454 C   0  0  0  0  0  0  0  0  0  0  0  0
   22.1758    8.9810   52.3720 C   0  0  0  0  0  0  0  0  0  0  0  0
   23.0660    9.9603   52.0990 N   0  0  0  0  0  0  0  0  0  0  0  0
   22.4719   11.1544   51.9975 C   0  0  0  0  0  0  0  0  0  0  0  0
   22.9130   12.4390   51.7398 C   0  0  0  0  0  0  0  0  0  0  0  0
   22.0256   13.4905   51.7007 C   0  0  0  0  0  0  0  0  0  0  0  0
   20.6585   13.2906   51.9196 C   0  0  0  0  0  0  0  0  0  0  0  0
   20.2490   12.0012   52.1735 C   0  0  0  0  0  0  0  0  0  0  0  0
   21.1254   10.9433   52.2152 C   0  0  0  0  0  0  0  0  0  0  0  0
   22.3857    7.5172   52.5693 C   0  0  0  0  0  0  0  0  0  0  0  0
   21.1488    6.8067   52.6612 N   0  0  0  0  0  0  0  0  0  0  0  0
   24.0902    9.8173   51.9796 H   0  0  0  0  0  0  0  0  0  0  0  0
   23.4365    7.2194   53.5287 C   0  0  0  0  0  0  0  0  0  0  0  0
   23.2229    6.4636   54.6613 C   0  0  0  0  0  0  0  0  0  0  0  0
   22.0049    5.9891   54.8893 F   0  0  0  0  0  0  0  0  0  0  0  0
   24.2313    6.1829   55.5662 C   0  0  0  0  0  0  0  0  0  0  0  0
   25.4671    6.6617   55.3391 N   0  0  0  0  0  0  0  0  0  0  0  0
   25.7621    7.4064   54.2612 C   0  0  0  0  0  0  0  0  0  0  0  0
   24.7406    7.6777   53.3658 C   0  0  0  0  0  0  0  0  0  0  0  0
   25.0783    8.4348   52.2889 F   0  0  0  0  0  0  0  0  0  0  0  0
   27.0374    7.8666   54.0807 O   0  0  0  0  0  0  0  0  0  0  0  0
   27.7623    8.7245   54.9049 C   0  0  0  0  0  0  0  0  0  0  0  0
   27.1652    8.9825   56.2445 C   0  0  0  0  0  0  0  0  0  0  0  0
   28.1103    9.5817   57.1710 N   0  0  0  0  0  0  0  0  0  0  0  0
   29.0865    9.5515   56.8546 H   0  0  0  0  0  0  0  0  0  0  0  0
   27.9376    9.1343   58.5223 C   0  0  0  0  0  0  0  0  0  0  0  0
   28.9742    9.7003   59.4604 C   0  0  0  0  0  0  0  0  0  0  0  0
   29.2607   11.1548   59.2293 C   0  0  0  0  0  0  0  0  0  0  0  0
   28.1724   11.9714   59.4405 F   0  0  0  0  0  0  0  0  0  0  0  0
   21.1924    5.5729   53.2636 C   0  0  0  0  0  0  0  0  0  0  0  0
   20.1056    4.6312   53.4675 C   0  0  0  0  0  0  0  0  0  0  0  0
   20.1175    3.5301   52.6118 F   0  0  0  0  0  0  0  0  0  0  0  0
   20.3518    3.9232   54.7278 F   0  0  0  0  0  0  0  0  0  0  0  0
   18.6997    5.0664   53.6441 C   0  0  0  0  0  0  0  0  0  0  0  0
   17.7697    4.1855   54.0813 O   0  0  0  0  0  0  0  0  0  0  0  0
   17.6772    4.1818   55.0625 H   0  0  0  0  0  0  0  0  0  0  0  0
  1  2  1  0  0  0
  2  3  1  0  0  0
  3  4  1  0  0  0
  4  5  2  0  0  0
  5  6  1  0  0  0
  6  7  1  0  0  0
  7  8  2  0  0  0
  8  9  1  0  0  0
  9 10  2  0  0  0
 10 11  1  0  0  0
 11 12  2  0  0  0
  5 13  1  0  0  0
 13 16  1  0  0  0
 16 17  2  0  0  0
 17 18  1  0  0  0
 17 19  1  0  0  0
 19 20  2  0  0  0
 20 21  1  0  0  0
 21 24  1  0  0  0
 24 25  1  0  0  0
 25 26  1  0  0  0
 26 27  1  0  0  0
 27 29  1  0  0  0
 29 30  1  0  0  0
 30 31  1  0  0  0
 31 32  1  0  0  0
 21 22  2  0  0  0
 22 23  1  0  0  0
 13 14  1  0  0  0
 14 33  1  0  0  0
 33 34  1  0  0  0
 34 35  1  0  0  0
 34 36  1  0  0  0
 34 37  1  0  0  0
 37 38  1  0  0  0
 14  2  1  0  0  0
 12  4  1  0  0  0
 22 16  1  0  0  0
 12  7  1  0  0  0
  6 15  1  0  0  0
 27 28  1  0  0  0
 38 39  1  0  0  0
M  END
> <minimizedAffinity>
30.92428

> <CNNscore>
0.4121766090

> <CNNaffinity>
6.8569769859

> <CNN_VS>
2.8262856007

> <CNNaffinity_variance>
1.3317449093

$$$$
[H]OC([H])([H])C(F)(F)C([H])([H])N1[C@]([H])(c2c(F)c([H])nc(OC([H])([H])C([H])([H])N([H])C([H])([H])C([H])([H])C([H])([H])F)c2F)c2c(c3c([H])c([H])c([H])c([H])c3n2[H])C([H])([H])[C@@]1([H])C([H])([H])[H]


 39 42  0  0  0  0  0  0  0  0999 V2000
   24.2815    5.6350   53.2298 C   0  0  0  0  0  0  0  0  0  0  0  0
   23.7530    6.8445   52.5066 C   0  0  0  0  0  0  0  0  0  0  0  0
   25.0281    7.7271   52.3680 C   0  0  0  0  0  0  0  0  0  0  0  0
   25.3219    8.1831   53.7390 C   0  0  0  0  0  0  0  0  0  0  0  0
   24.3041    8.3692   54.6387 C   0  0  0  0  0  0  0  0  0  0  0  0
   24.8951    8.7789   55.7827 N   0  0  0  0  0  0  0  0  0  0  0  0
   26.2237    8.8603   55.6513 C   0  0  0  0  0  0  0  0  0  0  0  0
   27.2620    9.2171   56.4915 C   0  0  0  0  0  0  0  0  0  0  0  0
   28.5638    9.1982   56.0447 C   0  0  0  0  0  0  0  0  0  0  0  0
   28.8722    8.8193   54.7339 C   0  0  0  0  0  0  0  0  0  0  0  0
   27.8181    8.4693   53.9209 C   0  0  0  0  0  0  0  0  0  0  0  0
   26.5144    8.4843   54.3554 C   0  0  0  0  0  0  0  0  0  0  0  0
   22.8628    8.1416   54.3281 C   0  0  0  0  0  0  0  0  0  0  0  0
   22.6809    7.5338   53.0472 N   0  0  0  0  0  0  0  0  0  0  0  0
   24.3911    9.0062   56.6647 H   0  0  0  0  0  0  0  0  0  0  0  0
   22.0193    9.2674   54.6944 C   0  0  0  0  0  0  0  0  0  0  0  0
   21.3438    9.3368   55.8939 C   0  0  0  0  0  0  0  0  0  0  0  0
   21.4648    8.3314   56.7514 F   0  0  0  0  0  0  0  0  0  0  0  0
   20.5464   10.4151   56.2343 C   0  0  0  0  0  0  0  0  0  0  0  0
   20.4209   11.4360   55.3683 N   0  0  0  0  0  0  0  0  0  0  0  0
   21.0436   11.4495   54.1784 C   0  0  0  0  0  0  0  0  0  0  0  0
   21.8378   10.3620   53.8541 C   0  0  0  0  0  0  0  0  0  0  0  0
   22.4500   10.4123   52.6417 F   0  0  0  0  0  0  0  0  0  0  0  0
   20.8800   12.5155   53.3372 O   0  0  0  0  0  0  0  0  0  0  0  0
   19.8580   13.4621   53.3440 C   0  0  0  0  0  0  0  0  0  0  0  0
   20.2475   14.8289   52.8995 C   0  0  0  0  0  0  0  0  0  0  0  0
   19.7007   15.1695   51.5973 N   0  0  0  0  0  0  0  0  0  0  0  0
   18.7602   14.7958   51.4250 H   0  0  0  0  0  0  0  0  0  0  0  0
   20.6145   14.9255   50.5196 C   0  0  0  0  0  0  0  0  0  0  0  0
   21.9135   14.3154   50.9840 C   0  0  0  0  0  0  0  0  0  0  0  0
   22.1463   12.9298   50.4578 C   0  0  0  0  0  0  0  0  0  0  0  0
   21.2365   12.0048   50.9187 F   0  0  0  0  0  0  0  0  0  0  0  0
   21.4411    7.6725   52.4720 C   0  0  0  0  0  0  0  0  0  0  0  0
   20.1964    7.0250   52.8477 C   0  0  0  0  0  0  0  0  0  0  0  0
   19.2057    7.8881   53.3149 F   0  0  0  0  0  0  0  0  0  0  0  0
   19.5293    6.5815   51.6194 F   0  0  0  0  0  0  0  0  0  0  0  0
   20.1588    5.7894   53.6656 C   0  0  0  0  0  0  0  0  0  0  0  0
   21.0777    4.8166   53.4627 O   0  0  0  0  0  0  0  0  0  0  0  0
   21.8782    4.9220   54.0277 H   0  0  0  0  0  0  0  0  0  0  0  0
  1  2  1  0  0  0
  2  3  1  0  0  0
  3  4  1  0  0  0
  4  5  2  0  0  0
  5  6  1  0  0  0
  6  7  1  0  0  0
  7  8  2  0  0  0
  8  9  1  0  0  0
  9 10  2  0  0  0
 10 11  1  0  0  0
 11 12  2  0  0  0
  5 13  1  0  0  0
 13 16  1  0  0  0
 16 17  2  0  0  0
 17 18  1  0  0  0
 17 19  1  0  0  0
 19 20  2  0  0  0
 20 21  1  0  0  0
 21 24  1  0  0  0
 24 25  1  0  0  0
 25 26  1  0  0  0
 26 27  1  0  0  0
 27 29  1  0  0  0
 29 30  1  0  0  0
 30 31  1  0  0  0
 31 32  1  0  0  0
 21 22  2  0  0  0
 22 23  1  0  0  0
 13 14  1  0  0  0
 14 33  1  0  0  0
 33 34  1  0  0  0
 34 35  1  0  0  0
 34 36  1  0  0  0
 34 37  1  0  0  0
 37 38  1  0  0  0
 14  2  1  0  0  0
 12  4  1  0  0  0
 22 16  1  0  0  0
 12  7  1  0  0  0
  6 15  1  0  0  0
 27 28  1  0  0  0
 38 39  1  0  0  0
M  END
> <minimizedAffinity>
25.77537

> <CNNscore>
0.3989492059

> <CNNaffinity>
6.7467603683

> <CNN_VS>
2.6916146278

> <CNNaffinity_variance>
0.6516461968

$$$$
[H]c1c([H])c(C([H])(C(=O)N([H])C([H])([H])c2c([H])c([H])c(C(F)(F)F)c([H])c2C2([H])C([H])([H])C([H])([H])C([H])([H])C([H])([H])C2([H])[H])C([H])([H])[H])c([H])c(F)c1N([H])S(=O)(=O)C([H])([H])[H]


 36 38  0  0  0  0  0  0  0  0999 V2000
   21.7614    7.4277   51.3422 C   0  0  0  0  0  0  0  0  0  0  0  0
   21.1554    7.2887   50.4412 O   0  0  0  0  0  0  0  0  0  0  0  0
   22.9179    7.1877   52.0939 N   0  0  0  0  0  0  0  0  0  0  0  0
   23.4587    6.4552   51.0262 H   0  0  0  0  0  0  0  0  0  0  0  0
   19.7435    8.0181   52.3137 C   0  0  0  0  0  0  0  0  0  0  0  0
   21.2144    8.4327   52.5535 C   0  0  0  0  0  0  0  0  0  0  0  0
   21.4075    9.7834   52.1642 C   0  0  0  0  0  0  0  0  0  0  0  0
   21.2905   10.2254   50.9086 C   0  0  0  0  0  0  0  0  0  0  0  0
   21.3407   11.5035   50.5490 C   0  0  0  0  0  0  0  0  0  0  0  0
   21.5680   12.5007   51.5831 C   0  0  0  0  0  0  0  0  0  0  0  0
   21.6994   12.0644   52.8094 C   0  0  0  0  0  0  0  0  0  0  0  0
   22.0403   13.0169   53.7811 F   0  0  0  0  0  0  0  0  0  0  0  0
   21.6256   10.7508   53.2211 C   0  0  0  0  0  0  0  0  0  0  0  0
   21.3121   13.7767   51.0453 N   0  0  0  0  0  0  0  0  0  0  0  0
   21.7348   13.8192   49.9896 H   0  0  0  0  0  0  0  0  0  0  0  0
   20.4827   15.1130   51.5327 S   0  0  0  0  0  0  0  0  0  0  0  0
   21.5961   16.4955   51.8032 C   0  0  0  0  0  0  0  0  0  0  0  0
   19.5643   14.8205   52.6526 O   0  0  0  0  0  0  0  0  0  0  0  0
   19.6262   15.5724   50.3073 O   0  0  0  0  0  0  0  0  0  0  0  0
   23.9530    6.9687   52.7594 C   0  0  0  0  0  0  0  0  0  0  0  0
   24.9420    7.8814   53.3881 C   0  0  0  0  0  0  0  0  0  0  0  0
   26.3042    7.8980   53.2386 C   0  0  0  0  0  0  0  0  0  0  0  0
   27.1630    8.4693   54.2296 C   0  0  0  0  0  0  0  0  0  0  0  0
   26.5805    8.9814   55.2958 C   0  0  0  0  0  0  0  0  0  0  0  0
   25.2042    8.9678   55.4789 C   0  0  0  0  0  0  0  0  0  0  0  0
   24.4028    8.4491   54.5714 C   0  0  0  0  0  0  0  0  0  0  0  0
   22.9085    8.5284   54.4721 C   0  0  0  0  0  0  0  0  0  0  0  0
   22.3588    9.3583   55.6531 C   0  0  0  0  0  0  0  0  0  0  0  0
   22.5256    8.7973   56.9900 C   0  0  0  0  0  0  0  0  0  0  0  0
   21.9712    7.3955   57.0800 C   0  0  0  0  0  0  0  0  0  0  0  0
   21.3854    6.9550   55.7624 C   0  0  0  0  0  0  0  0  0  0  0  0
   22.2590    7.1614   54.5686 C   0  0  0  0  0  0  0  0  0  0  0  0
   27.4172    9.3130   56.5540 C   0  0  0  0  0  0  0  0  0  0  0  0
   27.1112    8.6938   57.6400 F   0  0  0  0  0  0  0  0  0  0  0  0
   27.4324   10.6863   56.6539 F   0  0  0  0  0  0  0  0  0  0  0  0
   28.7588    8.9902   56.1790 F   0  0  0  0  0  0  0  0  0  0  0  0
  5  6  1  0  0  0
  6  1  1  0  0  0
  1  2  2  0  0  0
  1  3  1  0  0  0
  3 20  1  0  0  0
 20 21  1  0  0  0
 21 22  2  0  0  0
 22 23  1  0  0  0
 23 24  2  0  0  0
 24 33  1  0  0  0
 33 34  1  0  0  0
 33 35  1  0  0  0
 33 36  1  0  0  0
 24 25  1  0  0  0
 25 26  2  0  0  0
 26 27  1  0  0  0
 27 28  1  0  0  0
 28 29  1  0  0  0
 29 30  1  0  0  0
 30 31  1  0  0  0
 31 32  1  0  0  0
  6  7  1  0  0  0
  7  8  2  0  0  0
  8  9  1  0  0  0
  9 10  2  0  0  0
 10 14  1  0  0  0
 14 16  1  0  0  0
 16 17  1  0  0  0
 16 18  2  0  0  0
 16 19  2  0  0  0
 10 11  1  0  0  0
 11 12  1  0  0  0
 11 13  2  0  0  0
 26 21  1  0  0  0
 32 27  1  0  0  0
 13  7  1  0  0  0
  3  4  1  0  0  0
 14 15  1  0  0  0
M  END
> <minimizedAffinity>
24.47257

> <CNNscore>
0.6941797137

> <CNNaffinity>
7.0154943466

> <CNN_VS>
4.8700137138

> <CNNaffinity_variance>
0.7780793905

$$$$
[H]c1c([H])c(C([H])(C(=O)N([H])C([H])([H])c2c([H])c([H])c(C(F)(F)F)c([H])c2C2([H])C([H])([H])C([H])([H])C([H])([H])C([H])([H])C2([H])[H])C([H])([H])[H])c([H])c(F)c1N([H])S(=O)(=O)C([H])([H])[H]


 36 38  0  0  0  0  0  0  0  0999 V2000
   24.3427    6.7411   54.3783 C   0  0  0  0  0  0  0  0  0  0  0  0
   24.8579    6.1570   55.1475 O   0  0  0  0  0  0  0  0  0  0  0  0
   23.2617    6.9513   53.5137 N   0  0  0  0  0  0  0  0  0  0  0  0
   22.6140    5.8290   54.0522 H   0  0  0  0  0  0  0  0  0  0  0  0
   25.7585    7.4594   52.6919 C   0  0  0  0  0  0  0  0  0  0  0  0
   25.0127    8.1707   53.8455 C   0  0  0  0  0  0  0  0  0  0  0  0
   25.9432    8.6394   54.8087 C   0  0  0  0  0  0  0  0  0  0  0  0
   25.5995    9.1909   55.9762 C   0  0  0  0  0  0  0  0  0  0  0  0
   26.4543    9.5153   56.9402 C   0  0  0  0  0  0  0  0  0  0  0  0
   27.8717    9.2853   56.7087 C   0  0  0  0  0  0  0  0  0  0  0  0
   28.2077    8.7612   55.5582 C   0  0  0  0  0  0  0  0  0  0  0  0
   29.5813    8.6568   55.2934 F   0  0  0  0  0  0  0  0  0  0  0  0
   27.3466    8.3879   54.5484 C   0  0  0  0  0  0  0  0  0  0  0  0
   28.5591    9.4316   57.9291 N   0  0  0  0  0  0  0  0  0  0  0  0
   29.1491    8.4799   58.1318 H   0  0  0  0  0  0  0  0  0  0  0  0
   28.7796   10.6491   59.0154 S   0  0  0  0  0  0  0  0  0  0  0  0
   28.3543   10.1123   60.6753 C   0  0  0  0  0  0  0  0  0  0  0  0
   28.1370   11.9066   58.5804 O   0  0  0  0  0  0  0  0  0  0  0  0
   30.3222   10.8932   59.0980 O   0  0  0  0  0  0  0  0  0  0  0  0
   22.2933    7.1322   52.7443 C   0  0  0  0  0  0  0  0  0  0  0  0
   21.5756    8.3623   52.3223 C   0  0  0  0  0  0  0  0  0  0  0  0
   21.0181    8.6501   51.1039 C   0  0  0  0  0  0  0  0  0  0  0  0
   20.8014    9.9973   50.6749 C   0  0  0  0  0  0  0  0  0  0  0  0
   21.1634   10.9514   51.5097 C   0  0  0  0  0  0  0  0  0  0  0  0
   21.7412   10.6892   52.7447 C   0  0  0  0  0  0  0  0  0  0  0  0
   21.9412    9.4530   53.1529 C   0  0  0  0  0  0  0  0  0  0  0  0
   22.3383    8.9575   54.5115 C   0  0  0  0  0  0  0  0  0  0  0  0
   21.1155    8.3126   55.2005 C   0  0  0  0  0  0  0  0  0  0  0  0
   20.0023    9.1955   55.5339 C   0  0  0  0  0  0  0  0  0  0  0  0
   20.4555   10.3793   56.3546 C   0  0  0  0  0  0  0  0  0  0  0  0
   21.9395   10.3256   56.6161 C   0  0  0  0  0  0  0  0  0  0  0  0
   22.7960   10.0850   55.4165 C   0  0  0  0  0  0  0  0  0  0  0  0
   21.2816   12.4125   51.0151 C   0  0  0  0  0  0  0  0  0  0  0  0
   20.8484   13.3336   51.8027 F   0  0  0  0  0  0  0  0  0  0  0  0
   20.7443   12.4332   49.7474 F   0  0  0  0  0  0  0  0  0  0  0  0
   22.6816   12.5943   50.7879 F   0  0  0  0  0  0  0  0  0  0  0  0
  5  6  1  0  0  0
  6  1  1  0  0  0
  1  2  2  0  0  0
  1  3  1  0  0  0
  3 20  1  0  0  0
 20 21  1  0  0  0
 21 22  2  0  0  0
 22 23  1  0  0  0
 23 24  2  0  0  0
 24 33  1  0  0  0
 33 34  1  0  0  0
 33 35  1  0  0  0
 33 36  1  0  0  0
 24 25  1  0  0  0
 25 26  2  0  0  0
 26 27  1  0  0  0
 27 28  1  0  0  0
 28 29  1  0  0  0
 29 30  1  0  0  0
 30 31  1  0  0  0
 31 32  1  0  0  0
  6  7  1  0  0  0
  7  8  2  0  0  0
  8  9  1  0  0  0
  9 10  2  0  0  0
 10 14  1  0  0  0
 14 16  1  0  0  0
 16 17  1  0  0  0
 16 18  2  0  0  0
 16 19  2  0  0  0
 10 11  1  0  0  0
 11 12  1  0  0  0
 11 13  2  0  0  0
 26 21  1  0  0  0
 32 27  1  0  0  0
 13  7  1  0  0  0
  3  4  1  0  0  0
 14 15  1  0  0  0
M  END
> <minimizedAffinity>
17.38006

> <CNNscore>
0.5537512302

> <CNNaffinity>
7.1083717346

> <CNN_VS>
3.9362695217

> <CNNaffinity_variance>
0.5086559057

$$$$
[H]c1c([H])c(C([H])(C(=O)N([H])C([H])([H])c2c([H])c([H])c(C(F)(F)F)c([H])c2C2([H])C([H])([H])C([H])([H])C([H])([H])C([H])([H])C2([H])[H])C([H])([H])[H])c([H])c(F)c1N([H])S(=O)(=O)C([H])([H])[H]


 36 38  0  0  0  0  0  0  0  0999 V2000
   27.2467    7.6905   54.3781 C   0  0  0  0  0  0  0  0  0  0  0  0
   28.1661    7.1291   54.5729 O   0  0  0  0  0  0  0  0  0  0  0  0
   25.9293    7.7660   53.9102 N   0  0  0  0  0  0  0  0  0  0  0  0
   25.9394    6.3851   53.6616 H   0  0  0  0  0  0  0  0  0  0  0  0
   28.3904    9.6632   53.9723 C   0  0  0  0  0  0  0  0  0  0  0  0
   27.1526    9.2935   54.8232 C   0  0  0  0  0  0  0  0  0  0  0  0
   27.4587    9.4150   56.2034 C   0  0  0  0  0  0  0  0  0  0  0  0
   27.3893    8.4072   57.0779 C   0  0  0  0  0  0  0  0  0  0  0  0
   27.7947    8.4729   58.3415 C   0  0  0  0  0  0  0  0  0  0  0  0
   28.3274    9.7358   58.8281 C   0  0  0  0  0  0  0  0  0  0  0  0
   28.3786   10.7263   57.9751 C   0  0  0  0  0  0  0  0  0  0  0  0
   28.7770   11.9717   58.4829 F   0  0  0  0  0  0  0  0  0  0  0  0
   27.9930   10.6853   56.6522 C   0  0  0  0  0  0  0  0  0  0  0  0
   28.9427    9.5166   60.0757 N   0  0  0  0  0  0  0  0  0  0  0  0
   28.5072   10.2482   60.8308 H   0  0  0  0  0  0  0  0  0  0  0  0
   30.0124    8.4218   60.6827 S   0  0  0  0  0  0  0  0  0  0  0  0
   31.2499    9.2313   61.7012 C   0  0  0  0  0  0  0  0  0  0  0  0
   30.5501    7.5292   59.6352 O   0  0  0  0  0  0  0  0  0  0  0  0
   29.2163    7.5476   61.7065 O   0  0  0  0  0  0  0  0  0  0  0  0
   24.7535    7.8260   53.4903 C   0  0  0  0  0  0  0  0  0  0  0  0
   23.5262    7.0763   53.8617 C   0  0  0  0  0  0  0  0  0  0  0  0
   23.4047    5.7571   54.2124 C   0  0  0  0  0  0  0  0  0  0  0  0
   22.1683    5.0517   54.0712 C   0  0  0  0  0  0  0  0  0  0  0  0
   21.1484    5.7329   53.5876 C   0  0  0  0  0  0  0  0  0  0  0  0
   21.2459    7.0664   53.2132 C   0  0  0  0  0  0  0  0  0  0  0  0
   22.3774    7.7279   53.3430 C   0  0  0  0  0  0  0  0  0  0  0  0
   22.6342    9.1994   53.2092 C   0  0  0  0  0  0  0  0  0  0  0  0
   23.2296    9.7387   54.5285 C   0  0  0  0  0  0  0  0  0  0  0  0
   22.3671    9.7062   55.7054 C   0  0  0  0  0  0  0  0  0  0  0  0
   21.0476   10.3945   55.4493 C   0  0  0  0  0  0  0  0  0  0  0  0
   20.9799   10.9388   54.0448 C   0  0  0  0  0  0  0  0  0  0  0  0
   21.3569    9.9794   52.9640 C   0  0  0  0  0  0  0  0  0  0  0  0
   19.8854    4.9913   53.0895 C   0  0  0  0  0  0  0  0  0  0  0  0
   20.0232    3.7531   52.7666 F   0  0  0  0  0  0  0  0  0  0  0  0
   19.3333    5.7879   52.1113 F   0  0  0  0  0  0  0  0  0  0  0  0
   18.9607    5.1046   54.1743 F   0  0  0  0  0  0  0  0  0  0  0  0
  5  6  1  0  0  0
  6  1  1  0  0  0
  1  2  2  0  0  0
  1  3  1  0  0  0
  3 20  1  0  0  0
 20 21  1  0  0  0
 21 22  2  0  0  0
 22 23  1  0  0  0
 23 24  2  0  0  0
 24 33  1  0  0  0
 33 34  1  0  0  0
 33 35  1  0  0  0
 33 36  1  0  0  0
 24 25  1  0  0  0
 25 26  2  0  0  0
 26 27  1  0  0  0
 27 28  1  0  0  0
 28 29  1  0  0  0
 29 30  1  0  0  0
 30 31  1  0  0  0
 31 32  1  0  0  0
  6  7  1  0  0  0
  7  8  2  0  0  0
  8  9  1  0  0  0
  9 10  2  0  0  0
 10 14  1  0  0  0
 14 16  1  0  0  0
 16 17  1  0  0  0
 16 18  2  0  0  0
 16 19  2  0  0  0
 10 11  1  0  0  0
 11 12  1  0  0  0
 11 13  2  0  0  0
 26 21  1  0  0  0
 32 27  1  0  0  0
 13  7  1  0  0  0
  3  4  1  0  0  0
 14 15  1  0  0  0
M  END
> <minimizedAffinity>
14.47519

> <CNNscore>
0.5536522865

> <CNNaffinity>
6.3745379448

> <CNN_VS>
3.5292775631

> <CNNaffinity_variance>
0.1019496918

$$$$
[H]c1c([H])c(C([H])(C(=O)N([H])C([H])([H])c2c([H])c([H])c(C(F)(F)F)c([H])c2C2([H])C([H])([H])C([H])([H])C([H])([H])C([H])([H])C2([H])[H])C([H])([H])[H])c([H])c(F)c1N([H])S(=O)(=O)C([H])([H])[H]


 36 38  0  0  0  0  0  0  0  0999 V2000
   22.5703    7.1187   52.1400 C   0  0  0  0  0  0  0  0  0  0  0  0
   21.7164    7.2602   51.4697 O   0  0  0  0  0  0  0  0  0  0  0  0
   23.9299    7.2581   52.4438 N   0  0  0  0  0  0  0  0  0  0  0  0
   24.1214    7.9755   51.2532 H   0  0  0  0  0  0  0  0  0  0  0  0
   23.2447    5.2208   53.2835 C   0  0  0  0  0  0  0  0  0  0  0  0
   22.3348    6.4214   53.6350 C   0  0  0  0  0  0  0  0  0  0  0  0
   20.9866    5.9927   53.7446 C   0  0  0  0  0  0  0  0  0  0  0  0
   19.9404    6.8208   53.8153 C   0  0  0  0  0  0  0  0  0  0  0  0
   18.6687    6.4368   53.7881 C   0  0  0  0  0  0  0  0  0  0  0  0
   18.3816    5.0133   53.7049 C   0  0  0  0  0  0  0  0  0  0  0  0
   19.4074    4.2032   53.6531 C   0  0  0  0  0  0  0  0  0  0  0  0
   19.1252    2.8298   53.6975 F   0  0  0  0  0  0  0  0  0  0  0  0
   20.7369    4.5681   53.6516 C   0  0  0  0  0  0  0  0  0  0  0  0
   17.0146    4.8438   53.4125 N   0  0  0  0  0  0  0  0  0  0  0  0
   16.7250    5.5721   52.5873 H   0  0  0  0  0  0  0  0  0  0  0  0
   15.8300    3.8052   53.8913 S   0  0  0  0  0  0  0  0  0  0  0  0
   14.2363    4.3011   53.2292 C   0  0  0  0  0  0  0  0  0  0  0  0
   15.8552    3.5660   55.3491 O   0  0  0  0  0  0  0  0  0  0  0  0
   16.1152    2.4473   53.1696 O   0  0  0  0  0  0  0  0  0  0  0  0
   25.1449    7.3858   52.7080 C   0  0  0  0  0  0  0  0  0  0  0  0
   25.8688    8.2788   53.6487 C   0  0  0  0  0  0  0  0  0  0  0  0
   27.2131    8.5362   53.7182 C   0  0  0  0  0  0  0  0  0  0  0  0
   27.8290    9.0007   54.9227 C   0  0  0  0  0  0  0  0  0  0  0  0
   27.0401    9.1709   55.9652 C   0  0  0  0  0  0  0  0  0  0  0  0
   25.6775    8.9068   55.9268 C   0  0  0  0  0  0  0  0  0  0  0  0
   25.0981    8.4835   54.8223 C   0  0  0  0  0  0  0  0  0  0  0  0
   23.6370    8.3528   54.5103 C   0  0  0  0  0  0  0  0  0  0  0  0
   23.1242    9.6716   53.8911 C   0  0  0  0  0  0  0  0  0  0  0  0
   23.1271   10.8510   54.7507 C   0  0  0  0  0  0  0  0  0  0  0  0
   22.3886   10.6007   56.0439 C   0  0  0  0  0  0  0  0  0  0  0  0
   21.8384    9.1978   56.0950 C   0  0  0  0  0  0  0  0  0  0  0  0
   22.8085    8.1134   55.7578 C   0  0  0  0  0  0  0  0  0  0  0  0
   27.6463    9.3424   57.3781 C   0  0  0  0  0  0  0  0  0  0  0  0
   28.7251    8.6892   57.6351 F   0  0  0  0  0  0  0  0  0  0  0  0
   26.6153    9.1320   58.2662 F   0  0  0  0  0  0  0  0  0  0  0  0
   27.8980   10.7460   57.4845 F   0  0  0  0  0  0  0  0  0  0  0  0
  5  6  1  0  0  0
  6  1  1  0  0  0
  1  2  2  0  0  0
  1  3  1  0  0  0
  3 20  1  0  0  0
 20 21  1  0  0  0
 21 22  2  0  0  0
 22 23  1  0  0  0
 23 24  2  0  0  0
 24 33  1  0  0  0
 33 34  1  0  0  0
 33 35  1  0  0  0
 33 36  1  0  0  0
 24 25  1  0  0  0
 25 26  2  0  0  0
 26 27  1  0  0  0
 27 28  1  0  0  0
 28 29  1  0  0  0
 29 30  1  0  0  0
 30 31  1  0  0  0
 31 32  1  0  0  0
  6  7  1  0  0  0
  7  8  2  0  0  0
  8  9  1  0  0  0
  9 10  2  0  0  0
 10 14  1  0  0  0
 14 16  1  0  0  0
 16 17  1  0  0  0
 16 18  2  0  0  0
 16 19  2  0  0  0
 10 11  1  0  0  0
 11 12  1  0  0  0
 11 13  2  0  0  0
 26 21  1  0  0  0
 32 27  1  0  0  0
 13  7  1  0  0  0
  3  4  1  0  0  0
 14 15  1  0  0  0
M  END
> <minimizedAffinity>
27.54321

> <CNNscore>
0.5483757257

> <CNNaffinity>
6.9634809494

> <CNN_VS>
3.8186039925

> <CNNaffinity_variance>
0.7979914546

$$$$
[H]c1c([H])c(C([H])(C(=O)N([H])C([H])([H])c2c([H])c([H])c(C(F)(F)F)c([H])c2C2([H])C([H])([H])C([H])([H])C([H])([H])C([H])([H])C2([H])[H])C([H])([H])[H])c([H])c(F)c1N([H])S(=O)(=O)C([H])([H])[H]


 36 38  0  0  0  0  0  0  0  0999 V2000
   23.0826    6.5448   55.2027 C   0  0  0  0  0  0  0  0  0  0  0  0
   23.2789    5.6212   55.7567 O   0  0  0  0  0  0  0  0  0  0  0  0
   22.3186    7.6926   54.9595 N   0  0  0  0  0  0  0  0  0  0  0  0
   21.4992    7.3780   56.0543 H   0  0  0  0  0  0  0  0  0  0  0  0
   24.6345    5.5803   53.7794 C   0  0  0  0  0  0  0  0  0  0  0  0
   24.1404    7.0280   54.0093 C   0  0  0  0  0  0  0  0  0  0  0  0
   25.1750    7.8076   54.5882 C   0  0  0  0  0  0  0  0  0  0  0  0
   24.9819    8.7106   55.5540 C   0  0  0  0  0  0  0  0  0  0  0  0
   25.9530    9.3530   56.1939 C   0  0  0  0  0  0  0  0  0  0  0  0
   27.3284    9.0845   55.8044 C   0  0  0  0  0  0  0  0  0  0  0  0
   27.5145    8.2128   54.8469 C   0  0  0  0  0  0  0  0  0  0  0  0
   28.8320    8.0507   54.3933 F   0  0  0  0  0  0  0  0  0  0  0  0
   26.5336    7.5089   54.1815 C   0  0  0  0  0  0  0  0  0  0  0  0
   28.1890    9.6415   56.7699 N   0  0  0  0  0  0  0  0  0  0  0  0
   28.7663   10.4984   56.2930 H   0  0  0  0  0  0  0  0  0  0  0  0
   28.4516    9.4172   58.3798 S   0  0  0  0  0  0  0  0  0  0  0  0
   28.9176   10.9585   59.1744 C   0  0  0  0  0  0  0  0  0  0  0  0
   29.3562    8.2789   58.6431 O   0  0  0  0  0  0  0  0  0  0  0  0
   27.0595    9.0899   59.0129 O   0  0  0  0  0  0  0  0  0  0  0  0
   21.6315    8.7151   54.7479 C   0  0  0  0  0  0  0  0  0  0  0  0
   21.9232    9.9747   54.0166 C   0  0  0  0  0  0  0  0  0  0  0  0
   21.9081   11.2604   54.4907 C   0  0  0  0  0  0  0  0  0  0  0  0
   21.7240   12.3809   53.6209 C   0  0  0  0  0  0  0  0  0  0  0  0
   21.5702   12.1176   52.3382 C   0  0  0  0  0  0  0  0  0  0  0  0
   21.5694   10.8247   51.8320 C   0  0  0  0  0  0  0  0  0  0  0  0
   21.7429    9.7852   52.6220 C   0  0  0  0  0  0  0  0  0  0  0  0
   21.9911    8.3515   52.2589 C   0  0  0  0  0  0  0  0  0  0  0  0
   21.2639    8.0235   50.9362 C   0  0  0  0  0  0  0  0  0  0  0  0
   19.8051    8.0635   50.9559 C   0  0  0  0  0  0  0  0  0  0  0  0
   19.2379    7.1937   52.0522 C   0  0  0  0  0  0  0  0  0  0  0  0
   20.3347    6.5095   52.8282 C   0  0  0  0  0  0  0  0  0  0  0  0
   21.4389    7.3974   53.3005 C   0  0  0  0  0  0  0  0  0  0  0  0
   21.0387   13.2093   51.3796 C   0  0  0  0  0  0  0  0  0  0  0  0
   20.1644   14.0273   51.8517 F   0  0  0  0  0  0  0  0  0  0  0  0
   20.6603   12.5571   50.2274 F   0  0  0  0  0  0  0  0  0  0  0  0
   22.2086   13.9312   50.9862 F   0  0  0  0  0  0  0  0  0  0  0  0
  5  6  1  0  0  0
  6  1  1  0  0  0
  1  2  2  0  0  0
  1  3  1  0  0  0
  3 20  1  0  0  0
 20 21  1  0  0  0
 21 22  2  0  0  0
 22 23  1  0  0  0
 23 24  2  0  0  0
 24 33  1  0  0  0
 33 34  1  0  0  0
 33 35  1  0  0  0
 33 36  1  0  0  0
 24 25  1  0  0  0
 25 26  2  0  0  0
 26 27  1  0  0  0
 27 28  1  0  0  0
 28 29  1  0  0  0
 29 30  1  0  0  0
 30 31  1  0  0  0
 31 32  1  0  0  0
  6  7  1  0  0  0
  7  8  2  0  0  0
  8  9  1  0  0  0
  9 10  2  0  0  0
 10 14  1  0  0  0
 14 16  1  0  0  0
 16 17  1  0  0  0
 16 18  2  0  0  0
 16 19  2  0  0  0
 10 11  1  0  0  0
 11 12  1  0  0  0
 11 13  2  0  0  0
 26 21  1  0  0  0
 32 27  1  0  0  0
 13  7  1  0  0  0
  3  4  1  0  0  0
 14 15  1  0  0  0
M  END
> <minimizedAffinity>
15.89541

> <CNNscore>
0.5482730269

> <CNNaffinity>
6.9188017845

> <CNN_VS>
3.7933924198

> <CNNaffinity_variance>
0.3140426278

$$$$
[H]c1c([H])c(C([H])(C(=O)N([H])C([H])([H])c2c([H])c([H])c(C(F)(F)F)c([H])c2C2([H])C([H])([H])C([H])([H])C([H])([H])C([H])([H])C2([H])[H])C([H])([H])[H])c([H])c(F)c1N([H])S(=O)(=O)C([H])([H])[H]


 36 38  0  0  0  0  0  0  0  0999 V2000
   21.0957    7.6130   51.2537 C   0  0  0  0  0  0  0  0  0  0  0  0
   20.3200    7.5797   50.4820 O   0  0  0  0  0  0  0  0  0  0  0  0
   22.3801    7.3054   51.7185 N   0  0  0  0  0  0  0  0  0  0  0  0
   22.6932    6.7370   50.4744 H   0  0  0  0  0  0  0  0  0  0  0  0
   19.3162    8.0155   52.6804 C   0  0  0  0  0  0  0  0  0  0  0  0
   20.8059    8.4321   52.6756 C   0  0  0  0  0  0  0  0  0  0  0  0
   20.9189    9.8273   52.4436 C   0  0  0  0  0  0  0  0  0  0  0  0
   21.3099   10.7111   53.3663 C   0  0  0  0  0  0  0  0  0  0  0  0
   21.5441   11.9975   53.1302 C   0  0  0  0  0  0  0  0  0  0  0  0
   21.3353   12.4982   51.7807 C   0  0  0  0  0  0  0  0  0  0  0  0
   20.9359   11.6350   50.8826 C   0  0  0  0  0  0  0  0  0  0  0  0
   20.6188   12.1482   49.6162 F   0  0  0  0  0  0  0  0  0  0  0  0
   20.7102   10.2903   51.0862 C   0  0  0  0  0  0  0  0  0  0  0  0
   21.8948   13.7870   51.6847 N   0  0  0  0  0  0  0  0  0  0  0  0
   23.0182   13.7101   51.8486 H   0  0  0  0  0  0  0  0  0  0  0  0
   21.3344   15.2858   51.2965 S   0  0  0  0  0  0  0  0  0  0  0  0
   19.5791   15.4250   51.6483 C   0  0  0  0  0  0  0  0  0  0  0  0
   21.7339   15.6939   49.9338 O   0  0  0  0  0  0  0  0  0  0  0  0
   21.9873   16.2784   52.3136 O   0  0  0  0  0  0  0  0  0  0  0  0
   23.5282    7.0270   52.1268 C   0  0  0  0  0  0  0  0  0  0  0  0
   24.4441    7.7216   53.0675 C   0  0  0  0  0  0  0  0  0  0  0  0
   25.2061    8.8395   52.8485 C   0  0  0  0  0  0  0  0  0  0  0  0
   26.3750    9.1173   53.6247 C   0  0  0  0  0  0  0  0  0  0  0  0
   26.6848    8.2454   54.5638 C   0  0  0  0  0  0  0  0  0  0  0  0
   25.9381    7.0988   54.7998 C   0  0  0  0  0  0  0  0  0  0  0  0
   24.8572    6.8346   54.0951 C   0  0  0  0  0  0  0  0  0  0  0  0
   23.8071    5.7896   54.3287 C   0  0  0  0  0  0  0  0  0  0  0  0
   22.4079    6.4353   54.2237 C   0  0  0  0  0  0  0  0  0  0  0  0
   22.0573    7.4229   55.2394 C   0  0  0  0  0  0  0  0  0  0  0  0
   22.2377    6.8758   56.6353 C   0  0  0  0  0  0  0  0  0  0  0  0
   22.7251    5.4494   56.6033 C   0  0  0  0  0  0  0  0  0  0  0  0
   23.9004    5.1907   55.7188 C   0  0  0  0  0  0  0  0  0  0  0  0
   28.0854    8.2756   55.2200 C   0  0  0  0  0  0  0  0  0  0  0  0
   28.8230    7.2311   55.0731 F   0  0  0  0  0  0  0  0  0  0  0  0
   27.8894    8.6684   56.5252 F   0  0  0  0  0  0  0  0  0  0  0  0
   28.7284    9.4051   54.6240 F   0  0  0  0  0  0  0  0  0  0  0  0
  5  6  1  0  0  0
  6  1  1  0  0  0
  1  2  2  0  0  0
  1  3  1  0  0  0
  3 20  1  0  0  0
 20 21  1  0  0  0
 21 22  2  0  0  0
 22 23  1  0  0  0
 23 24  2  0  0  0
 24 33  1  0  0  0
 33 34  1  0  0  0
 33 35  1  0  0  0
 33 36  1  0  0  0
 24 25  1  0  0  0
 25 26  2  0  0  0
 26 27  1  0  0  0
 27 28  1  0  0  0
 28 29  1  0  0  0
 29 30  1  0  0  0
 30 31  1  0  0  0
 31 32  1  0  0  0
  6  7  1  0  0  0
  7  8  2  0  0  0
  8  9  1  0  0  0
  9 10  2  0  0  0
 10 14  1  0  0  0
 14 16  1  0  0  0
 16 17  1  0  0  0
 16 18  2  0  0  0
 16 19  2  0  0  0
 10 11  1  0  0  0
 11 12  1  0  0  0
 11 13  2  0  0  0
 26 21  1  0  0  0
 32 27  1  0  0  0
 13  7  1  0  0  0
  3  4  1  0  0  0
 14 15  1  0  0  0
M  END
> <minimizedAffinity>
28.84226

> <CNNscore>
0.5462228656

> <CNNaffinity>
6.7671537399

> <CNN_VS>
3.6963741779

> <CNNaffinity_variance>
0.8477886915

$$$$
[H]c1c([H])c(C([H])(C(=O)N([H])C([H])([H])c2c([H])c([H])c(C(F)(F)F)c([H])c2C2([H])C([H])([H])C([H])([H])C([H])([H])C([H])([H])C2([H])[H])C([H])([H])[H])c([H])c(F)c1N([H])S(=O)(=O)C([H])([H])[H]


 36 38  0  0  0  0  0  0  0  0999 V2000
   22.8328   10.0407   55.5978 C   0  0  0  0  0  0  0  0  0  0  0  0
   21.9278   10.3800   56.1117 O   0  0  0  0  0  0  0  0  0  0  0  0
   24.2011    9.7444   55.5864 N   0  0  0  0  0  0  0  0  0  0  0  0
   24.2705   10.0164   56.9612 H   0  0  0  0  0  0  0  0  0  0  0  0
   21.8643   10.7639   53.6221 C   0  0  0  0  0  0  0  0  0  0  0  0
   22.7399    9.5486   54.0085 C   0  0  0  0  0  0  0  0  0  0  0  0
   21.9755    8.3557   53.9316 C   0  0  0  0  0  0  0  0  0  0  0  0
   20.6408    8.3230   53.8791 C   0  0  0  0  0  0  0  0  0  0  0  0
   19.9184    7.2263   53.6775 C   0  0  0  0  0  0  0  0  0  0  0  0
   20.6176    5.9594   53.5310 C   0  0  0  0  0  0  0  0  0  0  0  0
   21.9236    5.9910   53.5999 C   0  0  0  0  0  0  0  0  0  0  0  0
   22.5831    4.7531   53.5813 F   0  0  0  0  0  0  0  0  0  0  0  0
   22.7049    7.1124   53.7802 C   0  0  0  0  0  0  0  0  0  0  0  0
   19.7090    4.9931   53.0579 N   0  0  0  0  0  0  0  0  0  0  0  0
   19.5810    5.1313   51.9356 H   0  0  0  0  0  0  0  0  0  0  0  0
   18.9186    3.7041   53.7096 S   0  0  0  0  0  0  0  0  0  0  0  0
   17.1583    4.0319   53.8433 C   0  0  0  0  0  0  0  0  0  0  0  0
   19.5622    3.2258   54.9507 O   0  0  0  0  0  0  0  0  0  0  0  0
   18.9938    2.5575   52.6486 O   0  0  0  0  0  0  0  0  0  0  0  0
   25.4233    9.4821   55.5837 C   0  0  0  0  0  0  0  0  0  0  0  0
   26.3697    9.1447   56.6777 C   0  0  0  0  0  0  0  0  0  0  0  0
   26.0985    8.9177   58.0017 C   0  0  0  0  0  0  0  0  0  0  0  0
   27.0954    9.0858   59.0136 C   0  0  0  0  0  0  0  0  0  0  0  0
   28.2908    9.4695   58.6111 C   0  0  0  0  0  0  0  0  0  0  0  0
   28.5903    9.7180   57.2783 C   0  0  0  0  0  0  0  0  0  0  0  0
   27.6823    9.5620   56.3370 C   0  0  0  0  0  0  0  0  0  0  0  0
   27.8539    9.5630   54.8471 C   0  0  0  0  0  0  0  0  0  0  0  0
   26.7231    8.7337   54.1995 C   0  0  0  0  0  0  0  0  0  0  0  0
   26.7072    7.3022   54.4830 C   0  0  0  0  0  0  0  0  0  0  0  0
   28.0325    6.6546   54.1597 C   0  0  0  0  0  0  0  0  0  0  0  0
   29.0155    7.6633   53.6217 C   0  0  0  0  0  0  0  0  0  0  0  0
   29.1580    8.9146   54.4245 C   0  0  0  0  0  0  0  0  0  0  0  0
   29.3236    9.9953   59.6358 C   0  0  0  0  0  0  0  0  0  0  0  0
   30.0005   11.0377   59.3018 F   0  0  0  0  0  0  0  0  0  0  0  0
   30.0804    8.9077   60.0105 F   0  0  0  0  0  0  0  0  0  0  0  0
   28.5474   10.2803   60.8024 F   0  0  0  0  0  0  0  0  0  0  0  0
  5  6  1  0  0  0
  6  1  1  0  0  0
  1  2  2  0  0  0
  1  3  1  0  0  0
  3 20  1  0  0  0
 20 21  1  0  0  0
 21 22  2  0  0  0
 22 23  1  0  0  0
 23 24  2  0  0  0
 24 33  1  0  0  0
 33 34  1  0  0  0
 33 35  1  0  0  0
 33 36  1  0  0  0
 24 25  1  0  0  0
 25 26  2  0  0  0
 26 27  1  0  0  0
 27 28  1  0  0  0
 28 29  1  0  0  0
 29 30  1  0  0  0
 30 31  1  0  0  0
 31 32  1  0  0  0
  6  7  1  0  0  0
  7  8  2  0  0  0
  8  9  1  0  0  0
  9 10  2  0  0  0
 10 14  1  0  0  0
 14 16  1  0  0  0
 16 17  1  0  0  0
 16 18  2  0  0  0
 16 19  2  0  0  0
 10 11  1  0  0  0
 11 12  1  0  0  0
 11 13  2  0  0  0
 26 21  1  0  0  0
 32 27  1  0  0  0
 13  7  1  0  0  0
  3  4  1  0  0  0
 14 15  1  0  0  0
M  END
> <minimizedAffinity>
26.42189

> <CNNscore>
0.5458518863

> <CNNaffinity>
6.9398894310

> <CNN_VS>
3.7881517410

> <CNNaffinity_variance>
0.6996811628

$$$$
[H]c1c([H])c(C([H])(C(=O)N([H])C([H])([H])c2c([H])c([H])c(C(F)(F)F)c([H])c2C2([H])C([H])([H])C([H])([H])C([H])([H])C([H])([H])C2([H])[H])C([H])([H])[H])c([H])c(F)c1N([H])S(=O)(=O)C([H])([H])[H]


 36 38  0  0  0  0  0  0  0  0999 V2000
   27.5819    8.6054   54.6533 C   0  0  0  0  0  0  0  0  0  0  0  0
   28.6692    8.7230   54.6061 O   0  0  0  0  0  0  0  0  0  0  0  0
   26.3402    8.4038   54.0387 N   0  0  0  0  0  0  0  0  0  0  0  0
   26.9796    8.2533   52.7987 H   0  0  0  0  0  0  0  0  0  0  0  0
   25.7038    9.5524   55.6230 C   0  0  0  0  0  0  0  0  0  0  0  0
   26.8184    8.6096   56.1344 C   0  0  0  0  0  0  0  0  0  0  0  0
   27.6320    9.2875   57.0787 C   0  0  0  0  0  0  0  0  0  0  0  0
   27.9327   10.5878   57.0122 C   0  0  0  0  0  0  0  0  0  0  0  0
   28.5834   11.2628   57.9536 C   0  0  0  0  0  0  0  0  0  0  0  0
   29.0314   10.5394   59.1333 C   0  0  0  0  0  0  0  0  0  0  0  0
   28.7511    9.2629   59.1887 C   0  0  0  0  0  0  0  0  0  0  0  0
   29.2918    8.5479   60.2676 F   0  0  0  0  0  0  0  0  0  0  0  0
   28.0553    8.5380   58.2447 C   0  0  0  0  0  0  0  0  0  0  0  0
   29.4400   11.4710   60.1072 N   0  0  0  0  0  0  0  0  0  0  0  0
   30.5424   11.3023   60.3335 H   0  0  0  0  0  0  0  0  0  0  0  0
   28.7468   12.7556   60.8690 S   0  0  0  0  0  0  0  0  0  0  0  0
   29.9858   13.7499   61.7058 C   0  0  0  0  0  0  0  0  0  0  0  0
   27.5978   12.3527   61.7061 O   0  0  0  0  0  0  0  0  0  0  0  0
   28.2204   13.7051   59.7433 O   0  0  0  0  0  0  0  0  0  0  0  0
   25.2352    8.2237   53.4829 C   0  0  0  0  0  0  0  0  0  0  0  0
   24.0453    7.4245   53.8726 C   0  0  0  0  0  0  0  0  0  0  0  0
   23.9598    6.0759   54.1007 C   0  0  0  0  0  0  0  0  0  0  0  0
   22.7206    5.3706   53.9869 C   0  0  0  0  0  0  0  0  0  0  0  0
   21.6618    6.0813   53.6523 C   0  0  0  0  0  0  0  0  0  0  0  0
   21.7214    7.4461   53.4039 C   0  0  0  0  0  0  0  0  0  0  0  0
   22.8555    8.1075   53.5103 C   0  0  0  0  0  0  0  0  0  0  0  0
   23.0918    9.5884   53.5019 C   0  0  0  0  0  0  0  0  0  0  0  0
   23.1768   10.1030   54.9558 C   0  0  0  0  0  0  0  0  0  0  0  0
   21.9630   10.0132   55.7612 C   0  0  0  0  0  0  0  0  0  0  0  0
   20.7899   10.6748   55.0781 C   0  0  0  0  0  0  0  0  0  0  0  0
   21.1921   11.2590   53.7475 C   0  0  0  0  0  0  0  0  0  0  0  0
   21.9515   10.3424   52.8454 C   0  0  0  0  0  0  0  0  0  0  0  0
   20.3684    5.3742   53.1828 C   0  0  0  0  0  0  0  0  0  0  0  0
   20.3570    4.0879   53.2239 F   0  0  0  0  0  0  0  0  0  0  0  0
   20.0570    5.9182   51.9567 F   0  0  0  0  0  0  0  0  0  0  0  0
   19.3523    5.8912   54.0458 F   0  0  0  0  0  0  0  0  0  0  0  0
  5  6  1  0  0  0
  6  1  1  0  0  0
  1  2  2  0  0  0
  1  3  1  0  0  0
  3 20  1  0  0  0
 20 21  1  0  0  0
 21 22  2  0  0  0
 22 23  1  0  0  0
 23 24  2  0  0  0
 24 33  1  0  0  0
 33 34  1  0  0  0
 33 35  1  0  0  0
 33 36  1  0  0  0
 24 25  1  0  0  0
 25 26  2  0  0  0
 26 27  1  0  0  0
 27 28  1  0  0  0
 28 29  1  0  0  0
 29 30  1  0  0  0
 30 31  1  0  0  0
 31 32  1  0  0  0
  6  7  1  0  0  0
  7  8  2  0  0  0
  8  9  1  0  0  0
  9 10  2  0  0  0
 10 14  1  0  0  0
 14 16  1  0  0  0
 16 17  1  0  0  0
 16 18  2  0  0  0
 16 19  2  0  0  0
 10 11  1  0  0  0
 11 12  1  0  0  0
 11 13  2  0  0  0
 26 21  1  0  0  0
 32 27  1  0  0  0
 13  7  1  0  0  0
  3  4  1  0  0  0
 14 15  1  0  0  0
M  END
> <minimizedAffinity>
7.88548

> <CNNscore>
0.5425587296

> <CNNaffinity>
6.4019279480

> <CNN_VS>
3.4734218121

> <CNNaffinity_variance>
0.0784678534

$$$$
[H]c1c([H])c(C([H])(C(=O)N([H])C([H])([H])c2c([H])c([H])c(C(F)(F)F)c([H])c2C2([H])C([H])([H])C([H])([H])C([H])([H])C([H])([H])C2([H])[H])C([H])([H])[H])c([H])c(F)c1N([H])S(=O)(=O)C([H])([H])[H]


 36 38  0  0  0  0  0  0  0  0999 V2000
   28.3882    9.7722   55.3224 C   0  0  0  0  0  0  0  0  0  0  0  0
   28.4642   10.2698   54.3503 O   0  0  0  0  0  0  0  0  0  0  0  0
   28.5941    9.7430   56.7069 N   0  0  0  0  0  0  0  0  0  0  0  0
   29.0864   11.0562   56.6604 H   0  0  0  0  0  0  0  0  0  0  0  0
   28.6521    7.6508   54.4310 C   0  0  0  0  0  0  0  0  0  0  0  0
   27.6508    8.2816   55.4272 C   0  0  0  0  0  0  0  0  0  0  0  0
   26.3617    8.3545   54.8389 C   0  0  0  0  0  0  0  0  0  0  0  0
   26.0283    7.7619   53.6886 C   0  0  0  0  0  0  0  0  0  0  0  0
   24.7969    7.7131   53.1920 C   0  0  0  0  0  0  0  0  0  0  0  0
   23.7312    8.3736   53.9294 C   0  0  0  0  0  0  0  0  0  0  0  0
   24.0627    8.9680   55.0465 C   0  0  0  0  0  0  0  0  0  0  0  0
   23.0564    9.7057   55.6874 F   0  0  0  0  0  0  0  0  0  0  0  0
   25.3227    9.0146   55.6040 C   0  0  0  0  0  0  0  0  0  0  0  0
   22.4931    7.9731   53.3911 N   0  0  0  0  0  0  0  0  0  0  0  0
   22.4922    6.8404   53.2814 H   0  0  0  0  0  0  0  0  0  0  0  0
   21.0783    8.7248   53.0108 S   0  0  0  0  0  0  0  0  0  0  0  0
   20.4755    8.1839   51.4082 C   0  0  0  0  0  0  0  0  0  0  0  0
   21.1614   10.1895   53.1864 O   0  0  0  0  0  0  0  0  0  0  0  0
   20.0046    8.1747   54.0060 O   0  0  0  0  0  0  0  0  0  0  0  0
   28.7813    9.7240   57.9427 C   0  0  0  0  0  0  0  0  0  0  0  0
   28.6698   10.7802   58.9811 C   0  0  0  0  0  0  0  0  0  0  0  0
   27.7840   11.8239   59.0458 C   0  0  0  0  0  0  0  0  0  0  0  0
   28.0731   13.0113   59.7891 C   0  0  0  0  0  0  0  0  0  0  0  0
   29.2346   13.0538   60.4115 C   0  0  0  0  0  0  0  0  0  0  0  0
   30.1559   12.0165   60.3536 C   0  0  0  0  0  0  0  0  0  0  0  0
   29.8990   10.9163   59.6765 C   0  0  0  0  0  0  0  0  0  0  0  0
   30.6453    9.6155   59.6662 C   0  0  0  0  0  0  0  0  0  0  0  0
   29.6668    8.4647   59.3436 C   0  0  0  0  0  0  0  0  0  0  0  0
   28.6250    8.1871   60.3272 C   0  0  0  0  0  0  0  0  0  0  0  0
   29.2031    7.9633   61.7042 C   0  0  0  0  0  0  0  0  0  0  0  0
   30.7063    8.0791   61.6901 C   0  0  0  0  0  0  0  0  0  0  0  0
   31.2516    9.2971   61.0193 C   0  0  0  0  0  0  0  0  0  0  0  0
   29.7770   14.3976   60.9528 C   0  0  0  0  0  0  0  0  0  0  0  0
   30.8958   14.3636   61.5880 F   0  0  0  0  0  0  0  0  0  0  0  0
   28.7370   14.9821   61.6406 F   0  0  0  0  0  0  0  0  0  0  0  0
   29.9104   15.2172   59.7887 F   0  0  0  0  0  0  0  0  0  0  0  0
  5  6  1  0  0  0
  6  1  1  0  0  0
  1  2  2  0  0  0
  1  3  1  0  0  0
  3 20  1  0  0  0
 20 21  1  0  0  0
 21 22  2  0  0  0
 22 23  1  0  0  0
 23 24  2  0  0  0
 24 33  1  0  0  0
 33 34  1  0  0  0
 33 35  1  0  0  0
 33 36  1  0  0  0
 24 25  1  0  0  0
 25 26  2  0  0  0
 26 27  1  0  0  0
 27 28  1  0  0  0
 28 29  1  0  0  0
 29 30  1  0  0  0
 30 31  1  0  0  0
 31 32  1  0  0  0
  6  7  1  0  0  0
  7  8  2  0  0  0
  8  9  1  0  0  0
  9 10  2  0  0  0
 10 14  1  0  0  0
 14 16  1  0  0  0
 16 17  1  0  0  0
 16 18  2  0  0  0
 16 19  2  0  0  0
 10 11  1  0  0  0
 11 12  1  0  0  0
 11 13  2  0  0  0
 26 21  1  0  0  0
 32 27  1  0  0  0
 13  7  1  0  0  0
  3  4  1  0  0  0
 14 15  1  0  0  0
M  END
> <minimizedAffinity>
9.69796

> <CNNscore>
0.5417942405

> <CNNaffinity>
6.5437116623

> <CNN_VS>
3.5453453064

> <CNNaffinity_variance>
0.4044959545

$$$$
[H]OC(=O)C([H])([H])N(C([H])([H])c1c([H])c([H])c([H])c(OC([H])([H])C([H])([H])c2nc(-c3c([H])c([H])c([H])c([H])c3[H])oc2C([H])([H])[H])c1[H])C([H])([H])c1c([H])c([H])c2c([H])c([H])c([H])c([H])c2c1[H]


 39 43  0  0  0  0  0  0  0  0999 V2000
   25.9997    8.4664   54.5778 C   0  0  0  0  0  0  0  0  0  0  0  0
   27.1506    8.4242   53.8429 C   0  0  0  0  0  0  0  0  0  0  0  0
   28.3587    8.6638   54.4533 C   0  0  0  0  0  0  0  0  0  0  0  0
   28.4710    8.9493   55.7952 C   0  0  0  0  0  0  0  0  0  0  0  0
   27.3316    8.9992   56.5638 C   0  0  0  0  0  0  0  0  0  0  0  0
   26.1336    8.7591   55.9443 C   0  0  0  0  0  0  0  0  0  0  0  0
   24.7681    8.2451   54.0559 O   0  0  0  0  0  0  0  0  0  0  0  0
   24.1486    7.1628   53.5088 C   0  0  0  0  0  0  0  0  0  0  0  0
   22.7755    7.3406   52.9507 C   0  0  0  0  0  0  0  0  0  0  0  0
   21.6845    8.4016   55.6952 C   0  0  0  0  0  0  0  0  0  0  0  0
   21.7537    9.1903   54.4517 C   0  0  0  0  0  0  0  0  0  0  0  0
   21.3819   10.4391   54.2811 O   0  0  0  0  0  0  0  0  0  0  0  0
   21.5906   10.8084   53.0420 C   0  0  0  0  0  0  0  0  0  0  0  0
   22.1167    9.7456   52.4058 N   0  0  0  0  0  0  0  0  0  0  0  0
   22.2379    8.7127   53.2416 C   0  0  0  0  0  0  0  0  0  0  0  0
   21.3153   12.1094   52.4480 C   0  0  0  0  0  0  0  0  0  0  0  0
   20.5466   13.0404   53.1148 C   0  0  0  0  0  0  0  0  0  0  0  0
   20.2682   14.2900   52.5673 C   0  0  0  0  0  0  0  0  0  0  0  0
   20.7677   14.6169   51.3276 C   0  0  0  0  0  0  0  0  0  0  0  0
   21.5315   13.7122   50.6479 C   0  0  0  0  0  0  0  0  0  0  0  0
   21.8027   12.4615   51.2105 C   0  0  0  0  0  0  0  0  0  0  0  0
   27.4424    9.3079   57.9939 C   0  0  0  0  0  0  0  0  0  0  0  0
   28.5949   10.0423   58.3920 N   0  0  0  0  0  0  0  0  0  0  0  0
   28.8213   11.1949   57.5955 C   0  0  0  0  0  0  0  0  0  0  0  0
   27.6711   12.0936   57.4313 C   0  0  0  0  0  0  0  0  0  0  0  0
   26.4967   11.7604   57.1997 O   0  0  0  0  0  0  0  0  0  0  0  0
   27.9060   13.4780   57.5445 O   0  0  0  0  0  0  0  0  0  0  0  0
   27.8602   14.0574   56.7183 H   0  0  0  0  0  0  0  0  0  0  0  0
   28.7032   10.2228   59.8090 C   0  0  0  0  0  0  0  0  0  0  0  0
   28.8676   11.5988   60.2679 C   0  0  0  0  0  0  0  0  0  0  0  0
   27.8531   12.4537   60.6320 C   0  0  0  0  0  0  0  0  0  0  0  0
   28.1142   13.7496   61.0499 C   0  0  0  0  0  0  0  0  0  0  0  0
   29.3969   14.2462   61.1223 C   0  0  0  0  0  0  0  0  0  0  0  0
   29.6182   15.5408   61.5421 C   0  0  0  0  0  0  0  0  0  0  0  0
   30.9002   16.0475   61.6166 C   0  0  0  0  0  0  0  0  0  0  0  0
   31.9389   15.2162   61.2583 C   0  0  0  0  0  0  0  0  0  0  0  0
   31.7123   13.9058   60.8338 C   0  0  0  0  0  0  0  0  0  0  0  0
   30.4268   13.4016   60.7606 C   0  0  0  0  0  0  0  0  0  0  0  0
   30.1618   12.1127   60.3453 C   0  0  0  0  0  0  0  0  0  0  0  0
 10 11  1  0  0  0
 11 12  1  0  0  0
 12 13  1  0  0  0
 13 16  1  0  0  0
 16 17  2  0  0  0
 17 18  1  0  0  0
 18 19  2  0  0  0
 19 20  1  0  0  0
 20 21  2  0  0  0
 13 14  2  0  0  0
 14 15  1  0  0  0
 15  9  1  0  0  0
  9  8  1  0  0  0
  8  7  1  0  0  0
  7  1  1  0  0  0
  1  2  2  0  0  0
  2  3  1  0  0  0
  3  4  2  0  0  0
  4  5  1  0  0  0
  5 22  1  0  0  0
 22 23  1  0  0  0
 23 24  1  0  0  0
 24 25  1  0  0  0
 25 26  2  0  0  0
 25 27  1  0  0  0
 23 29  1  0  0  0
 29 30  1  0  0  0
 30 31  2  0  0  0
 31 32  1  0  0  0
 32 33  2  0  0  0
 33 34  1  0  0  0
 34 35  2  0  0  0
 35 36  1  0  0  0
 36 37  2  0  0  0
 37 38  1  0  0  0
 38 39  2  0  0  0
  5  6  2  0  0  0
 15 11  2  0  0  0
  6  1  1  0  0  0
 21 16  1  0  0  0
 39 30  1  0  0  0
 38 33  1  0  0  0
 27 28  1  0  0  0
M  END
> <minimizedAffinity>
13.22093

> <CNNscore>
0.7137057781

> <CNNaffinity>
6.3121199608

> <CNN_VS>
4.5049962997

> <CNNaffinity_variance>
0.1332902908

$$$$
[H]OC(=O)C([H])([H])N(C([H])([H])c1c([H])c([H])c([H])c(OC([H])([H])C([H])([H])c2nc(-c3c([H])c([H])c([H])c([H])c3[H])oc2C([H])([H])[H])c1[H])C([H])([H])c1c([H])c([H])c2c([H])c([H])c([H])c([H])c2c1[H]


 39 43  0  0  0  0  0  0  0  0999 V2000
   28.3658    9.6021   56.6394 C   0  0  0  0  0  0  0  0  0  0  0  0
   27.5625    8.7126   57.2952 C   0  0  0  0  0  0  0  0  0  0  0  0
   27.4691    8.7599   58.6658 C   0  0  0  0  0  0  0  0  0  0  0  0
   28.1571    9.6771   59.4275 C   0  0  0  0  0  0  0  0  0  0  0  0
   28.9743   10.5871   58.7985 C   0  0  0  0  0  0  0  0  0  0  0  0
   29.0596   10.5299   57.4325 C   0  0  0  0  0  0  0  0  0  0  0  0
   28.5174    9.6239   55.2923 O   0  0  0  0  0  0  0  0  0  0  0  0
   27.7748    9.1693   54.2452 C   0  0  0  0  0  0  0  0  0  0  0  0
   27.2393    7.7774   54.3091 C   0  0  0  0  0  0  0  0  0  0  0  0
   25.4619    5.5911   52.9272 C   0  0  0  0  0  0  0  0  0  0  0  0
   24.9469    6.7979   53.5990 C   0  0  0  0  0  0  0  0  0  0  0  0
   23.6901    7.1577   53.7328 O   0  0  0  0  0  0  0  0  0  0  0  0
   23.6103    8.2892   54.3874 C   0  0  0  0  0  0  0  0  0  0  0  0
   24.8717    8.6569   54.6781 N   0  0  0  0  0  0  0  0  0  0  0  0
   25.7407    7.7603   54.2079 C   0  0  0  0  0  0  0  0  0  0  0  0
   22.4032    9.0228   54.7427 C   0  0  0  0  0  0  0  0  0  0  0  0
   21.2661    8.3555   55.1477 C   0  0  0  0  0  0  0  0  0  0  0  0
   20.0998    9.0341   55.4908 C   0  0  0  0  0  0  0  0  0  0  0  0
   20.0679   10.4083   55.4280 C   0  0  0  0  0  0  0  0  0  0  0  0
   21.1809   11.0915   55.0301 C   0  0  0  0  0  0  0  0  0  0  0  0
   22.3448   10.3963   54.6888 C   0  0  0  0  0  0  0  0  0  0  0  0
   29.7150   11.5647   59.6038 C   0  0  0  0  0  0  0  0  0  0  0  0
   30.1697   11.1170   60.8761 N   0  0  0  0  0  0  0  0  0  0  0  0
   31.3993   10.4115   60.8096 C   0  0  0  0  0  0  0  0  0  0  0  0
   32.6079   11.2107   61.0507 C   0  0  0  0  0  0  0  0  0  0  0  0
   33.2329   11.3060   62.1204 O   0  0  0  0  0  0  0  0  0  0  0  0
   33.1243   11.9514   59.9695 O   0  0  0  0  0  0  0  0  0  0  0  0
   33.0438   12.9584   59.9754 H   0  0  0  0  0  0  0  0  0  0  0  0
   30.0640   12.1057   61.9074 C   0  0  0  0  0  0  0  0  0  0  0  0
   29.8979   13.4843   61.4571 C   0  0  0  0  0  0  0  0  0  0  0  0
   28.6984   14.1233   61.2429 C   0  0  0  0  0  0  0  0  0  0  0  0
   28.6471   15.4385   60.8072 C   0  0  0  0  0  0  0  0  0  0  0  0
   29.7889   16.1706   60.5675 C   0  0  0  0  0  0  0  0  0  0  0  0
   29.6990   17.4764   60.1341 C   0  0  0  0  0  0  0  0  0  0  0  0
   30.8379   18.2175   59.8901 C   0  0  0  0  0  0  0  0  0  0  0  0
   32.0555   17.6060   60.0947 C   0  0  0  0  0  0  0  0  0  0  0  0
   32.1440   16.2838   60.5338 C   0  0  0  0  0  0  0  0  0  0  0  0
   31.0010   15.5447   60.7774 C   0  0  0  0  0  0  0  0  0  0  0  0
   31.0468   14.2356   61.2111 C   0  0  0  0  0  0  0  0  0  0  0  0
 10 11  1  0  0  0
 11 12  1  0  0  0
 12 13  1  0  0  0
 13 16  1  0  0  0
 16 17  2  0  0  0
 17 18  1  0  0  0
 18 19  2  0  0  0
 19 20  1  0  0  0
 20 21  2  0  0  0
 13 14  2  0  0  0
 14 15  1  0  0  0
 15  9  1  0  0  0
  9  8  1  0  0  0
  8  7  1  0  0  0
  7  1  1  0  0  0
  1  2  2  0  0  0
  2  3  1  0  0  0
  3  4  2  0  0  0
  4  5  1  0  0  0
  5 22  1  0  0  0
 22 23  1  0  0  0
 23 24  1  0  0  0
 24 25  1  0  0  0
 25 26  2  0  0  0
 25 27  1  0  0  0
 23 29  1  0  0  0
 29 30  1  0  0  0
 30 31  2  0  0  0
 31 32  1  0  0  0
 32 33  2  0  0  0
 33 34  1  0  0  0
 34 35  2  0  0  0
 35 36  1  0  0  0
 36 37  2  0  0  0
 37 38  1  0  0  0
 38 39  2  0  0  0
  5  6  2  0  0  0
 15 11  2  0  0  0
  6  1  1  0  0  0
 21 16  1  0  0  0
 39 30  1  0  0  0
 38 33  1  0  0  0
 27 28  1  0  0  0
M  END
> <minimizedAffinity>
9.00714

> <CNNscore>
0.6656741500

> <CNNaffinity>
6.0422611237

> <CNN_VS>
4.0221772194

> <CNNaffinity_variance>
0.1359832436

$$$$
[H]OC(=O)C([H])([H])N(C([H])([H])c1c([H])c([H])c([H])c(OC([H])([H])C([H])([H])c2nc(-c3c([H])c([H])c([H])c([H])c3[H])oc2C([H])([H])[H])c1[H])C([H])([H])c1c([H])c([H])c2c([H])c([H])c([H])c([H])c2c1[H]


 39 43  0  0  0  0  0  0  0  0999 V2000
   27.7532    9.3117   56.6850 C   0  0  0  0  0  0  0  0  0  0  0  0
   28.3640    8.9791   55.5091 C   0  0  0  0  0  0  0  0  0  0  0  0
   27.6036    8.5947   54.4304 C   0  0  0  0  0  0  0  0  0  0  0  0
   26.2294    8.5270   54.4747 C   0  0  0  0  0  0  0  0  0  0  0  0
   25.5831    8.8555   55.6434 C   0  0  0  0  0  0  0  0  0  0  0  0
   26.3514    9.2367   56.7116 C   0  0  0  0  0  0  0  0  0  0  0  0
   28.4262    9.6987   57.7965 O   0  0  0  0  0  0  0  0  0  0  0  0
   28.6597   10.8989   58.3960 C   0  0  0  0  0  0  0  0  0  0  0  0
   29.1640   10.9019   59.8010 C   0  0  0  0  0  0  0  0  0  0  0  0
   27.4506   11.4787   62.3661 C   0  0  0  0  0  0  0  0  0  0  0  0
   28.1869   12.4970   61.5953 C   0  0  0  0  0  0  0  0  0  0  0  0
   28.2525   13.7862   61.8413 O   0  0  0  0  0  0  0  0  0  0  0  0
   28.9995   14.3807   60.9448 C   0  0  0  0  0  0  0  0  0  0  0  0
   29.4221   13.4238   60.0983 N   0  0  0  0  0  0  0  0  0  0  0  0
   28.9426   12.2328   60.4611 C   0  0  0  0  0  0  0  0  0  0  0  0
   29.3231   15.7984   60.8618 C   0  0  0  0  0  0  0  0  0  0  0  0
   30.5901   16.2128   60.5080 C   0  0  0  0  0  0  0  0  0  0  0  0
   30.9242   17.5618   60.4234 C   0  0  0  0  0  0  0  0  0  0  0  0
   29.9731   18.5175   60.6982 C   0  0  0  0  0  0  0  0  0  0  0  0
   28.7117   18.1323   61.0505 C   0  0  0  0  0  0  0  0  0  0  0  0
   28.3910   16.7739   61.1311 C   0  0  0  0  0  0  0  0  0  0  0  0
   24.1189    8.7809   55.7003 C   0  0  0  0  0  0  0  0  0  0  0  0
   23.4931    7.9437   54.7341 N   0  0  0  0  0  0  0  0  0  0  0  0
   23.8635    6.5793   54.8585 C   0  0  0  0  0  0  0  0  0  0  0  0
   23.4951    5.7123   53.7315 C   0  0  0  0  0  0  0  0  0  0  0  0
   22.4402    5.0679   53.6055 O   0  0  0  0  0  0  0  0  0  0  0  0
   24.4211    5.5871   52.6774 O   0  0  0  0  0  0  0  0  0  0  0  0
   24.9184    4.7162   52.5557 H   0  0  0  0  0  0  0  0  0  0  0  0
   22.0951    8.2053   54.5626 C   0  0  0  0  0  0  0  0  0  0  0  0
   21.7366    9.0451   53.4237 C   0  0  0  0  0  0  0  0  0  0  0  0
   21.2234    8.6030   52.2262 C   0  0  0  0  0  0  0  0  0  0  0  0
   20.9200    9.4843   51.1998 C   0  0  0  0  0  0  0  0  0  0  0  0
   21.1151   10.8420   51.3251 C   0  0  0  0  0  0  0  0  0  0  0  0
   20.8022   11.6882   50.2824 C   0  0  0  0  0  0  0  0  0  0  0  0
   20.9956   13.0502   50.3984 C   0  0  0  0  0  0  0  0  0  0  0  0
   21.5087   13.5249   51.5857 C   0  0  0  0  0  0  0  0  0  0  0  0
   21.8246   12.6663   52.6400 C   0  0  0  0  0  0  0  0  0  0  0  0
   21.6293   11.3026   52.5202 C   0  0  0  0  0  0  0  0  0  0  0  0
   21.9298   10.4215   53.5387 C   0  0  0  0  0  0  0  0  0  0  0  0
 10 11  1  0  0  0
 11 12  1  0  0  0
 12 13  1  0  0  0
 13 16  1  0  0  0
 16 17  2  0  0  0
 17 18  1  0  0  0
 18 19  2  0  0  0
 19 20  1  0  0  0
 20 21  2  0  0  0
 13 14  2  0  0  0
 14 15  1  0  0  0
 15  9  1  0  0  0
  9  8  1  0  0  0
  8  7  1  0  0  0
  7  1  1  0  0  0
  1  2  2  0  0  0
  2  3  1  0  0  0
  3  4  2  0  0  0
  4  5  1  0  0  0
  5 22  1  0  0  0
 22 23  1  0  0  0
 23 24  1  0  0  0
 24 25  1  0  0  0
 25 26  2  0  0  0
 25 27  1  0  0  0
 23 29  1  0  0  0
 29 30  1  0  0  0
 30 31  2  0  0  0
 31 32  1  0  0  0
 32 33  2  0  0  0
 33 34  1  0  0  0
 34 35  2  0  0  0
 35 36  1  0  0  0
 36 37  2  0  0  0
 37 38  1  0  0  0
 38 39  2  0  0  0
  5  6  2  0  0  0
 15 11  2  0  0  0
  6  1  1  0  0  0
 21 16  1  0  0  0
 39 30  1  0  0  0
 38 33  1  0  0  0
 27 28  1  0  0  0
M  END
> <minimizedAffinity>
6.49383

> <CNNscore>
0.5976890326

> <CNNaffinity>
6.3731627464

> <CNN_VS>
3.8091695309

> <CNNaffinity_variance>
0.0676705167

$$$$
[H]OC(=O)C([H])([H])N(C([H])([H])c1c([H])c([H])c([H])c(OC([H])([H])C([H])([H])c2nc(-c3c([H])c([H])c([H])c([H])c3[H])oc2C([H])([H])[H])c1[H])C([H])([H])c1c([H])c([H])c2c([H])c([H])c([H])c([H])c2c1[H]


 39 43  0  0  0  0  0  0  0  0999 V2000
   27.7535    9.5878   56.3443 C   0  0  0  0  0  0  0  0  0  0  0  0
   28.6869    9.3877   55.3670 C   0  0  0  0  0  0  0  0  0  0  0  0
   28.3834    8.5947   54.2860 C   0  0  0  0  0  0  0  0  0  0  0  0
   27.1613    7.9795   54.1340 C   0  0  0  0  0  0  0  0  0  0  0  0
   26.1990    8.1606   55.0997 C   0  0  0  0  0  0  0  0  0  0  0  0
   26.5133    8.9526   56.1724 C   0  0  0  0  0  0  0  0  0  0  0  0
   27.9701   10.3518   57.4432 O   0  0  0  0  0  0  0  0  0  0  0  0
   28.9779   10.4408   58.3548 C   0  0  0  0  0  0  0  0  0  0  0  0
   28.6175   10.5946   59.7952 C   0  0  0  0  0  0  0  0  0  0  0  0
   30.9912   10.7406   61.8427 C   0  0  0  0  0  0  0  0  0  0  0  0
   30.2788   11.9071   61.2907 C   0  0  0  0  0  0  0  0  0  0  0  0
   30.5074   13.1745   61.5518 O   0  0  0  0  0  0  0  0  0  0  0  0
   29.6783   13.9323   60.8782 C   0  0  0  0  0  0  0  0  0  0  0  0
   28.8944   13.1054   60.1622 N   0  0  0  0  0  0  0  0  0  0  0  0
   29.2292   11.8333   60.3851 C   0  0  0  0  0  0  0  0  0  0  0  0
   29.6027   15.3868   60.8869 C   0  0  0  0  0  0  0  0  0  0  0  0
   28.4232   16.0295   61.1998 C   0  0  0  0  0  0  0  0  0  0  0  0
   28.3254   17.4184   61.2133 C   0  0  0  0  0  0  0  0  0  0  0  0
   29.4287   18.1818   60.9076 C   0  0  0  0  0  0  0  0  0  0  0  0
   30.6077   17.5687   60.5947 C   0  0  0  0  0  0  0  0  0  0  0  0
   30.6906   16.1732   60.5854 C   0  0  0  0  0  0  0  0  0  0  0  0
   24.8957    7.5041   54.9475 C   0  0  0  0  0  0  0  0  0  0  0  0
   24.7378    6.6766   53.8002 N   0  0  0  0  0  0  0  0  0  0  0  0
   24.1256    5.4305   54.0943 C   0  0  0  0  0  0  0  0  0  0  0  0
   22.7987    5.5029   54.7202 C   0  0  0  0  0  0  0  0  0  0  0  0
   22.5562    5.6323   55.9320 O   0  0  0  0  0  0  0  0  0  0  0  0
   21.6752    5.4183   53.8745 O   0  0  0  0  0  0  0  0  0  0  0  0
   21.1037    4.5855   53.8920 H   0  0  0  0  0  0  0  0  0  0  0  0
   24.2359    7.3713   52.6523 C   0  0  0  0  0  0  0  0  0  0  0  0
   23.2650    8.4285   52.9184 C   0  0  0  0  0  0  0  0  0  0  0  0
   22.6512    9.2159   51.9719 C   0  0  0  0  0  0  0  0  0  0  0  0
   21.7439   10.2017   52.3289 C   0  0  0  0  0  0  0  0  0  0  0  0
   21.4113   10.4426   53.6436 C   0  0  0  0  0  0  0  0  0  0  0  0
   20.5051   11.4322   53.9611 C   0  0  0  0  0  0  0  0  0  0  0  0
   20.1665   11.6816   55.2760 C   0  0  0  0  0  0  0  0  0  0  0  0
   20.7645   10.9100   56.2483 C   0  0  0  0  0  0  0  0  0  0  0  0
   21.6815    9.9085   55.9245 C   0  0  0  0  0  0  0  0  0  0  0  0
   22.0180    9.6614   54.6062 C   0  0  0  0  0  0  0  0  0  0  0  0
   22.9203    8.6816   54.2458 C   0  0  0  0  0  0  0  0  0  0  0  0
 10 11  1  0  0  0
 11 12  1  0  0  0
 12 13  1  0  0  0
 13 16  1  0  0  0
 16 17  2  0  0  0
 17 18  1  0  0  0
 18 19  2  0  0  0
 19 20  1  0  0  0
 20 21  2  0  0  0
 13 14  2  0  0  0
 14 15  1  0  0  0
 15  9  1  0  0  0
  9  8  1  0  0  0
  8  7  1  0  0  0
  7  1  1  0  0  0
  1  2  2  0  0  0
  2  3  1  0  0  0
  3  4  2  0  0  0
  4  5  1  0  0  0
  5 22  1  0  0  0
 22 23  1  0  0  0
 23 24  1  0  0  0
 24 25  1  0  0  0
 25 26  2  0  0  0
 25 27  1  0  0  0
 23 29  1  0  0  0
 29 30  1  0  0  0
 30 31  2  0  0  0
 31 32  1  0  0  0
 32 33  2  0  0  0
 33 34  1  0  0  0
 34 35  2  0  0  0
 35 36  1  0  0  0
 36 37  2  0  0  0
 37 38  1  0  0  0
 38 39  2  0  0  0
  5  6  2  0  0  0
 15 11  2  0  0  0
  6  1  1  0  0  0
 21 16  1  0  0  0
 39 30  1  0  0  0
 38 33  1  0  0  0
 27 28  1  0  0  0
M  END
> <minimizedAffinity>
8.11304

> <CNNscore>
0.5719048381

> <CNNaffinity>
6.4728937149

> <CNN_VS>
3.7018792629

> <CNNaffinity_variance>
0.2224601954

$$$$
[H]OC(=O)C([H])([H])N(C([H])([H])c1c([H])c([H])c([H])c(OC([H])([H])C([H])([H])c2nc(-c3c([H])c([H])c([H])c([H])c3[H])oc2C([H])([H])[H])c1[H])C([H])([H])c1c([H])c([H])c2c([H])c([H])c([H])c([H])c2c1[H]


 39 43  0  0  0  0  0  0  0  0999 V2000
   28.0867    9.4652   56.9808 C   0  0  0  0  0  0  0  0  0  0  0  0
   29.0302    9.4226   55.9937 C   0  0  0  0  0  0  0  0  0  0  0  0
   28.6953    8.9413   54.7504 C   0  0  0  0  0  0  0  0  0  0  0  0
   27.4314    8.4914   54.4421 C   0  0  0  0  0  0  0  0  0  0  0  0
   26.4579    8.5209   55.4131 C   0  0  0  0  0  0  0  0  0  0  0  0
   26.8037    9.0022   56.6482 C   0  0  0  0  0  0  0  0  0  0  0  0
   28.3321    9.9218   58.2336 O   0  0  0  0  0  0  0  0  0  0  0  0
   28.7965   11.0964   58.7427 C   0  0  0  0  0  0  0  0  0  0  0  0
   29.2178   11.1296   60.1743 C   0  0  0  0  0  0  0  0  0  0  0  0
   27.6207   12.1364   62.6811 C   0  0  0  0  0  0  0  0  0  0  0  0
   28.4805   12.9808   61.8321 C   0  0  0  0  0  0  0  0  0  0  0  0
   28.7214   14.2649   61.9734 O   0  0  0  0  0  0  0  0  0  0  0  0
   29.5336   14.6793   61.0334 C   0  0  0  0  0  0  0  0  0  0  0  0
   29.8160   13.6093   60.2677 N   0  0  0  0  0  0  0  0  0  0  0  0
   29.1836   12.5269   60.7245 C   0  0  0  0  0  0  0  0  0  0  0  0
   30.0445   16.0291   60.8370 C   0  0  0  0  0  0  0  0  0  0  0  0
   29.2656   16.9976   60.2390 C   0  0  0  0  0  0  0  0  0  0  0  0
   29.7320   18.2942   60.0388 C   0  0  0  0  0  0  0  0  0  0  0  0
   31.0031   18.6309   60.4440 C   0  0  0  0  0  0  0  0  0  0  0  0
   31.7933   17.6896   61.0384 C   0  0  0  0  0  0  0  0  0  0  0  0
   31.3112   16.3918   61.2329 C   0  0  0  0  0  0  0  0  0  0  0  0
   25.1096    8.0383   55.0939 C   0  0  0  0  0  0  0  0  0  0  0  0
   24.3592    8.8273   54.1771 N   0  0  0  0  0  0  0  0  0  0  0  0
   24.4048    8.3292   52.8490 C   0  0  0  0  0  0  0  0  0  0  0  0
   24.1173    6.8972   52.6939 C   0  0  0  0  0  0  0  0  0  0  0  0
   24.7777    5.9533   53.1597 O   0  0  0  0  0  0  0  0  0  0  0  0
   22.9805    6.5396   51.9427 O   0  0  0  0  0  0  0  0  0  0  0  0
   23.1005    6.1191   51.0321 H   0  0  0  0  0  0  0  0  0  0  0  0
   23.0668    9.2063   54.6654 C   0  0  0  0  0  0  0  0  0  0  0  0
   21.9453    8.3937   54.2041 C   0  0  0  0  0  0  0  0  0  0  0  0
   20.8566    8.8495   53.4971 C   0  0  0  0  0  0  0  0  0  0  0  0
   19.8364    7.9946   53.1091 C   0  0  0  0  0  0  0  0  0  0  0  0
   19.8598    6.6506   53.4095 C   0  0  0  0  0  0  0  0  0  0  0  0
   18.8267    5.8306   53.0075 C   0  0  0  0  0  0  0  0  0  0  0  0
   18.8408    4.4827   53.3050 C   0  0  0  0  0  0  0  0  0  0  0  0
   19.9176    3.9947   54.0128 C   0  0  0  0  0  0  0  0  0  0  0  0
   20.9625    4.8268   54.4185 C   0  0  0  0  0  0  0  0  0  0  0  0
   20.9449    6.1765   54.1184 C   0  0  0  0  0  0  0  0  0  0  0  0
   21.9577    7.0314   54.5023 C   0  0  0  0  0  0  0  0  0  0  0  0
 10 11  1  0  0  0
 11 12  1  0  0  0
 12 13  1  0  0  0
 13 16  1  0  0  0
 16 17  2  0  0  0
 17 18  1  0  0  0
 18 19  2  0  0  0
 19 20  1  0  0  0
 20 21  2  0  0  0
 13 14  2  0  0  0
 14 15  1  0  0  0
 15  9  1  0  0  0
  9  8  1  0  0  0
  8  7  1  0  0  0
  7  1  1  0  0  0
  1  2  2  0  0  0
  2  3  1  0  0  0
  3  4  2  0  0  0
  4  5  1  0  0  0
  5 22  1  0  0  0
 22 23  1  0  0  0
 23 24  1  0  0  0
 24 25  1  0  0  0
 25 26  2  0  0  0
 25 27  1  0  0  0
 23 29  1  0  0  0
 29 30  1  0  0  0
 30 31  2  0  0  0
 31 32  1  0  0  0
 32 33  2  0  0  0
 33 34  1  0  0  0
 34 35  2  0  0  0
 35 36  1  0  0  0
 36 37  2  0  0  0
 37 38  1  0  0  0
 38 39  2  0  0  0
  5  6  2  0  0  0
 15 11  2  0  0  0
  6  1  1  0  0  0
 21 16  1  0  0  0
 39 30  1  0  0  0
 38 33  1  0  0  0
 27 28  1  0  0  0
M  END
> <minimizedAffinity>
11.75569

> <CNNscore>
0.5699334145

> <CNNaffinity>
6.1894159317

> <CNN_VS>
3.5275549889

> <CNNaffinity_variance>
0.1408482939

$$$$
[H]OC(=O)C([H])([H])N(C([H])([H])c1c([H])c([H])c([H])c(OC([H])([H])C([H])([H])c2nc(-c3c([H])c([H])c([H])c([H])c3[H])oc2C([H])([H])[H])c1[H])C([H])([H])c1c([H])c([H])c2c([H])c([H])c([H])c([H])c2c1[H]


 39 43  0  0  0  0  0  0  0  0999 V2000
   26.3536    8.2391   54.9731 C   0  0  0  0  0  0  0  0  0  0  0  0
   27.4212    8.5162   54.1669 C   0  0  0  0  0  0  0  0  0  0  0  0
   28.5661    9.0486   54.7102 C   0  0  0  0  0  0  0  0  0  0  0  0
   28.6954    9.3219   56.0532 C   0  0  0  0  0  0  0  0  0  0  0  0
   27.6393    9.0545   56.8926 C   0  0  0  0  0  0  0  0  0  0  0  0
   26.5036    8.5245   56.3396 C   0  0  0  0  0  0  0  0  0  0  0  0
   25.1876    7.7162   54.5202 O   0  0  0  0  0  0  0  0  0  0  0  0
   24.7468    6.4522   54.2705 C   0  0  0  0  0  0  0  0  0  0  0  0
   23.3057    6.1451   54.5099 C   0  0  0  0  0  0  0  0  0  0  0  0
   20.3984    5.6340   53.4447 C   0  0  0  0  0  0  0  0  0  0  0  0
   21.1247    6.9123   53.3381 C   0  0  0  0  0  0  0  0  0  0  0  0
   20.6934    8.0284   52.7947 O   0  0  0  0  0  0  0  0  0  0  0  0
   21.6110    8.9587   52.8820 C   0  0  0  0  0  0  0  0  0  0  0  0
   22.6652    8.4036   53.5078 N   0  0  0  0  0  0  0  0  0  0  0  0
   22.4112    7.1296   53.8122 C   0  0  0  0  0  0  0  0  0  0  0  0
   21.5277   10.3317   52.4032 C   0  0  0  0  0  0  0  0  0  0  0  0
   21.6936   11.3918   53.2698 C   0  0  0  0  0  0  0  0  0  0  0  0
   21.6168   12.7128   52.8366 C   0  0  0  0  0  0  0  0  0  0  0  0
   21.3689   12.9811   51.5100 C   0  0  0  0  0  0  0  0  0  0  0  0
   21.2011   11.9487   50.6327 C   0  0  0  0  0  0  0  0  0  0  0  0
   21.2811   10.6274   51.0824 C   0  0  0  0  0  0  0  0  0  0  0  0
   27.7674    9.3477   58.3245 C   0  0  0  0  0  0  0  0  0  0  0  0
   28.6022   10.4478   58.6696 N   0  0  0  0  0  0  0  0  0  0  0  0
   27.9307   11.6963   58.6042 C   0  0  0  0  0  0  0  0  0  0  0  0
   27.7604   12.2601   57.2586 C   0  0  0  0  0  0  0  0  0  0  0  0
   26.7406   12.8085   56.8077 O   0  0  0  0  0  0  0  0  0  0  0  0
   28.8554   12.1787   56.3760 O   0  0  0  0  0  0  0  0  0  0  0  0
   28.8118   11.5462   55.5896 H   0  0  0  0  0  0  0  0  0  0  0  0
   29.4021   10.2214   59.8363 C   0  0  0  0  0  0  0  0  0  0  0  0
   30.1894   11.3588   60.3026 C   0  0  0  0  0  0  0  0  0  0  0  0
   31.5035   11.3175   60.7077 C   0  0  0  0  0  0  0  0  0  0  0  0
   32.1631   12.4574   61.1411 C   0  0  0  0  0  0  0  0  0  0  0  0
   31.5401   13.6849   61.1879 C   0  0  0  0  0  0  0  0  0  0  0  0
   32.2279   14.7971   61.6253 C   0  0  0  0  0  0  0  0  0  0  0  0
   31.6114   16.0312   61.6769 C   0  0  0  0  0  0  0  0  0  0  0  0
   30.2947   16.1060   61.2780 C   0  0  0  0  0  0  0  0  0  0  0  0
   29.6005   14.9787   60.8354 C   0  0  0  0  0  0  0  0  0  0  0  0
   30.2214   13.7442   60.7849 C   0  0  0  0  0  0  0  0  0  0  0  0
   29.5694   12.6069   60.3544 C   0  0  0  0  0  0  0  0  0  0  0  0
 10 11  1  0  0  0
 11 12  1  0  0  0
 12 13  1  0  0  0
 13 16  1  0  0  0
 16 17  2  0  0  0
 17 18  1  0  0  0
 18 19  2  0  0  0
 19 20  1  0  0  0
 20 21  2  0  0  0
 13 14  2  0  0  0
 14 15  1  0  0  0
 15  9  1  0  0  0
  9  8  1  0  0  0
  8  7  1  0  0  0
  7  1  1  0  0  0
  1  2  2  0  0  0
  2  3  1  0  0  0
  3  4  2  0  0  0
  4  5  1  0  0  0
  5 22  1  0  0  0
 22 23  1  0  0  0
 23 24  1  0  0  0
 24 25  1  0  0  0
 25 26  2  0  0  0
 25 27  1  0  0  0
 23 29  1  0  0  0
 29 30  1  0  0  0
 30 31  2  0  0  0
 31 32  1  0  0  0
 32 33  2  0  0  0
 33 34  1  0  0  0
 34 35  2  0  0  0
 35 36  1  0  0  0
 36 37  2  0  0  0
 37 38  1  0  0  0
 38 39  2  0  0  0
  5  6  2  0  0  0
 15 11  2  0  0  0
  6  1  1  0  0  0
 21 16  1  0  0  0
 39 30  1  0  0  0
 38 33  1  0  0  0
 27 28  1  0  0  0
M  END
> <minimizedAffinity>
10.33911

> <CNNscore>
0.5655609965

> <CNNaffinity>
6.0038766861

> <CNN_VS>
3.3955585957

> <CNNaffinity_variance>
0.1429363936

$$$$
[H]OC(=O)C([H])([H])N(C([H])([H])c1c([H])c([H])c([H])c(OC([H])([H])C([H])([H])c2nc(-c3c([H])c([H])c([H])c([H])c3[H])oc2C([H])([H])[H])c1[H])C([H])([H])c1c([H])c([H])c2c([H])c([H])c([H])c([H])c2c1[H]


 39 43  0  0  0  0  0  0  0  0999 V2000
   27.7787    9.2301   56.4956 C   0  0  0  0  0  0  0  0  0  0  0  0
   28.6143    9.1405   55.4184 C   0  0  0  0  0  0  0  0  0  0  0  0
   28.1316    8.6776   54.2175 C   0  0  0  0  0  0  0  0  0  0  0  0
   26.8219    8.2925   54.0403 C   0  0  0  0  0  0  0  0  0  0  0  0
   25.9543    8.3706   55.1046 C   0  0  0  0  0  0  0  0  0  0  0  0
   26.4469    8.8330   56.2963 C   0  0  0  0  0  0  0  0  0  0  0  0
   28.1722    9.6729   57.7152 O   0  0  0  0  0  0  0  0  0  0  0  0
   28.4627   10.8985   58.2326 C   0  0  0  0  0  0  0  0  0  0  0  0
   29.1458   10.9631   59.5584 C   0  0  0  0  0  0  0  0  0  0  0  0
   27.4776   11.4440   62.1727 C   0  0  0  0  0  0  0  0  0  0  0  0
   28.1578   12.4982   61.3986 C   0  0  0  0  0  0  0  0  0  0  0  0
   28.1838   13.7855   61.6611 O   0  0  0  0  0  0  0  0  0  0  0  0
   28.8865   14.4183   60.7551 C   0  0  0  0  0  0  0  0  0  0  0  0
   29.3216   13.4884   59.8850 N   0  0  0  0  0  0  0  0  0  0  0  0
   28.8938   12.2763   60.2426 C   0  0  0  0  0  0  0  0  0  0  0  0
   29.1575   15.8476   60.6844 C   0  0  0  0  0  0  0  0  0  0  0  0
   29.0308   16.6454   61.8023 C   0  0  0  0  0  0  0  0  0  0  0  0
   29.2826   18.0141   61.7596 C   0  0  0  0  0  0  0  0  0  0  0  0
   29.6687   18.5989   60.5755 C   0  0  0  0  0  0  0  0  0  0  0  0
   29.8012   17.8302   59.4551 C   0  0  0  0  0  0  0  0  0  0  0  0
   29.5451   16.4571   59.5134 C   0  0  0  0  0  0  0  0  0  0  0  0
   24.5580    7.9571   54.9252 C   0  0  0  0  0  0  0  0  0  0  0  0
   24.3435    6.5874   54.6030 N   0  0  0  0  0  0  0  0  0  0  0  0
   23.6264    5.8864   55.6073 C   0  0  0  0  0  0  0  0  0  0  0  0
   22.1760    6.1165   55.6346 C   0  0  0  0  0  0  0  0  0  0  0  0
   21.3591    5.8067   54.7509 O   0  0  0  0  0  0  0  0  0  0  0  0
   21.6396    6.7527   56.7712 O   0  0  0  0  0  0  0  0  0  0  0  0
   21.2997    7.7009   56.6941 H   0  0  0  0  0  0  0  0  0  0  0  0
   23.9132    6.3726   53.2535 C   0  0  0  0  0  0  0  0  0  0  0  0
   23.0421    7.3989   52.6889 C   0  0  0  0  0  0  0  0  0  0  0  0
   22.1382    7.2164   51.6679 C   0  0  0  0  0  0  0  0  0  0  0  0
   21.3582    8.2615   51.1969 C   0  0  0  0  0  0  0  0  0  0  0  0
   21.4471    9.5307   51.7244 C   0  0  0  0  0  0  0  0  0  0  0  0
   20.6556   10.5458   51.2299 C   0  0  0  0  0  0  0  0  0  0  0  0
   20.7387   11.8213   51.7514 C   0  0  0  0  0  0  0  0  0  0  0  0
   21.6351   12.0370   52.7752 C   0  0  0  0  0  0  0  0  0  0  0  0
   22.4353   11.0078   53.2743 C   0  0  0  0  0  0  0  0  0  0  0  0
   22.3491    9.7313   52.7496 C   0  0  0  0  0  0  0  0  0  0  0  0
   23.1231    8.6880   53.2148 C   0  0  0  0  0  0  0  0  0  0  0  0
 10 11  1  0  0  0
 11 12  1  0  0  0
 12 13  1  0  0  0
 13 16  1  0  0  0
 16 17  2  0  0  0
 17 18  1  0  0  0
 18 19  2  0  0  0
 19 20  1  0  0  0
 20 21  2  0  0  0
 13 14  2  0  0  0
 14 15  1  0  0  0
 15  9  1  0  0  0
  9  8  1  0  0  0
  8  7  1  0  0  0
  7  1  1  0  0  0
  1  2  2  0  0  0
  2  3  1  0  0  0
  3  4  2  0  0  0
  4  5  1  0  0  0
  5 22  1  0  0  0
 22 23  1  0  0  0
 23 24  1  0  0  0
 24 25  1  0  0  0
 25 26  2  0  0  0
 25 27  1  0  0  0
 23 29  1  0  0  0
 29 30  1  0  0  0
 30 31  2  0  0  0
 31 32  1  0  0  0
 32 33  2  0  0  0
 33 34  1  0  0  0
 34 35  2  0  0  0
 35 36  1  0  0  0
 36 37  2  0  0  0
 37 38  1  0  0  0
 38 39  2  0  0  0
  5  6  2  0  0  0
 15 11  2  0  0  0
  6  1  1  0  0  0
 21 16  1  0  0  0
 39 30  1  0  0  0
 38 33  1  0  0  0
 27 28  1  0  0  0
M  END
> <minimizedAffinity>
6.17632

> <CNNscore>
0.5578894019

> <CNNaffinity>
6.1353540421

> <CNN_VS>
3.4228489399

> <CNNaffinity_variance>
0.2019165456

$$$$
[H]OC(=O)C([H])([H])N(C([H])([H])c1c([H])c([H])c([H])c(OC([H])([H])C([H])([H])c2nc(-c3c([H])c([H])c([H])c([H])c3[H])oc2C([H])([H])[H])c1[H])C([H])([H])c1c([H])c([H])c2c([H])c([H])c([H])c([H])c2c1[H]


 39 43  0  0  0  0  0  0  0  0999 V2000
   27.5522    8.9093   55.5611 C   0  0  0  0  0  0  0  0  0  0  0  0
   28.1010    8.8582   54.3110 C   0  0  0  0  0  0  0  0  0  0  0  0
   27.3225    8.4923   53.2388 C   0  0  0  0  0  0  0  0  0  0  0  0
   25.9902    8.1687   53.3624 C   0  0  0  0  0  0  0  0  0  0  0  0
   25.4067    8.2102   54.6070 C   0  0  0  0  0  0  0  0  0  0  0  0
   26.1926    8.5759   55.6678 C   0  0  0  0  0  0  0  0  0  0  0  0
   28.2476    9.2573   56.6718 O   0  0  0  0  0  0  0  0  0  0  0  0
   27.9065    9.7869   57.8791 C   0  0  0  0  0  0  0  0  0  0  0  0
   28.6108    9.2855   59.0960 C   0  0  0  0  0  0  0  0  0  0  0  0
   30.8078    9.0640   61.3260 C   0  0  0  0  0  0  0  0  0  0  0  0
   30.1931   10.3231   60.8676 C   0  0  0  0  0  0  0  0  0  0  0  0
   30.4511   11.5369   61.3001 O   0  0  0  0  0  0  0  0  0  0  0  0
   29.7137   12.4111   60.6621 C   0  0  0  0  0  0  0  0  0  0  0  0
   28.9593   11.7169   59.7902 N   0  0  0  0  0  0  0  0  0  0  0  0
   29.2214   10.4118   59.8802 C   0  0  0  0  0  0  0  0  0  0  0  0
   29.6978   13.8561   60.8440 C   0  0  0  0  0  0  0  0  0  0  0  0
   30.8745   14.5745   60.8853 C   0  0  0  0  0  0  0  0  0  0  0  0
   30.8853   15.9558   61.0597 C   0  0  0  0  0  0  0  0  0  0  0  0
   29.6961   16.6344   61.1961 C   0  0  0  0  0  0  0  0  0  0  0  0
   28.5181   15.9455   61.1585 C   0  0  0  0  0  0  0  0  0  0  0  0
   28.5230   14.5586   60.9825 C   0  0  0  0  0  0  0  0  0  0  0  0
   23.9884    7.8617   54.7478 C   0  0  0  0  0  0  0  0  0  0  0  0
   23.4867    6.8867   53.8402 N   0  0  0  0  0  0  0  0  0  0  0  0
   23.4430    5.5815   54.3957 C   0  0  0  0  0  0  0  0  0  0  0  0
   23.0001    5.4970   55.7936 C   0  0  0  0  0  0  0  0  0  0  0  0
   23.4771    4.7684   56.6800 O   0  0  0  0  0  0  0  0  0  0  0  0
   21.9255    6.3188   56.1863 O   0  0  0  0  0  0  0  0  0  0  0  0
   21.0278    5.8999   56.3837 H   0  0  0  0  0  0  0  0  0  0  0  0
   22.3179    7.3091   53.1276 C   0  0  0  0  0  0  0  0  0  0  0  0
   21.9897    8.7284   53.2212 C   0  0  0  0  0  0  0  0  0  0  0  0
   21.7178    9.4181   54.3801 C   0  0  0  0  0  0  0  0  0  0  0  0
   21.4096   10.7698   54.3622 C   0  0  0  0  0  0  0  0  0  0  0  0
   21.3603   11.4892   53.1887 C   0  0  0  0  0  0  0  0  0  0  0  0
   21.0496   12.8324   53.2095 C   0  0  0  0  0  0  0  0  0  0  0  0
   20.9966   13.5613   52.0383 C   0  0  0  0  0  0  0  0  0  0  0  0
   21.2637   12.8993   50.8598 C   0  0  0  0  0  0  0  0  0  0  0  0
   21.5783   11.5393   50.8412 C   0  0  0  0  0  0  0  0  0  0  0  0
   21.6306   10.8126   52.0165 C   0  0  0  0  0  0  0  0  0  0  0  0
   21.9368    9.4673   52.0396 C   0  0  0  0  0  0  0  0  0  0  0  0
 10 11  1  0  0  0
 11 12  1  0  0  0
 12 13  1  0  0  0
 13 16  1  0  0  0
 16 17  2  0  0  0
 17 18  1  0  0  0
 18 19  2  0  0  0
 19 20  1  0  0  0
 20 21  2  0  0  0
 13 14  2  0  0  0
 14 15  1  0  0  0
 15  9  1  0  0  0
  9  8  1  0  0  0
  8  7  1  0  0  0
  7  1  1  0  0  0
  1  2  2  0  0  0
  2  3  1  0  0  0
  3  4  2  0  0  0
  4  5  1  0  0  0
  5 22  1  0  0  0
 22 23  1  0  0  0
 23 24  1  0  0  0
 24 25  1  0  0  0
 25 26  2  0  0  0
 25 27  1  0  0  0
 23 29  1  0  0  0
 29 30  1  0  0  0
 30 31  2  0  0  0
 31 32  1  0  0  0
 32 33  2  0  0  0
 33 34  1  0  0  0
 34 35  2  0  0  0
 35 36  1  0  0  0
 36 37  2  0  0  0
 37 38  1  0  0  0
 38 39  2  0  0  0
  5  6  2  0  0  0
 15 11  2  0  0  0
  6  1  1  0  0  0
 21 16  1  0  0  0
 39 30  1  0  0  0
 38 33  1  0  0  0
 27 28  1  0  0  0
M  END
> <minimizedAffinity>
3.49305

> <CNNscore>
0.5435450673

> <CNNaffinity>
6.2044248581

> <CNN_VS>
3.3723845482

> <CNNaffinity_variance>
0.3959080279

$$$$
[H]OC(=O)C([H])([H])N(C([H])([H])c1c([H])c([H])c([H])c(OC([H])([H])C([H])([H])c2nc(-c3c([H])c([H])c([H])c([H])c3[H])oc2C([H])([H])[H])c1[H])C([H])([H])c1c([H])c([H])c2c([H])c([H])c([H])c([H])c2c1[H]


 39 43  0  0  0  0  0  0  0  0999 V2000
   26.6017    9.0802   55.6265 C   0  0  0  0  0  0  0  0  0  0  0  0
   27.2647    8.8953   54.4463 C   0  0  0  0  0  0  0  0  0  0  0  0
   26.6476    8.2291   53.4144 C   0  0  0  0  0  0  0  0  0  0  0  0
   25.3688    7.7288   53.5107 C   0  0  0  0  0  0  0  0  0  0  0  0
   24.6733    7.8981   54.6850 C   0  0  0  0  0  0  0  0  0  0  0  0
   25.2988    8.5632   55.7063 C   0  0  0  0  0  0  0  0  0  0  0  0
   27.1358    9.7228   56.6941 O   0  0  0  0  0  0  0  0  0  0  0  0
   28.3580    9.7136   57.2947 C   0  0  0  0  0  0  0  0  0  0  0  0
   28.4480    9.2433   58.7086 C   0  0  0  0  0  0  0  0  0  0  0  0
   30.3253    8.8494   61.1923 C   0  0  0  0  0  0  0  0  0  0  0  0
   29.8242   10.1490   60.7097 C   0  0  0  0  0  0  0  0  0  0  0  0
   30.0698   11.3347   61.2204 O   0  0  0  0  0  0  0  0  0  0  0  0
   29.4559   12.2617   60.5284 C   0  0  0  0  0  0  0  0  0  0  0  0
   28.7957   11.6317   59.5393 N   0  0  0  0  0  0  0  0  0  0  0  0
   28.9937   10.3141   59.6097 C   0  0  0  0  0  0  0  0  0  0  0  0
   29.4716   13.6988   60.7648 C   0  0  0  0  0  0  0  0  0  0  0  0
   30.6642   14.3867   60.8476 C   0  0  0  0  0  0  0  0  0  0  0  0
   30.7053   15.7598   61.0745 C   0  0  0  0  0  0  0  0  0  0  0  0
   29.5306   16.4611   61.2221 C   0  0  0  0  0  0  0  0  0  0  0  0
   28.3373   15.8026   61.1441 C   0  0  0  0  0  0  0  0  0  0  0  0
   28.3119   14.4236   60.9157 C   0  0  0  0  0  0  0  0  0  0  0  0
   23.3117    7.3632   54.7973 C   0  0  0  0  0  0  0  0  0  0  0  0
   22.4013    7.7381   53.7693 N   0  0  0  0  0  0  0  0  0  0  0  0
   22.8590    8.8362   52.9956 C   0  0  0  0  0  0  0  0  0  0  0  0
   21.9634    9.9993   52.9453 C   0  0  0  0  0  0  0  0  0  0  0  0
   21.5455   10.6561   53.9138 O   0  0  0  0  0  0  0  0  0  0  0  0
   21.5233   10.4271   51.6773 O   0  0  0  0  0  0  0  0  0  0  0  0
   20.5591   10.2827   51.4128 H   0  0  0  0  0  0  0  0  0  0  0  0
   21.8689    6.6279   53.0370 C   0  0  0  0  0  0  0  0  0  0  0  0
   20.4576    6.3307   53.2624 C   0  0  0  0  0  0  0  0  0  0  0  0
   19.4409    7.2546   53.3350 C   0  0  0  0  0  0  0  0  0  0  0  0
   18.1281    6.8695   53.5596 C   0  0  0  0  0  0  0  0  0  0  0  0
   17.7750    5.5479   53.7207 C   0  0  0  0  0  0  0  0  0  0  0  0
   16.4588    5.2024   53.9432 C   0  0  0  0  0  0  0  0  0  0  0  0
   16.0958    3.8806   54.1070 C   0  0  0  0  0  0  0  0  0  0  0  0
   17.0912    2.9304   54.0401 C   0  0  0  0  0  0  0  0  0  0  0  0
   18.4231    3.2826   53.8145 C   0  0  0  0  0  0  0  0  0  0  0  0
   18.7829    4.6077   53.6507 C   0  0  0  0  0  0  0  0  0  0  0  0
   20.0879    4.9960   53.4269 C   0  0  0  0  0  0  0  0  0  0  0  0
 10 11  1  0  0  0
 11 12  1  0  0  0
 12 13  1  0  0  0
 13 16  1  0  0  0
 16 17  2  0  0  0
 17 18  1  0  0  0
 18 19  2  0  0  0
 19 20  1  0  0  0
 20 21  2  0  0  0
 13 14  2  0  0  0
 14 15  1  0  0  0
 15  9  1  0  0  0
  9  8  1  0  0  0
  8  7  1  0  0  0
  7  1  1  0  0  0
  1  2  2  0  0  0
  2  3  1  0  0  0
  3  4  2  0  0  0
  4  5  1  0  0  0
  5 22  1  0  0  0
 22 23  1  0  0  0
 23 24  1  0  0  0
 24 25  1  0  0  0
 25 26  2  0  0  0
 25 27  1  0  0  0
 23 29  1  0  0  0
 29 30  1  0  0  0
 30 31  2  0  0  0
 31 32  1  0  0  0
 32 33  2  0  0  0
 33 34  1  0  0  0
 34 35  2  0  0  0
 35 36  1  0  0  0
 36 37  2  0  0  0
 37 38  1  0  0  0
 38 39  2  0  0  0
  5  6  2  0  0  0
 15 11  2  0  0  0
  6  1  1  0  0  0
 21 16  1  0  0  0
 39 30  1  0  0  0
 38 33  1  0  0  0
 27 28  1  0  0  0
M  END
> <minimizedAffinity>
12.86519

> <CNNscore>
0.5433683395

> <CNNaffinity>
6.0743737221

> <CNN_VS>
3.3006224632

> <CNNaffinity_variance>
0.0430657044

$$$$
[H]c1nc([H])c(N([H])C2([H])C([H])([H])N(C(=O)c3c(C([H])([H])[H])noc3C([H])([H])[H])C2([H])[H])c([H])c1N1C(=O)c2c([H])c([H])c(Cl)c([H])c2C([H])([H])C1([H])[H]


 33 37  0  0  0  0  0  0  0  0999 V2000
   24.2273    8.9323   54.6880 C   0  0  0  0  0  0  0  0  0  0  0  0
   24.5772    7.8321   53.8912 C   0  0  0  0  0  0  0  0  0  0  0  0
   25.8234    7.3377   53.9378 N   0  0  0  0  0  0  0  0  0  0  0  0
   26.7720    7.8755   54.7434 C   0  0  0  0  0  0  0  0  0  0  0  0
   26.5010    8.9591   55.5559 C   0  0  0  0  0  0  0  0  0  0  0  0
   25.2012    9.4668   55.5004 C   0  0  0  0  0  0  0  0  0  0  0  0
   27.4830    9.5204   56.4111 N   0  0  0  0  0  0  0  0  0  0  0  0
   28.3202   10.5705   55.8743 C   0  0  0  0  0  0  0  0  0  0  0  0
   28.6875   11.6055   56.8827 C   0  0  0  0  0  0  0  0  0  0  0  0
   28.7580   11.0930   58.2652 C   0  0  0  0  0  0  0  0  0  0  0  0
   29.3914   11.9204   59.1902 C   0  0  0  0  0  0  0  0  0  0  0  0
   29.5194   11.5283   60.5269 C   0  0  0  0  0  0  0  0  0  0  0  0
   30.3121   12.5605   61.7033 Cl  0  0  0  0  0  0  0  0  0  0  0  0
   29.0237   10.3113   60.9709 C   0  0  0  0  0  0  0  0  0  0  0  0
   28.3987    9.5135   60.0200 C   0  0  0  0  0  0  0  0  0  0  0  0
   28.2751    9.9051   58.7060 C   0  0  0  0  0  0  0  0  0  0  0  0
   27.5890    9.0357   57.7486 C   0  0  0  0  0  0  0  0  0  0  0  0
   27.1299    7.9311   58.1147 O   0  0  0  0  0  0  0  0  0  0  0  0
   22.9039    9.4192   54.6177 N   0  0  0  0  0  0  0  0  0  0  0  0
   22.5636   10.0462   55.3861 H   0  0  0  0  0  0  0  0  0  0  0  0
   21.4953   12.1975   52.2118 C   0  0  0  0  0  0  0  0  0  0  0  0
   22.5255   12.3961   51.3835 O   0  0  0  0  0  0  0  0  0  0  0  0
   21.4487   10.8599   52.6231 N   0  0  0  0  0  0  0  0  0  0  0  0
   22.3708    9.7418   52.2154 C   0  0  0  0  0  0  0  0  0  0  0  0
   22.0590    9.0463   53.4984 C   0  0  0  0  0  0  0  0  0  0  0  0
   20.7885    9.8974   53.4152 C   0  0  0  0  0  0  0  0  0  0  0  0
   19.8830   12.5505   54.8312 C   0  0  0  0  0  0  0  0  0  0  0  0
   19.9702   13.4983   53.6841 C   0  0  0  0  0  0  0  0  0  0  0  0
   19.3448   14.6829   53.6320 N   0  0  0  0  0  0  0  0  0  0  0  0
   19.6182   15.2525   52.5345 O   0  0  0  0  0  0  0  0  0  0  0  0
   20.4379   14.4801   51.8003 C   0  0  0  0  0  0  0  0  0  0  0  0
   20.9181   14.8953   50.4807 C   0  0  0  0  0  0  0  0  0  0  0  0
   20.6977   13.3421   52.4863 C   0  0  0  0  0  0  0  0  0  0  0  0
 27 28  1  0  0  0
 28 29  2  0  0  0
 29 30  1  0  0  0
 30 31  1  0  0  0
 31 32  1  0  0  0
 31 33  2  0  0  0
 33 21  1  0  0  0
 21 22  2  0  0  0
 21 23  1  0  0  0
 23 24  1  0  0  0
 24 25  1  0  0  0
 25 19  1  0  0  0
 19  1  1  0  0  0
  1  2  2  0  0  0
  2  3  1  0  0  0
  3  4  2  0  0  0
  4  5  1  0  0  0
  5  7  1  0  0  0
  7  8  1  0  0  0
  8  9  1  0  0  0
  9 10  1  0  0  0
 10 11  2  0  0  0
 11 12  1  0  0  0
 12 13  1  0  0  0
 12 14  2  0  0  0
 14 15  1  0  0  0
 15 16  2  0  0  0
 16 17  1  0  0  0
 17 18  2  0  0  0
  5  6  2  0  0  0
 25 26  1  0  0  0
 33 28  1  0  0  0
 26 23  1  0  0  0
  6  1  1  0  0  0
 17  7  1  0  0  0
 16 10  1  0  0  0
 19 20  1  0  0  0
M  END
> <minimizedAffinity>
36.38375

> <CNNscore>
0.5463478565

> <CNNaffinity>
5.9875073433

> <CNN_VS>
3.2712616920

> <CNNaffinity_variance>
0.3807223439

$$$$
[H]c1nc([H])c(N([H])C2([H])C([H])([H])N(C(=O)c3c(C([H])([H])[H])noc3C([H])([H])[H])C2([H])[H])c([H])c1N1C(=O)c2c([H])c([H])c(Cl)c([H])c2C([H])([H])C1([H])[H]


 33 37  0  0  0  0  0  0  0  0999 V2000
   21.0949    9.4660   53.5665 C   0  0  0  0  0  0  0  0  0  0  0  0
   20.5643   10.0795   54.7109 C   0  0  0  0  0  0  0  0  0  0  0  0
   21.2874   10.1366   55.8395 N   0  0  0  0  0  0  0  0  0  0  0  0
   22.5354    9.6119   55.9116 C   0  0  0  0  0  0  0  0  0  0  0  0
   23.1233    8.9930   54.8258 C   0  0  0  0  0  0  0  0  0  0  0  0
   22.3629    8.9383   53.6556 C   0  0  0  0  0  0  0  0  0  0  0  0
   24.4329    8.4526   54.8879 N   0  0  0  0  0  0  0  0  0  0  0  0
   24.6955    7.2408   54.1431 C   0  0  0  0  0  0  0  0  0  0  0  0
   26.0752    7.1814   53.5811 C   0  0  0  0  0  0  0  0  0  0  0  0
   27.0766    7.9160   54.3788 C   0  0  0  0  0  0  0  0  0  0  0  0
   28.4105    7.6406   54.0854 C   0  0  0  0  0  0  0  0  0  0  0  0
   29.4405    8.2762   54.7867 C   0  0  0  0  0  0  0  0  0  0  0  0
   31.1246    7.9415   54.4267 Cl  0  0  0  0  0  0  0  0  0  0  0  0
   29.1685    9.1945   55.7901 C   0  0  0  0  0  0  0  0  0  0  0  0
   27.8271    9.4434   56.0543 C   0  0  0  0  0  0  0  0  0  0  0  0
   26.8177    8.8151   55.3602 C   0  0  0  0  0  0  0  0  0  0  0  0
   25.4204    9.1289   55.6640 C   0  0  0  0  0  0  0  0  0  0  0  0
   25.1388    9.9521   56.5629 O   0  0  0  0  0  0  0  0  0  0  0  0
   20.3072    9.4328   52.3953 N   0  0  0  0  0  0  0  0  0  0  0  0
   19.3016    9.1482   52.4806 H   0  0  0  0  0  0  0  0  0  0  0  0
   21.4396   13.1425   51.7270 C   0  0  0  0  0  0  0  0  0  0  0  0
   22.6426   13.1748   52.3086 O   0  0  0  0  0  0  0  0  0  0  0  0
   21.1875   11.8727   51.1938 N   0  0  0  0  0  0  0  0  0  0  0  0
   22.0985   10.6741   51.2080 C   0  0  0  0  0  0  0  0  0  0  0  0
   20.8998    9.7896   51.1197 C   0  0  0  0  0  0  0  0  0  0  0  0
   20.2695   11.0464   50.5126 C   0  0  0  0  0  0  0  0  0  0  0  0
   19.3605   13.7832   53.9298 C   0  0  0  0  0  0  0  0  0  0  0  0
   19.7608   14.6447   52.7811 C   0  0  0  0  0  0  0  0  0  0  0  0
   19.2618   15.8655   52.5408 N   0  0  0  0  0  0  0  0  0  0  0  0
   19.8015   16.3403   51.4983 O   0  0  0  0  0  0  0  0  0  0  0  0
   20.6860   15.4638   50.9911 C   0  0  0  0  0  0  0  0  0  0  0  0
   21.4598   15.7553   49.7826 C   0  0  0  0  0  0  0  0  0  0  0  0
   20.7025   14.3576   51.7716 C   0  0  0  0  0  0  0  0  0  0  0  0
 27 28  1  0  0  0
 28 29  2  0  0  0
 29 30  1  0  0  0
 30 31  1  0  0  0
 31 32  1  0  0  0
 31 33  2  0  0  0
 33 21  1  0  0  0
 21 22  2  0  0  0
 21 23  1  0  0  0
 23 24  1  0  0  0
 24 25  1  0  0  0
 25 19  1  0  0  0
 19  1  1  0  0  0
  1  2  2  0  0  0
  2  3  1  0  0  0
  3  4  2  0  0  0
  4  5  1  0  0  0
  5  7  1  0  0  0
  7  8  1  0  0  0
  8  9  1  0  0  0
  9 10  1  0  0  0
 10 11  2  0  0  0
 11 12  1  0  0  0
 12 13  1  0  0  0
 12 14  2  0  0  0
 14 15  1  0  0  0
 15 16  2  0  0  0
 16 17  1  0  0  0
 17 18  2  0  0  0
  5  6  2  0  0  0
 25 26  1  0  0  0
 33 28  1  0  0  0
 26 23  1  0  0  0
  6  1  1  0  0  0
 17  7  1  0  0  0
 16 10  1  0  0  0
 19 20  1  0  0  0
M  END
> <minimizedAffinity>
42.46078

> <CNNscore>
0.5410303473

> <CNNaffinity>
5.9434571266

> <CNN_VS>
3.2155907154

> <CNNaffinity_variance>
0.4331862032

$$$$
[H]c1nc([H])c(N([H])C2([H])C([H])([H])N(C(=O)c3c(C([H])([H])[H])noc3C([H])([H])[H])C2([H])[H])c([H])c1N1C(=O)c2c([H])c([H])c(Cl)c([H])c2C([H])([H])C1([H])[H]


 33 37  0  0  0  0  0  0  0  0999 V2000
   20.8981    7.0677   54.0382 C   0  0  0  0  0  0  0  0  0  0  0  0
   20.2651    7.7564   55.0835 C   0  0  0  0  0  0  0  0  0  0  0  0
   20.9960    8.4292   55.9850 N   0  0  0  0  0  0  0  0  0  0  0  0
   22.3496    8.4661   55.9179 C   0  0  0  0  0  0  0  0  0  0  0  0
   23.0420    7.8125   54.9174 C   0  0  0  0  0  0  0  0  0  0  0  0
   22.2725    7.1147   53.9838 C   0  0  0  0  0  0  0  0  0  0  0  0
   24.4568    7.8558   54.8317 N   0  0  0  0  0  0  0  0  0  0  0  0
   25.0873    7.1231   53.7558 C   0  0  0  0  0  0  0  0  0  0  0  0
   26.3098    7.7911   53.2246 C   0  0  0  0  0  0  0  0  0  0  0  0
   27.0267    8.6063   54.2248 C   0  0  0  0  0  0  0  0  0  0  0  0
   28.3213    8.9913   53.8823 C   0  0  0  0  0  0  0  0  0  0  0  0
   29.0923    9.7598   54.7609 C   0  0  0  0  0  0  0  0  0  0  0  0
   30.7227   10.2542   54.3424 Cl  0  0  0  0  0  0  0  0  0  0  0  0
   28.5961   10.1598   55.9929 C   0  0  0  0  0  0  0  0  0  0  0  0
   27.3019    9.7569   56.2993 C   0  0  0  0  0  0  0  0  0  0  0  0
   26.5476    9.0012   55.4302 C   0  0  0  0  0  0  0  0  0  0  0  0
   25.1814    8.6209   55.7933 C   0  0  0  0  0  0  0  0  0  0  0  0
   24.7020    8.9644   56.8966 O   0  0  0  0  0  0  0  0  0  0  0  0
   20.0948    6.3779   53.1043 N   0  0  0  0  0  0  0  0  0  0  0  0
   19.4373    5.6432   53.4611 H   0  0  0  0  0  0  0  0  0  0  0  0
   21.8568    9.7103   51.9719 C   0  0  0  0  0  0  0  0  0  0  0  0
   23.1478    9.3648   51.9985 O   0  0  0  0  0  0  0  0  0  0  0  0
   21.0641    8.6142   51.6105 N   0  0  0  0  0  0  0  0  0  0  0  0
   21.5247    7.2243   51.2607 C   0  0  0  0  0  0  0  0  0  0  0  0
   20.1962    6.6991   51.6928 C   0  0  0  0  0  0  0  0  0  0  0  0
   19.7571    8.1338   51.3859 C   0  0  0  0  0  0  0  0  0  0  0  0
   21.6010   10.7251   54.8857 C   0  0  0  0  0  0  0  0  0  0  0  0
   21.4660   11.5204   53.6322 C   0  0  0  0  0  0  0  0  0  0  0  0
   21.2142   12.8366   53.5945 N   0  0  0  0  0  0  0  0  0  0  0  0
   21.1612   13.2180   52.3881 O   0  0  0  0  0  0  0  0  0  0  0  0
   21.3749   12.1795   51.5613 C   0  0  0  0  0  0  0  0  0  0  0  0
   21.3716   12.3348   50.1053 C   0  0  0  0  0  0  0  0  0  0  0  0
   21.5759   11.0644   52.3024 C   0  0  0  0  0  0  0  0  0  0  0  0
 27 28  1  0  0  0
 28 29  2  0  0  0
 29 30  1  0  0  0
 30 31  1  0  0  0
 31 32  1  0  0  0
 31 33  2  0  0  0
 33 21  1  0  0  0
 21 22  2  0  0  0
 21 23  1  0  0  0
 23 24  1  0  0  0
 24 25  1  0  0  0
 25 19  1  0  0  0
 19  1  1  0  0  0
  1  2  2  0  0  0
  2  3  1  0  0  0
  3  4  2  0  0  0
  4  5  1  0  0  0
  5  7  1  0  0  0
  7  8  1  0  0  0
  8  9  1  0  0  0
  9 10  1  0  0  0
 10 11  2  0  0  0
 11 12  1  0  0  0
 12 13  1  0  0  0
 12 14  2  0  0  0
 14 15  1  0  0  0
 15 16  2  0  0  0
 16 17  1  0  0  0
 17 18  2  0  0  0
  5  6  2  0  0  0
 25 26  1  0  0  0
 33 28  1  0  0  0
 26 23  1  0  0  0
  6  1  1  0  0  0
 17  7  1  0  0  0
 16 10  1  0  0  0
 19 20  1  0  0  0
M  END
> <minimizedAffinity>
34.32758

> <CNNscore>
0.5277225971

> <CNNaffinity>
6.2214388847

> <CNN_VS>
3.2831938267

> <CNNaffinity_variance>
0.3865719140

$$$$
[H]c1nc([H])c(N([H])C2([H])C([H])([H])N(C(=O)c3c(C([H])([H])[H])noc3C([H])([H])[H])C2([H])[H])c([H])c1N1C(=O)c2c([H])c([H])c(Cl)c([H])c2C([H])([H])C1([H])[H]


 33 37  0  0  0  0  0  0  0  0999 V2000
   22.4773    5.8513   53.7974 C   0  0  0  0  0  0  0  0  0  0  0  0
   23.1163    5.2138   52.7236 C   0  0  0  0  0  0  0  0  0  0  0  0
   24.3499    5.5912   52.3555 N   0  0  0  0  0  0  0  0  0  0  0  0
   25.0107    6.5854   52.9982 C   0  0  0  0  0  0  0  0  0  0  0  0
   24.4455    7.2581   54.0639 C   0  0  0  0  0  0  0  0  0  0  0  0
   23.1612    6.8584   54.4396 C   0  0  0  0  0  0  0  0  0  0  0  0
   25.1338    8.2905   54.7502 N   0  0  0  0  0  0  0  0  0  0  0  0
   24.3427    9.3456   55.3443 C   0  0  0  0  0  0  0  0  0  0  0  0
   24.9139    9.8638   56.6203 C   0  0  0  0  0  0  0  0  0  0  0  0
   26.3845    9.7643   56.6996 C   0  0  0  0  0  0  0  0  0  0  0  0
   26.9918   10.5054   57.7112 C   0  0  0  0  0  0  0  0  0  0  0  0
   28.3813   10.4885   57.8712 C   0  0  0  0  0  0  0  0  0  0  0  0
   29.1598   11.4145   59.1418 Cl  0  0  0  0  0  0  0  0  0  0  0  0
   29.1936    9.7388   57.0332 C   0  0  0  0  0  0  0  0  0  0  0  0
   28.5523    9.0130   56.0366 C   0  0  0  0  0  0  0  0  0  0  0  0
   27.1842    9.0330   55.8845 C   0  0  0  0  0  0  0  0  0  0  0  0
   26.5569    8.2335   54.8308 C   0  0  0  0  0  0  0  0  0  0  0  0
   27.2592    7.5457   54.0569 O   0  0  0  0  0  0  0  0  0  0  0  0
   21.1827    5.4208   54.1605 N   0  0  0  0  0  0  0  0  0  0  0  0
   21.0803    4.8156   55.0107 H   0  0  0  0  0  0  0  0  0  0  0  0
   21.2017    8.8996   52.3196 C   0  0  0  0  0  0  0  0  0  0  0  0
   21.8966    8.6237   51.2115 O   0  0  0  0  0  0  0  0  0  0  0  0
   20.4592    7.7830   52.7225 N   0  0  0  0  0  0  0  0  0  0  0  0
   20.3798    6.4408   52.0452 C   0  0  0  0  0  0  0  0  0  0  0  0
   20.0406    5.8220   53.3603 C   0  0  0  0  0  0  0  0  0  0  0  0
   19.5733    7.2451   53.6793 C   0  0  0  0  0  0  0  0  0  0  0  0
   21.3409    9.5358   55.3463 C   0  0  0  0  0  0  0  0  0  0  0  0
   21.4263   10.4984   54.2114 C   0  0  0  0  0  0  0  0  0  0  0  0
   21.5901   11.8215   54.3520 N   0  0  0  0  0  0  0  0  0  0  0  0
   21.6276   12.3624   53.2076 O   0  0  0  0  0  0  0  0  0  0  0  0
   21.4917   11.4311   52.2475 C   0  0  0  0  0  0  0  0  0  0  0  0
   21.5010   11.7778   50.8248 C   0  0  0  0  0  0  0  0  0  0  0  0
   21.3585   10.2168   52.8314 C   0  0  0  0  0  0  0  0  0  0  0  0
 27 28  1  0  0  0
 28 29  2  0  0  0
 29 30  1  0  0  0
 30 31  1  0  0  0
 31 32  1  0  0  0
 31 33  2  0  0  0
 33 21  1  0  0  0
 21 22  2  0  0  0
 21 23  1  0  0  0
 23 24  1  0  0  0
 24 25  1  0  0  0
 25 19  1  0  0  0
 19  1  1  0  0  0
  1  2  2  0  0  0
  2  3  1  0  0  0
  3  4  2  0  0  0
  4  5  1  0  0  0
  5  7  1  0  0  0
  7  8  1  0  0  0
  8  9  1  0  0  0
  9 10  1  0  0  0
 10 11  2  0  0  0
 11 12  1  0  0  0
 12 13  1  0  0  0
 12 14  2  0  0  0
 14 15  1  0  0  0
 15 16  2  0  0  0
 16 17  1  0  0  0
 17 18  2  0  0  0
  5  6  2  0  0  0
 25 26  1  0  0  0
 33 28  1  0  0  0
 26 23  1  0  0  0
  6  1  1  0  0  0
 17  7  1  0  0  0
 16 10  1  0  0  0
 19 20  1  0  0  0
M  END
> <minimizedAffinity>
26.55696

> <CNNscore>
0.4798964858

> <CNNaffinity>
6.0876808167

> <CNN_VS>
2.9214565754

> <CNNaffinity_variance>
0.5111185312

$$$$
[H]c1nc([H])c(N([H])C2([H])C([H])([H])N(C(=O)c3c(C([H])([H])[H])noc3C([H])([H])[H])C2([H])[H])c([H])c1N1C(=O)c2c([H])c([H])c(Cl)c([H])c2C([H])([H])C1([H])[H]


 33 37  0  0  0  0  0  0  0  0999 V2000
   24.7866    6.7925   54.0679 C   0  0  0  0  0  0  0  0  0  0  0  0
   24.1125    5.7592   54.7354 C   0  0  0  0  0  0  0  0  0  0  0  0
   22.8187    5.9007   55.0605 N   0  0  0  0  0  0  0  0  0  0  0  0
   22.1293    7.0288   54.7598 C   0  0  0  0  0  0  0  0  0  0  0  0
   22.7262    8.0876   54.1037 C   0  0  0  0  0  0  0  0  0  0  0  0
   24.0732    7.9310   53.7697 C   0  0  0  0  0  0  0  0  0  0  0  0
   22.0101    9.2662   53.7739 N   0  0  0  0  0  0  0  0  0  0  0  0
   21.5271   10.0858   54.8634 C   0  0  0  0  0  0  0  0  0  0  0  0
   21.5502   11.5451   54.5587 C   0  0  0  0  0  0  0  0  0  0  0  0
   21.3795   11.8584   53.1264 C   0  0  0  0  0  0  0  0  0  0  0  0
   21.0810   13.1854   52.8242 C   0  0  0  0  0  0  0  0  0  0  0  0
   20.8919   13.5894   51.4984 C   0  0  0  0  0  0  0  0  0  0  0  0
   20.5182   15.2571   51.1024 Cl  0  0  0  0  0  0  0  0  0  0  0  0
   20.9944   12.6877   50.4493 C   0  0  0  0  0  0  0  0  0  0  0  0
   21.2932   11.3738   50.7895 C   0  0  0  0  0  0  0  0  0  0  0  0
   21.4789   10.9823   52.0962 C   0  0  0  0  0  0  0  0  0  0  0  0
   21.8126    9.5894   52.3986 C   0  0  0  0  0  0  0  0  0  0  0  0
   21.9128    8.7494   51.4769 O   0  0  0  0  0  0  0  0  0  0  0  0
   26.1456    6.6034   53.7352 N   0  0  0  0  0  0  0  0  0  0  0  0
   26.4096    5.7464   53.1916 H   0  0  0  0  0  0  0  0  0  0  0  0
   27.5926    9.1501   51.1062 C   0  0  0  0  0  0  0  0  0  0  0  0
   26.6446   10.0921   51.0811 O   0  0  0  0  0  0  0  0  0  0  0  0
   27.6941    8.5918   52.3862 N   0  0  0  0  0  0  0  0  0  0  0  0
   26.9062    8.9627   53.6143 C   0  0  0  0  0  0  0  0  0  0  0  0
   27.1303    7.5866   54.1467 C   0  0  0  0  0  0  0  0  0  0  0  0
   28.3357    7.6379   53.2035 C   0  0  0  0  0  0  0  0  0  0  0  0
   28.0653   11.3727   49.0034 C   0  0  0  0  0  0  0  0  0  0  0  0
   28.4855    9.9447   48.9251 C   0  0  0  0  0  0  0  0  0  0  0  0
   29.1593    9.4093   47.8973 N   0  0  0  0  0  0  0  0  0  0  0  0
   29.3697    8.1823   48.1286 O   0  0  0  0  0  0  0  0  0  0  0  0
   28.8494    7.8368   49.3193 C   0  0  0  0  0  0  0  0  0  0  0  0
   28.9491    6.4726   49.8420 C   0  0  0  0  0  0  0  0  0  0  0  0
   28.2693    8.9261   49.8759 C   0  0  0  0  0  0  0  0  0  0  0  0
 27 28  1  0  0  0
 28 29  2  0  0  0
 29 30  1  0  0  0
 30 31  1  0  0  0
 31 32  1  0  0  0
 31 33  2  0  0  0
 33 21  1  0  0  0
 21 22  2  0  0  0
 21 23  1  0  0  0
 23 24  1  0  0  0
 24 25  1  0  0  0
 25 19  1  0  0  0
 19  1  1  0  0  0
  1  2  2  0  0  0
  2  3  1  0  0  0
  3  4  2  0  0  0
  4  5  1  0  0  0
  5  7  1  0  0  0
  7  8  1  0  0  0
  8  9  1  0  0  0
  9 10  1  0  0  0
 10 11  2  0  0  0
 11 12  1  0  0  0
 12 13  1  0  0  0
 12 14  2  0  0  0
 14 15  1  0  0  0
 15 16  2  0  0  0
 16 17  1  0  0  0
 17 18  2  0  0  0
  5  6  2  0  0  0
 25 26  1  0  0  0
 33 28  1  0  0  0
 26 23  1  0  0  0
  6  1  1  0  0  0
 17  7  1  0  0  0
 16 10  1  0  0  0
 19 20  1  0  0  0
M  END
> <minimizedAffinity>
42.06110

> <CNNscore>
0.4380898476

> <CNNaffinity>
6.0163712502

> <CNN_VS>
2.6357111931

> <CNNaffinity_variance>
0.1381748766

$$$$
[H]c1nc([H])c(N([H])C2([H])C([H])([H])N(C(=O)c3c(C([H])([H])[H])noc3C([H])([H])[H])C2([H])[H])c([H])c1N1C(=O)c2c([H])c([H])c(Cl)c([H])c2C([H])([H])C1([H])[H]


 33 37  0  0  0  0  0  0  0  0999 V2000
   22.5523    6.1473   54.4287 C   0  0  0  0  0  0  0  0  0  0  0  0
   23.0472    5.0858   53.6566 C   0  0  0  0  0  0  0  0  0  0  0  0
   24.3147    5.1077   53.2177 N   0  0  0  0  0  0  0  0  0  0  0  0
   25.1473    6.1396   53.5007 C   0  0  0  0  0  0  0  0  0  0  0  0
   24.7307    7.2189   54.2551 C   0  0  0  0  0  0  0  0  0  0  0  0
   23.4097    7.1872   54.7073 C   0  0  0  0  0  0  0  0  0  0  0  0
   25.5980    8.2966   54.5667 N   0  0  0  0  0  0  0  0  0  0  0  0
   25.4061    8.9686   55.8331 C   0  0  0  0  0  0  0  0  0  0  0  0
   26.6793    9.4396   56.4496 C   0  0  0  0  0  0  0  0  0  0  0  0
   27.7304    9.7721   55.4680 C   0  0  0  0  0  0  0  0  0  0  0  0
   28.8113   10.5030   55.9566 C   0  0  0  0  0  0  0  0  0  0  0  0
   29.8598   10.8774   55.1097 C   0  0  0  0  0  0  0  0  0  0  0  0
   31.2284   11.7955   55.7111 Cl  0  0  0  0  0  0  0  0  0  0  0  0
   29.8566   10.5355   53.7653 C   0  0  0  0  0  0  0  0  0  0  0  0
   28.7625    9.8067   53.3147 C   0  0  0  0  0  0  0  0  0  0  0  0
   27.7339    9.4406   54.1532 C   0  0  0  0  0  0  0  0  0  0  0  0
   26.6141    8.6547   53.6318 C   0  0  0  0  0  0  0  0  0  0  0  0
   26.5788    8.3292   52.4244 O   0  0  0  0  0  0  0  0  0  0  0  0
   21.2157    6.0845   54.8792 N   0  0  0  0  0  0  0  0  0  0  0  0
   21.0424    5.8975   55.8963 H   0  0  0  0  0  0  0  0  0  0  0  0
   21.3367    9.0875   52.3378 C   0  0  0  0  0  0  0  0  0  0  0  0
   22.1094    8.5963   51.3639 O   0  0  0  0  0  0  0  0  0  0  0  0
   20.5764    8.0667   52.9213 N   0  0  0  0  0  0  0  0  0  0  0  0
   20.5548    6.6091   52.5452 C   0  0  0  0  0  0  0  0  0  0  0  0
   20.1293    6.2790   53.9371 C   0  0  0  0  0  0  0  0  0  0  0  0
   19.6300    7.7265   53.9103 C   0  0  0  0  0  0  0  0  0  0  0  0
   21.9760   10.3121   55.1085 C   0  0  0  0  0  0  0  0  0  0  0  0
   21.7438   11.0373   53.8271 C   0  0  0  0  0  0  0  0  0  0  0  0
   21.7905   12.3703   53.6928 N   0  0  0  0  0  0  0  0  0  0  0  0
   21.5542   12.6779   52.4874 O   0  0  0  0  0  0  0  0  0  0  0  0
   21.3389   11.5696   51.7573 C   0  0  0  0  0  0  0  0  0  0  0  0
   21.0431   11.6308   50.3245 C   0  0  0  0  0  0  0  0  0  0  0  0
   21.4471   10.4870   52.5632 C   0  0  0  0  0  0  0  0  0  0  0  0
 27 28  1  0  0  0
 28 29  2  0  0  0
 29 30  1  0  0  0
 30 31  1  0  0  0
 31 32  1  0  0  0
 31 33  2  0  0  0
 33 21  1  0  0  0
 21 22  2  0  0  0
 21 23  1  0  0  0
 23 24  1  0  0  0
 24 25  1  0  0  0
 25 19  1  0  0  0
 19  1  1  0  0  0
  1  2  2  0  0  0
  2  3  1  0  0  0
  3  4  2  0  0  0
  4  5  1  0  0  0
  5  7  1  0  0  0
  7  8  1  0  0  0
  8  9  1  0  0  0
  9 10  1  0  0  0
 10 11  2  0  0  0
 11 12  1  0  0  0
 12 13  1  0  0  0
 12 14  2  0  0  0
 14 15  1  0  0  0
 15 16  2  0  0  0
 16 17  1  0  0  0
 17 18  2  0  0  0
  5  6  2  0  0  0
 25 26  1  0  0  0
 33 28  1  0  0  0
 26 23  1  0  0  0
  6  1  1  0  0  0
 17  7  1  0  0  0
 16 10  1  0  0  0
 19 20  1  0  0  0
M  END
> <minimizedAffinity>
38.14863

> <CNNscore>
0.3979043663

> <CNNaffinity>
5.7863202095

> <CNN_VS>
2.3024020195

> <CNNaffinity_variance>
0.5558844209

$$$$
[H]c1nc([H])c(N([H])C2([H])C([H])([H])N(C(=O)c3c(C([H])([H])[H])noc3C([H])([H])[H])C2([H])[H])c([H])c1N1C(=O)c2c([H])c([H])c(Cl)c([H])c2C([H])([H])C1([H])[H]


 33 37  0  0  0  0  0  0  0  0999 V2000
   25.2416    9.1441   54.6405 C   0  0  0  0  0  0  0  0  0  0  0  0
   24.7795    9.8725   55.7467 C   0  0  0  0  0  0  0  0  0  0  0  0
   23.5378    9.6715   56.2128 N   0  0  0  0  0  0  0  0  0  0  0  0
   22.7003    8.7721   55.6402 C   0  0  0  0  0  0  0  0  0  0  0  0
   23.0855    8.0186   54.5486 C   0  0  0  0  0  0  0  0  0  0  0  0
   24.3797    8.2349   54.0705 C   0  0  0  0  0  0  0  0  0  0  0  0
   22.2211    7.0665   53.9509 N   0  0  0  0  0  0  0  0  0  0  0  0
   22.8111    5.8441   53.4513 C   0  0  0  0  0  0  0  0  0  0  0  0
   21.9256    4.6549   53.6079 C   0  0  0  0  0  0  0  0  0  0  0  0
   20.4850    4.9745   53.5694 C   0  0  0  0  0  0  0  0  0  0  0  0
   19.6251    3.8919   53.3961 C   0  0  0  0  0  0  0  0  0  0  0  0
   18.2406    4.0835   53.3383 C   0  0  0  0  0  0  0  0  0  0  0  0
   17.1455    2.7299   53.1231 Cl  0  0  0  0  0  0  0  0  0  0  0  0
   17.6835    5.3488   53.4504 C   0  0  0  0  0  0  0  0  0  0  0  0
   18.5722    6.4033   53.6222 C   0  0  0  0  0  0  0  0  0  0  0  0
   19.9339    6.2085   53.6790 C   0  0  0  0  0  0  0  0  0  0  0  0
   20.8251    7.3519   53.8823 C   0  0  0  0  0  0  0  0  0  0  0  0
   20.3568    8.5072   53.9872 O   0  0  0  0  0  0  0  0  0  0  0  0
   26.5570    9.3774   54.1841 N   0  0  0  0  0  0  0  0  0  0  0  0
   26.7342   10.2228   53.5896 H   0  0  0  0  0  0  0  0  0  0  0  0
   27.8976    9.2790   57.8833 C   0  0  0  0  0  0  0  0  0  0  0  0
   26.9960    8.4965   58.4848 O   0  0  0  0  0  0  0  0  0  0  0  0
   28.0792    8.8832   56.5527 N   0  0  0  0  0  0  0  0  0  0  0  0
   27.4148    7.7371   55.8373 C   0  0  0  0  0  0  0  0  0  0  0  0
   27.6177    8.4551   54.5448 C   0  0  0  0  0  0  0  0  0  0  0  0
   28.7413    9.1347   55.3329 C   0  0  0  0  0  0  0  0  0  0  0  0
   27.5099   12.2954   57.3035 C   0  0  0  0  0  0  0  0  0  0  0  0
   28.2728   11.6773   58.4250 C   0  0  0  0  0  0  0  0  0  0  0  0
   28.9127   12.3703   59.3775 N   0  0  0  0  0  0  0  0  0  0  0  0
   29.4606   11.5635   60.1853 O   0  0  0  0  0  0  0  0  0  0  0  0
   29.2148   10.2946   59.8150 C   0  0  0  0  0  0  0  0  0  0  0  0
   29.7285    9.1526   60.5740 C   0  0  0  0  0  0  0  0  0  0  0  0
   28.4580   10.3052   58.6924 C   0  0  0  0  0  0  0  0  0  0  0  0
 27 28  1  0  0  0
 28 29  2  0  0  0
 29 30  1  0  0  0
 30 31  1  0  0  0
 31 32  1  0  0  0
 31 33  2  0  0  0
 33 21  1  0  0  0
 21 22  2  0  0  0
 21 23  1  0  0  0
 23 24  1  0  0  0
 24 25  1  0  0  0
 25 19  1  0  0  0
 19  1  1  0  0  0
  1  2  2  0  0  0
  2  3  1  0  0  0
  3  4  2  0  0  0
  4  5  1  0  0  0
  5  7  1  0  0  0
  7  8  1  0  0  0
  8  9  1  0  0  0
  9 10  1  0  0  0
 10 11  2  0  0  0
 11 12  1  0  0  0
 12 13  1  0  0  0
 12 14  2  0  0  0
 14 15  1  0  0  0
 15 16  2  0  0  0
 16 17  1  0  0  0
 17 18  2  0  0  0
  5  6  2  0  0  0
 25 26  1  0  0  0
 33 28  1  0  0  0
 26 23  1  0  0  0
  6  1  1  0  0  0
 17  7  1  0  0  0
 16 10  1  0  0  0
 19 20  1  0  0  0
M  END
> <minimizedAffinity>
32.86237

> <CNNscore>
0.3928349614

> <CNNaffinity>
6.0836076736

> <CNN_VS>
2.3898537159

> <CNNaffinity_variance>
0.1136042848

$$$$
[H]c1nc([H])c(N([H])C2([H])C([H])([H])N(C(=O)c3c(C([H])([H])[H])noc3C([H])([H])[H])C2([H])[H])c([H])c1N1C(=O)c2c([H])c([H])c(Cl)c([H])c2C([H])([H])C1([H])[H]


 33 37  0  0  0  0  0  0  0  0999 V2000
   27.6322    8.8719   52.9756 C   0  0  0  0  0  0  0  0  0  0  0  0
   28.4366    9.0807   54.1057 C   0  0  0  0  0  0  0  0  0  0  0  0
   27.8954    9.0409   55.3326 N   0  0  0  0  0  0  0  0  0  0  0  0
   26.5742    8.8014   55.5195 C   0  0  0  0  0  0  0  0  0  0  0  0
   25.7207    8.5864   54.4550 C   0  0  0  0  0  0  0  0  0  0  0  0
   26.2932    8.6300   53.1818 C   0  0  0  0  0  0  0  0  0  0  0  0
   24.3399    8.3227   54.6411 N   0  0  0  0  0  0  0  0  0  0  0  0
   23.5499    9.3263   55.3197 C   0  0  0  0  0  0  0  0  0  0  0  0
   22.1547    9.4267   54.8038 C   0  0  0  0  0  0  0  0  0  0  0  0
   21.6258    8.1592   54.2630 C   0  0  0  0  0  0  0  0  0  0  0  0
   20.2481    8.1107   54.0608 C   0  0  0  0  0  0  0  0  0  0  0  0
   19.6416    6.9545   53.5586 C   0  0  0  0  0  0  0  0  0  0  0  0
   17.9086    6.8795   53.2964 Cl  0  0  0  0  0  0  0  0  0  0  0  0
   20.3874    5.8268   53.2485 C   0  0  0  0  0  0  0  0  0  0  0  0
   21.7577    5.9128   53.4633 C   0  0  0  0  0  0  0  0  0  0  0  0
   22.3490    7.0537   53.9572 C   0  0  0  0  0  0  0  0  0  0  0  0
   23.8001    7.0989   54.1454 C   0  0  0  0  0  0  0  0  0  0  0  0
   24.5034    6.0999   53.8761 O   0  0  0  0  0  0  0  0  0  0  0  0
   28.2393    8.9133   51.7016 N   0  0  0  0  0  0  0  0  0  0  0  0
   28.5166    8.0067   51.2535 H   0  0  0  0  0  0  0  0  0  0  0  0
   27.8742    9.2169   47.7945 C   0  0  0  0  0  0  0  0  0  0  0  0
   26.5529    9.3578   47.6491 O   0  0  0  0  0  0  0  0  0  0  0  0
   28.3015    9.8108   48.9883 N   0  0  0  0  0  0  0  0  0  0  0  0
   27.4619   10.5442   50.0001 C   0  0  0  0  0  0  0  0  0  0  0  0
   28.4606   10.1916   51.0516 C   0  0  0  0  0  0  0  0  0  0  0  0
   29.3922   10.0794   49.8413 C   0  0  0  0  0  0  0  0  0  0  0  0
   29.3519    6.5286   48.2131 C   0  0  0  0  0  0  0  0  0  0  0  0
   29.2039    7.2951   46.9432 C   0  0  0  0  0  0  0  0  0  0  0  0
   29.7026    6.9053   45.7615 N   0  0  0  0  0  0  0  0  0  0  0  0
   29.4077    7.7643   44.8791 O   0  0  0  0  0  0  0  0  0  0  0  0
   28.6987    8.7681   45.4246 C   0  0  0  0  0  0  0  0  0  0  0  0
   28.2220    9.9014   44.6293 C   0  0  0  0  0  0  0  0  0  0  0  0
   28.5373    8.5219   46.7461 C   0  0  0  0  0  0  0  0  0  0  0  0
 27 28  1  0  0  0
 28 29  2  0  0  0
 29 30  1  0  0  0
 30 31  1  0  0  0
 31 32  1  0  0  0
 31 33  2  0  0  0
 33 21  1  0  0  0
 21 22  2  0  0  0
 21 23  1  0  0  0
 23 24  1  0  0  0
 24 25  1  0  0  0
 25 19  1  0  0  0
 19  1  1  0  0  0
  1  2  2  0  0  0
  2  3  1  0  0  0
  3  4  2  0  0  0
  4  5  1  0  0  0
  5  7  1  0  0  0
  7  8  1  0  0  0
  8  9  1  0  0  0
  9 10  1  0  0  0
 10 11  2  0  0  0
 11 12  1  0  0  0
 12 13  1  0  0  0
 12 14  2  0  0  0
 14 15  1  0  0  0
 15 16  2  0  0  0
 16 17  1  0  0  0
 17 18  2  0  0  0
  5  6  2  0  0  0
 25 26  1  0  0  0
 33 28  1  0  0  0
 26 23  1  0  0  0
  6  1  1  0  0  0
 17  7  1  0  0  0
 16 10  1  0  0  0
 19 20  1  0  0  0
M  END
> <minimizedAffinity>
38.83064

> <CNNscore>
0.3499123752

> <CNNaffinity>
5.9592909813

> <CNN_VS>
2.0852296352

> <CNNaffinity_variance>
0.4264706075

$$$$
[H]c1nc([H])c(N([H])C2([H])C([H])([H])N(C(=O)c3c(C([H])([H])[H])noc3C([H])([H])[H])C2([H])[H])c([H])c1N1C(=O)c2c([H])c([H])c(Cl)c([H])c2C([H])([H])C1([H])[H]


 33 37  0  0  0  0  0  0  0  0999 V2000
   22.0399    5.7076   53.5484 C   0  0  0  0  0  0  0  0  0  0  0  0
   20.9208    4.9779   53.1209 C   0  0  0  0  0  0  0  0  0  0  0  0
   19.8395    5.6188   52.6519 N   0  0  0  0  0  0  0  0  0  0  0  0
   19.7919    6.9716   52.5763 C   0  0  0  0  0  0  0  0  0  0  0  0
   20.8552    7.7560   52.9785 C   0  0  0  0  0  0  0  0  0  0  0  0
   21.9762    7.0800   53.4653 C   0  0  0  0  0  0  0  0  0  0  0  0
   20.8196    9.1709   52.8913 N   0  0  0  0  0  0  0  0  0  0  0  0
   20.9859    9.9236   54.1151 C   0  0  0  0  0  0  0  0  0  0  0  0
   21.7230   11.2054   53.9235 C   0  0  0  0  0  0  0  0  0  0  0  0
   21.5482   11.7998   52.5837 C   0  0  0  0  0  0  0  0  0  0  0  0
   21.9457   13.1285   52.4500 C   0  0  0  0  0  0  0  0  0  0  0  0
   21.8170   13.7911   51.2247 C   0  0  0  0  0  0  0  0  0  0  0  0
   22.3155   15.4630   51.0405 Cl  0  0  0  0  0  0  0  0  0  0  0  0
   21.2926   13.1509   50.1115 C   0  0  0  0  0  0  0  0  0  0  0  0
   20.9074   11.8267   50.2833 C   0  0  0  0  0  0  0  0  0  0  0  0
   21.0372   11.1796   51.4915 C   0  0  0  0  0  0  0  0  0  0  0  0
   20.6351    9.7773   51.6133 C   0  0  0  0  0  0  0  0  0  0  0  0
   20.1581    9.1691   50.6296 O   0  0  0  0  0  0  0  0  0  0  0  0
   23.1620    4.9977   54.0279 N   0  0  0  0  0  0  0  0  0  0  0  0
   23.7142    4.4222   53.3470 H   0  0  0  0  0  0  0  0  0  0  0  0
   25.2101    8.0881   55.3493 C   0  0  0  0  0  0  0  0  0  0  0  0
   24.2507    9.0017   55.5269 O   0  0  0  0  0  0  0  0  0  0  0  0
   24.7165    6.8034   55.6072 N   0  0  0  0  0  0  0  0  0  0  0  0
   23.3283    6.4257   56.0508 C   0  0  0  0  0  0  0  0  0  0  0  0
   23.5200    5.0815   55.4316 C   0  0  0  0  0  0  0  0  0  0  0  0
   24.9987    5.4218   55.6392 C   0  0  0  0  0  0  0  0  0  0  0  0
   26.1036    8.2938   52.3921 C   0  0  0  0  0  0  0  0  0  0  0  0
   26.8754    8.6921   53.6035 C   0  0  0  0  0  0  0  0  0  0  0  0
   28.1063    9.2225   53.5761 N   0  0  0  0  0  0  0  0  0  0  0  0
   28.4884    9.4546   54.7608 O   0  0  0  0  0  0  0  0  0  0  0  0
   27.5350    9.0928   55.6371 C   0  0  0  0  0  0  0  0  0  0  0  0
   27.7099    9.2524   57.0822 C   0  0  0  0  0  0  0  0  0  0  0  0
   26.4773    8.5966   54.9529 C   0  0  0  0  0  0  0  0  0  0  0  0
 27 28  1  0  0  0
 28 29  2  0  0  0
 29 30  1  0  0  0
 30 31  1  0  0  0
 31 32  1  0  0  0
 31 33  2  0  0  0
 33 21  1  0  0  0
 21 22  2  0  0  0
 21 23  1  0  0  0
 23 24  1  0  0  0
 24 25  1  0  0  0
 25 19  1  0  0  0
 19  1  1  0  0  0
  1  2  2  0  0  0
  2  3  1  0  0  0
  3  4  2  0  0  0
  4  5  1  0  0  0
  5  7  1  0  0  0
  7  8  1  0  0  0
  8  9  1  0  0  0
  9 10  1  0  0  0
 10 11  2  0  0  0
 11 12  1  0  0  0
 12 13  1  0  0  0
 12 14  2  0  0  0
 14 15  1  0  0  0
 15 16  2  0  0  0
 16 17  1  0  0  0
 17 18  2  0  0  0
  5  6  2  0  0  0
 25 26  1  0  0  0
 33 28  1  0  0  0
 26 23  1  0  0  0
  6  1  1  0  0  0
 17  7  1  0  0  0
 16 10  1  0  0  0
 19 20  1  0  0  0
M  END
> <minimizedAffinity>
42.65070

> <CNNscore>
0.3415636122

> <CNNaffinity>
6.2949285507

> <CNN_VS>
2.1501185894

> <CNNaffinity_variance>
0.3619533479

$$$$
[H]c1c([H])c([H])c2c(nc(SC([H])([H])C(=O)N3C(=O)C([H])([H])C([H])([H])C3([H])[H])n2C([H])([H])[H])c1[H]


 20 22  0  0  0  0  0  0  0  0999 V2000
   23.2872    8.6560   55.6505 C   0  0  0  0  0  0  0  0  0  0  0  0
   24.3905    8.1020   54.8610 N   0  0  0  0  0  0  0  0  0  0  0  0
   24.3786    7.2468   53.8482 C   0  0  0  0  0  0  0  0  0  0  0  0
   25.6687    7.0912   53.4298 N   0  0  0  0  0  0  0  0  0  0  0  0
   26.4952    7.8451   54.1773 C   0  0  0  0  0  0  0  0  0  0  0  0
   27.8653    8.0333   54.1561 C   0  0  0  0  0  0  0  0  0  0  0  0
   28.4443    8.8828   55.0639 C   0  0  0  0  0  0  0  0  0  0  0  0
   27.6314    9.5338   55.9849 C   0  0  0  0  0  0  0  0  0  0  0  0
   26.2760    9.3454   56.0032 C   0  0  0  0  0  0  0  0  0  0  0  0
   25.6798    8.4842   55.0843 C   0  0  0  0  0  0  0  0  0  0  0  0
   23.0384    6.3825   53.1365 S   0  0  0  0  0  0  0  0  0  0  0  0
   21.4876    7.2095   53.0084 C   0  0  0  0  0  0  0  0  0  0  0  0
   21.3272    8.3102   52.0814 C   0  0  0  0  0  0  0  0  0  0  0  0
   21.0988    8.2035   50.8772 O   0  0  0  0  0  0  0  0  0  0  0  0
   21.4489    9.6419   52.6304 N   0  0  0  0  0  0  0  0  0  0  0  0
   21.7085    9.9549   54.0076 C   0  0  0  0  0  0  0  0  0  0  0  0
   21.3157   11.4296   54.1524 C   0  0  0  0  0  0  0  0  0  0  0  0
   21.6860   11.9871   52.8043 C   0  0  0  0  0  0  0  0  0  0  0  0
   21.3295   10.8675   51.8995 C   0  0  0  0  0  0  0  0  0  0  0  0
   20.9764   10.9238   50.6940 O   0  0  0  0  0  0  0  0  0  0  0  0
  1  2  1  0  0  0
  2  3  1  0  0  0
  3 11  1  0  0  0
 11 12  1  0  0  0
 12 13  1  0  0  0
 13 14  2  0  0  0
 13 15  1  0  0  0
 15 16  1  0  0  0
 16 17  1  0  0  0
 17 18  1  0  0  0
 18 19  1  0  0  0
 19 20  2  0  0  0
  3  4  2  0  0  0
  4  5  1  0  0  0
  5  6  2  0  0  0
  6  7  1  0  0  0
  7  8  2  0  0  0
  8  9  1  0  0  0
  9 10  2  0  0  0
 10  2  1  0  0  0
 19 15  1  0  0  0
 10  5  1  0  0  0
M  END
> <minimizedAffinity>
2.81097

> <CNNscore>
0.7689213157

> <CNNaffinity>
5.5860681534

> <CNN_VS>
4.2952470779

> <CNNaffinity_variance>
0.1595693976

$$$$
[H]c1c([H])c([H])c2c(nc(SC([H])([H])C(=O)N3C(=O)C([H])([H])C([H])([H])C3([H])[H])n2C([H])([H])[H])c1[H]


 20 22  0  0  0  0  0  0  0  0999 V2000
   24.1276    7.7186   53.3075 C   0  0  0  0  0  0  0  0  0  0  0  0
   24.7373    8.4709   54.4075 N   0  0  0  0  0  0  0  0  0  0  0  0
   24.1799    9.2071   55.3586 C   0  0  0  0  0  0  0  0  0  0  0  0
   25.1830    9.6549   56.1691 N   0  0  0  0  0  0  0  0  0  0  0  0
   26.3726    9.2043   55.7308 C   0  0  0  0  0  0  0  0  0  0  0  0
   27.6651    9.3746   56.1925 C   0  0  0  0  0  0  0  0  0  0  0  0
   28.7049    8.7815   55.5232 C   0  0  0  0  0  0  0  0  0  0  0  0
   28.4271    8.0216   54.3927 C   0  0  0  0  0  0  0  0  0  0  0  0
   27.1468    7.8549   53.9384 C   0  0  0  0  0  0  0  0  0  0  0  0
   26.0848    8.4540   54.6126 C   0  0  0  0  0  0  0  0  0  0  0  0
   22.5036    9.6345   55.5972 S   0  0  0  0  0  0  0  0  0  0  0  0
   21.7009   10.5863   54.3501 C   0  0  0  0  0  0  0  0  0  0  0  0
   21.3992    9.9908   53.0653 C   0  0  0  0  0  0  0  0  0  0  0  0
   21.4511   10.5676   51.9798 O   0  0  0  0  0  0  0  0  0  0  0  0
   21.0043    8.6002   53.0730 N   0  0  0  0  0  0  0  0  0  0  0  0
   20.8938    7.7719   54.2408 C   0  0  0  0  0  0  0  0  0  0  0  0
   20.8816    6.3372   53.7007 C   0  0  0  0  0  0  0  0  0  0  0  0
   20.1595    6.5009   52.3904 C   0  0  0  0  0  0  0  0  0  0  0  0
   20.6609    7.8166   51.9247 C   0  0  0  0  0  0  0  0  0  0  0  0
   20.7856    8.2275   50.7429 O   0  0  0  0  0  0  0  0  0  0  0  0
  1  2  1  0  0  0
  2  3  1  0  0  0
  3 11  1  0  0  0
 11 12  1  0  0  0
 12 13  1  0  0  0
 13 14  2  0  0  0
 13 15  1  0  0  0
 15 16  1  0  0  0
 16 17  1  0  0  0
 17 18  1  0  0  0
 18 19  1  0  0  0
 19 20  2  0  0  0
  3  4  2  0  0  0
  4  5  1  0  0  0
  5  6  2  0  0  0
  6  7  1  0  0  0
  7  8  2  0  0  0
  8  9  1  0  0  0
  9 10  2  0  0  0
 10  2  1  0  0  0
 19 15  1  0  0  0
 10  5  1  0  0  0
M  END
> <minimizedAffinity>
1.32702

> <CNNscore>
0.7531322837

> <CNNaffinity>
5.5885133743

> <CNN_VS>
4.2088899612

> <CNNaffinity_variance>
0.2267254889

$$$$
[H]c1c([H])c([H])c2c(nc(SC([H])([H])C(=O)N3C(=O)C([H])([H])C([H])([H])C3([H])[H])n2C([H])([H])[H])c1[H]


 20 22  0  0  0  0  0  0  0  0999 V2000
   26.5196   10.0900   57.4213 C   0  0  0  0  0  0  0  0  0  0  0  0
   25.9647    9.4313   56.2357 N   0  0  0  0  0  0  0  0  0  0  0  0
   24.7114    9.3298   55.8158 C   0  0  0  0  0  0  0  0  0  0  0  0
   24.7319    8.6577   54.6277 N   0  0  0  0  0  0  0  0  0  0  0  0
   25.9952    8.3333   54.2975 C   0  0  0  0  0  0  0  0  0  0  0  0
   26.5364    7.6623   53.2159 C   0  0  0  0  0  0  0  0  0  0  0  0
   27.8932    7.4743   53.1479 C   0  0  0  0  0  0  0  0  0  0  0  0
   28.6898    7.9667   54.1753 C   0  0  0  0  0  0  0  0  0  0  0  0
   28.1512    8.6303   55.2443 C   0  0  0  0  0  0  0  0  0  0  0  0
   26.7737    8.8257   55.3209 C   0  0  0  0  0  0  0  0  0  0  0  0
   23.2347    9.8664   56.5781 S   0  0  0  0  0  0  0  0  0  0  0  0
   21.7144    9.6030   55.7268 C   0  0  0  0  0  0  0  0  0  0  0  0
   21.5633   10.0495   54.3577 C   0  0  0  0  0  0  0  0  0  0  0  0
   21.6145   11.2182   53.9769 O   0  0  0  0  0  0  0  0  0  0  0  0
   21.3326    9.0248   53.3644 N   0  0  0  0  0  0  0  0  0  0  0  0
   21.2474    7.6154   53.6255 C   0  0  0  0  0  0  0  0  0  0  0  0
   21.4350    6.9537   52.2554 C   0  0  0  0  0  0  0  0  0  0  0  0
   20.7805    7.9478   51.3342 C   0  0  0  0  0  0  0  0  0  0  0  0
   21.1536    9.2396   51.9600 C   0  0  0  0  0  0  0  0  0  0  0  0
   21.3022   10.3583   51.4056 O   0  0  0  0  0  0  0  0  0  0  0  0
  1  2  1  0  0  0
  2  3  1  0  0  0
  3 11  1  0  0  0
 11 12  1  0  0  0
 12 13  1  0  0  0
 13 14  2  0  0  0
 13 15  1  0  0  0
 15 16  1  0  0  0
 16 17  1  0  0  0
 17 18  1  0  0  0
 18 19  1  0  0  0
 19 20  2  0  0  0
  3  4  2  0  0  0
  4  5  1  0  0  0
  5  6  2  0  0  0
  6  7  1  0  0  0
  7  8  2  0  0  0
  8  9  1  0  0  0
  9 10  2  0  0  0
 10  2  1  0  0  0
 19 15  1  0  0  0
 10  5  1  0  0  0
M  END
> <minimizedAffinity>
12.49317

> <CNNscore>
0.7515902519

> <CNNaffinity>
5.4768319130

> <CNN_VS>
4.1163334846

> <CNNaffinity_variance>
0.2928385735

$$$$
[H]c1c([H])c([H])c2c(nc(SC([H])([H])C(=O)N3C(=O)C([H])([H])C([H])([H])C3([H])[H])n2C([H])([H])[H])c1[H]


 20 22  0  0  0  0  0  0  0  0999 V2000
   24.2916    6.2933   52.5543 C   0  0  0  0  0  0  0  0  0  0  0  0
   24.3384    7.1401   53.7494 N   0  0  0  0  0  0  0  0  0  0  0  0
   23.4000    7.4187   54.6433 C   0  0  0  0  0  0  0  0  0  0  0  0
   23.9655    8.2198   55.5931 N   0  0  0  0  0  0  0  0  0  0  0  0
   25.2585    8.4488   55.2999 C   0  0  0  0  0  0  0  0  0  0  0  0
   26.2454    9.1827   55.9328 C   0  0  0  0  0  0  0  0  0  0  0  0
   27.5021    9.2366   55.3863 C   0  0  0  0  0  0  0  0  0  0  0  0
   27.7485    8.5477   54.2042 C   0  0  0  0  0  0  0  0  0  0  0  0
   26.7698    7.8223   53.5804 C   0  0  0  0  0  0  0  0  0  0  0  0
   25.4904    7.7622   54.1291 C   0  0  0  0  0  0  0  0  0  0  0  0
   21.7176    6.9514   54.6740 S   0  0  0  0  0  0  0  0  0  0  0  0
   20.8303    6.9327   53.1516 C   0  0  0  0  0  0  0  0  0  0  0  0
   20.9061    8.0667   52.2543 C   0  0  0  0  0  0  0  0  0  0  0  0
   20.7232    8.0297   51.0382 O   0  0  0  0  0  0  0  0  0  0  0  0
   21.2250    9.3442   52.8509 N   0  0  0  0  0  0  0  0  0  0  0  0
   21.4651    9.5747   54.2478 C   0  0  0  0  0  0  0  0  0  0  0  0
   21.3222   11.0910   54.4223 C   0  0  0  0  0  0  0  0  0  0  0  0
   21.8488   11.6091   53.1110 C   0  0  0  0  0  0  0  0  0  0  0  0
   21.3526   10.5893   52.1553 C   0  0  0  0  0  0  0  0  0  0  0  0
   21.0748   10.7344   50.9376 O   0  0  0  0  0  0  0  0  0  0  0  0
  1  2  1  0  0  0
  2  3  1  0  0  0
  3 11  1  0  0  0
 11 12  1  0  0  0
 12 13  1  0  0  0
 13 14  2  0  0  0
 13 15  1  0  0  0
 15 16  1  0  0  0
 16 17  1  0  0  0
 17 18  1  0  0  0
 18 19  1  0  0  0
 19 20  2  0  0  0
  3  4  2  0  0  0
  4  5  1  0  0  0
  5  6  2  0  0  0
  6  7  1  0  0  0
  7  8  2  0  0  0
  8  9  1  0  0  0
  9 10  2  0  0  0
 10  2  1  0  0  0
 19 15  1  0  0  0
 10  5  1  0  0  0
M  END
> <minimizedAffinity>
2.21529

> <CNNscore>
0.7141888142

> <CNNaffinity>
5.6186370850

> <CNN_VS>
4.0127677917

> <CNNaffinity_variance>
0.1467748582

$$$$
[H]c1c([H])c([H])c2c(nc(SC([H])([H])C(=O)N3C(=O)C([H])([H])C([H])([H])C3([H])[H])n2C([H])([H])[H])c1[H]


 20 22  0  0  0  0  0  0  0  0999 V2000
   24.3929   10.1546   57.2193 C   0  0  0  0  0  0  0  0  0  0  0  0
   24.4622    9.6179   55.8574 N   0  0  0  0  0  0  0  0  0  0  0  0
   23.5275    9.5216   54.9224 C   0  0  0  0  0  0  0  0  0  0  0  0
   24.1155    8.9919   53.8100 N   0  0  0  0  0  0  0  0  0  0  0  0
   25.4191    8.7522   54.0413 C   0  0  0  0  0  0  0  0  0  0  0  0
   26.4283    8.2297   53.2530 C   0  0  0  0  0  0  0  0  0  0  0  0
   27.6910    8.0983   53.7719 C   0  0  0  0  0  0  0  0  0  0  0  0
   27.9207    8.4968   55.0838 C   0  0  0  0  0  0  0  0  0  0  0  0
   26.9199    9.0135   55.8613 C   0  0  0  0  0  0  0  0  0  0  0  0
   25.6343    9.1504   55.3417 C   0  0  0  0  0  0  0  0  0  0  0  0
   21.8279    9.9147   55.0024 S   0  0  0  0  0  0  0  0  0  0  0  0
   20.7210    9.0455   53.9419 C   0  0  0  0  0  0  0  0  0  0  0  0
   21.2348    8.0845   52.9885 C   0  0  0  0  0  0  0  0  0  0  0  0
   21.0398    8.1077   51.7739 O   0  0  0  0  0  0  0  0  0  0  0  0
   22.0434    7.0117   53.5224 N   0  0  0  0  0  0  0  0  0  0  0  0
   22.3768    6.8294   54.9071 C   0  0  0  0  0  0  0  0  0  0  0  0
   23.5630    5.8583   54.8974 C   0  0  0  0  0  0  0  0  0  0  0  0
   23.2442    4.9849   53.7139 C   0  0  0  0  0  0  0  0  0  0  0  0
   22.6475    5.9567   52.7657 C   0  0  0  0  0  0  0  0  0  0  0  0
   22.6424    5.9145   51.5091 O   0  0  0  0  0  0  0  0  0  0  0  0
  1  2  1  0  0  0
  2  3  1  0  0  0
  3 11  1  0  0  0
 11 12  1  0  0  0
 12 13  1  0  0  0
 13 14  2  0  0  0
 13 15  1  0  0  0
 15 16  1  0  0  0
 16 17  1  0  0  0
 17 18  1  0  0  0
 18 19  1  0  0  0
 19 20  2  0  0  0
  3  4  2  0  0  0
  4  5  1  0  0  0
  5  6  2  0  0  0
  6  7  1  0  0  0
  7  8  2  0  0  0
  8  9  1  0  0  0
  9 10  2  0  0  0
 10  2  1  0  0  0
 19 15  1  0  0  0
 10  5  1  0  0  0
M  END
> <minimizedAffinity>
14.78177

> <CNNscore>
0.6913521290

> <CNNaffinity>
5.3575863838

> <CNN_VS>
3.7039787769

> <CNNaffinity_variance>
0.2752791345

$$$$
[H]c1c([H])c([H])c2c(nc(SC([H])([H])C(=O)N3C(=O)C([H])([H])C([H])([H])C3([H])[H])n2C([H])([H])[H])c1[H]


 20 22  0  0  0  0  0  0  0  0999 V2000
   23.9816    9.3197   55.8246 C   0  0  0  0  0  0  0  0  0  0  0  0
   25.1803    8.8490   55.1252 N   0  0  0  0  0  0  0  0  0  0  0  0
   25.3196    8.3220   53.9168 C   0  0  0  0  0  0  0  0  0  0  0  0
   26.6518    8.0976   53.7201 N   0  0  0  0  0  0  0  0  0  0  0  0
   27.3536    8.4804   54.8024 C   0  0  0  0  0  0  0  0  0  0  0  0
   28.7049    8.4595   55.0963 C   0  0  0  0  0  0  0  0  0  0  0  0
   29.1390    8.9253   56.3110 C   0  0  0  0  0  0  0  0  0  0  0  0
   28.2015    9.4078   57.2171 C   0  0  0  0  0  0  0  0  0  0  0  0
   26.8650    9.4272   56.9232 C   0  0  0  0  0  0  0  0  0  0  0  0
   26.4157    8.9559   55.6913 C   0  0  0  0  0  0  0  0  0  0  0  0
   24.1015    7.9015   52.7382 S   0  0  0  0  0  0  0  0  0  0  0  0
   22.8734    9.1025   52.3447 C   0  0  0  0  0  0  0  0  0  0  0  0
   21.5087    8.6886   52.0938 C   0  0  0  0  0  0  0  0  0  0  0  0
   20.7006    9.2831   51.3815 O   0  0  0  0  0  0  0  0  0  0  0  0
   21.0714    7.4726   52.7418 N   0  0  0  0  0  0  0  0  0  0  0  0
   21.8764    6.6504   53.6008 C   0  0  0  0  0  0  0  0  0  0  0  0
   21.1333    5.3111   53.6659 C   0  0  0  0  0  0  0  0  0  0  0  0
   19.6947    5.7457   53.5839 C   0  0  0  0  0  0  0  0  0  0  0  0
   19.7704    6.8838   52.6360 C   0  0  0  0  0  0  0  0  0  0  0  0
   18.8814    7.3037   51.8522 O   0  0  0  0  0  0  0  0  0  0  0  0
  1  2  1  0  0  0
  2  3  1  0  0  0
  3 11  1  0  0  0
 11 12  1  0  0  0
 12 13  1  0  0  0
 13 14  2  0  0  0
 13 15  1  0  0  0
 15 16  1  0  0  0
 16 17  1  0  0  0
 17 18  1  0  0  0
 18 19  1  0  0  0
 19 20  2  0  0  0
  3  4  2  0  0  0
  4  5  1  0  0  0
  5  6  2  0  0  0
  6  7  1  0  0  0
  7  8  2  0  0  0
  8  9  1  0  0  0
  9 10  2  0  0  0
 10  2  1  0  0  0
 19 15  1  0  0  0
 10  5  1  0  0  0
M  END
> <minimizedAffinity>
12.75128

> <CNNscore>
0.6309419274

> <CNNaffinity>
5.3365888596

> <CNN_VS>
3.3670775890

> <CNNaffinity_variance>
0.1878572106

$$$$
[H]c1c([H])c([H])c2c(nc(SC([H])([H])C(=O)N3C(=O)C([H])([H])C([H])([H])C3([H])[H])n2C([H])([H])[H])c1[H]


 20 22  0  0  0  0  0  0  0  0999 V2000
   21.1762    7.6919   51.6008 C   0  0  0  0  0  0  0  0  0  0  0  0
   21.4653    8.7853   52.5326 N   0  0  0  0  0  0  0  0  0  0  0  0
   21.8578    8.7554   53.7985 C   0  0  0  0  0  0  0  0  0  0  0  0
   22.0360   10.0474   54.2016 N   0  0  0  0  0  0  0  0  0  0  0  0
   21.7554   10.8930   53.1933 C   0  0  0  0  0  0  0  0  0  0  0  0
   21.7791   12.2725   53.0955 C   0  0  0  0  0  0  0  0  0  0  0  0
   21.4324   12.8715   51.9115 C   0  0  0  0  0  0  0  0  0  0  0  0
   21.0647   12.0690   50.8375 C   0  0  0  0  0  0  0  0  0  0  0  0
   21.0423   10.7042   50.9375 C   0  0  0  0  0  0  0  0  0  0  0  0
   21.3933   10.0877   52.1368 C   0  0  0  0  0  0  0  0  0  0  0  0
   22.0846    7.3888   54.8618 S   0  0  0  0  0  0  0  0  0  0  0  0
   23.6911    6.6718   54.9657 C   0  0  0  0  0  0  0  0  0  0  0  0
   24.7348    7.0967   54.0565 C   0  0  0  0  0  0  0  0  0  0  0  0
   24.7767    6.8521   52.8515 O   0  0  0  0  0  0  0  0  0  0  0  0
   25.8132    7.8728   54.6261 N   0  0  0  0  0  0  0  0  0  0  0  0
   25.9265    8.2547   56.0057 C   0  0  0  0  0  0  0  0  0  0  0  0
   26.9569    9.3898   56.0120 C   0  0  0  0  0  0  0  0  0  0  0  0
   27.8842    8.9784   54.9002 C   0  0  0  0  0  0  0  0  0  0  0  0
   26.9432    8.3913   53.9157 C   0  0  0  0  0  0  0  0  0  0  0  0
   27.0628    8.3312   52.6655 O   0  0  0  0  0  0  0  0  0  0  0  0
  1  2  1  0  0  0
  2  3  1  0  0  0
  3 11  1  0  0  0
 11 12  1  0  0  0
 12 13  1  0  0  0
 13 14  2  0  0  0
 13 15  1  0  0  0
 15 16  1  0  0  0
 16 17  1  0  0  0
 17 18  1  0  0  0
 18 19  1  0  0  0
 19 20  2  0  0  0
  3  4  2  0  0  0
  4  5  1  0  0  0
  5  6  2  0  0  0
  6  7  1  0  0  0
  7  8  2  0  0  0
  8  9  1  0  0  0
  9 10  2  0  0  0
 10  2  1  0  0  0
 19 15  1  0  0  0
 10  5  1  0  0  0
M  END
> <minimizedAffinity>
7.59133

> <CNNscore>
0.5977733731

> <CNNaffinity>
5.1035370827

> <CNN_VS>
3.0507586002

> <CNNaffinity_variance>
0.1163491756

$$$$
[H]c1c([H])c([H])c2c(nc(SC([H])([H])C(=O)N3C(=O)C([H])([H])C([H])([H])C3([H])[H])n2C([H])([H])[H])c1[H]


 20 22  0  0  0  0  0  0  0  0999 V2000
   23.3666    7.4254   55.4809 C   0  0  0  0  0  0  0  0  0  0  0  0
   24.4740    7.5817   54.5340 N   0  0  0  0  0  0  0  0  0  0  0  0
   24.5573    7.2679   53.2487 C   0  0  0  0  0  0  0  0  0  0  0  0
   25.7887    7.6624   52.8109 N   0  0  0  0  0  0  0  0  0  0  0  0
   26.4836    8.2231   53.8174 C   0  0  0  0  0  0  0  0  0  0  0  0
   27.7526    8.7685   53.8878 C   0  0  0  0  0  0  0  0  0  0  0  0
   28.2042    9.2765   55.0790 C   0  0  0  0  0  0  0  0  0  0  0  0
   27.3674    9.2276   56.1880 C   0  0  0  0  0  0  0  0  0  0  0  0
   26.1121    8.6872   56.1151 C   0  0  0  0  0  0  0  0  0  0  0  0
   25.6456    8.1692   54.9087 C   0  0  0  0  0  0  0  0  0  0  0  0
   23.3997    6.4565   52.2234 S   0  0  0  0  0  0  0  0  0  0  0  0
   21.8300    7.2177   51.9743 C   0  0  0  0  0  0  0  0  0  0  0  0
   21.0213    7.6009   53.1126 C   0  0  0  0  0  0  0  0  0  0  0  0
   20.1168    6.9286   53.6060 O   0  0  0  0  0  0  0  0  0  0  0  0
   21.3114    8.8850   53.7100 N   0  0  0  0  0  0  0  0  0  0  0  0
   22.3298    9.7971   53.2710 C   0  0  0  0  0  0  0  0  0  0  0  0
   22.5238   10.7599   54.4481 C   0  0  0  0  0  0  0  0  0  0  0  0
   21.1322   10.8477   55.0147 C   0  0  0  0  0  0  0  0  0  0  0  0
   20.6386    9.4608   54.8353 C   0  0  0  0  0  0  0  0  0  0  0  0
   19.7821    8.8453   55.5199 O   0  0  0  0  0  0  0  0  0  0  0  0
  1  2  1  0  0  0
  2  3  1  0  0  0
  3 11  1  0  0  0
 11 12  1  0  0  0
 12 13  1  0  0  0
 13 14  2  0  0  0
 13 15  1  0  0  0
 15 16  1  0  0  0
 16 17  1  0  0  0
 17 18  1  0  0  0
 18 19  1  0  0  0
 19 20  2  0  0  0
  3  4  2  0  0  0
  4  5  1  0  0  0
  5  6  2  0  0  0
  6  7  1  0  0  0
  7  8  2  0  0  0
  8  9  1  0  0  0
  9 10  2  0  0  0
 10  2  1  0  0  0
 19 15  1  0  0  0
 10  5  1  0  0  0
M  END
> <minimizedAffinity>
7.69546

> <CNNscore>
0.5909534097

> <CNNaffinity>
5.3500075340

> <CNN_VS>
3.1616051197

> <CNNaffinity_variance>
0.1204286218

$$$$
[H]c1c([H])c([H])c2c(nc(SC([H])([H])C(=O)N3C(=O)C([H])([H])C([H])([H])C3([H])[H])n2C([H])([H])[H])c1[H]


 20 22  0  0  0  0  0  0  0  0999 V2000
   23.1498    8.5238   55.7877 C   0  0  0  0  0  0  0  0  0  0  0  0
   24.1957    8.0615   54.8713 N   0  0  0  0  0  0  0  0  0  0  0  0
   24.1145    7.3087   53.7832 C   0  0  0  0  0  0  0  0  0  0  0  0
   25.3718    7.2087   53.2608 N   0  0  0  0  0  0  0  0  0  0  0  0
   26.2469    7.8954   54.0178 C   0  0  0  0  0  0  0  0  0  0  0  0
   27.6111    8.0999   53.9177 C   0  0  0  0  0  0  0  0  0  0  0  0
   28.2504    8.8634   54.8608 C   0  0  0  0  0  0  0  0  0  0  0  0
   27.5033    9.4127   55.8965 C   0  0  0  0  0  0  0  0  0  0  0  0
   26.1534    9.2085   55.9927 C   0  0  0  0  0  0  0  0  0  0  0  0
   25.4962    8.4342   55.0386 C   0  0  0  0  0  0  0  0  0  0  0  0
   22.7301    6.5030   53.0875 S   0  0  0  0  0  0  0  0  0  0  0  0
   21.1351    7.1997   53.3635 C   0  0  0  0  0  0  0  0  0  0  0  0
   20.9945    8.3897   54.1763 C   0  0  0  0  0  0  0  0  0  0  0  0
   20.7191    8.4083   55.3753 O   0  0  0  0  0  0  0  0  0  0  0  0
   21.1969    9.6565   53.5100 N   0  0  0  0  0  0  0  0  0  0  0  0
   21.5271    9.8248   52.1228 C   0  0  0  0  0  0  0  0  0  0  0  0
   22.0508   11.2619   52.0188 C   0  0  0  0  0  0  0  0  0  0  0  0
   21.2184   11.9748   53.0503 C   0  0  0  0  0  0  0  0  0  0  0  0
   21.1054   10.9503   54.1167 C   0  0  0  0  0  0  0  0  0  0  0  0
   20.9555   11.1272   55.3525 O   0  0  0  0  0  0  0  0  0  0  0  0
  1  2  1  0  0  0
  2  3  1  0  0  0
  3 11  1  0  0  0
 11 12  1  0  0  0
 12 13  1  0  0  0
 13 14  2  0  0  0
 13 15  1  0  0  0
 15 16  1  0  0  0
 16 17  1  0  0  0
 17 18  1  0  0  0
 18 19  1  0  0  0
 19 20  2  0  0  0
  3  4  2  0  0  0
  4  5  1  0  0  0
  5  6  2  0  0  0
  6  7  1  0  0  0
  7  8  2  0  0  0
  8  9  1  0  0  0
  9 10  2  0  0  0
 10  2  1  0  0  0
 19 15  1  0  0  0
 10  5  1  0  0  0
M  END
> <minimizedAffinity>
3.26432

> <CNNscore>
0.5908622742

> <CNNaffinity>
5.3379850388

> <CNN_VS>
3.1540138721

> <CNNaffinity_variance>
0.1580838561

$$$$
[H]c1c(C([H])([H])[H])c([H])c2c(c1C(F)(F)F)C(=O)N1C([H])([H])C([H])([H])N([H])C([H])([H])[C@@]21[H]


 20 22  0  0  0  0  0  0  0  0999 V2000
   28.6155    6.9774   53.1733 C   0  0  0  0  0  0  0  0  0  0  0  0
   27.5120    7.6375   53.9204 C   0  0  0  0  0  0  0  0  0  0  0  0
   26.2274    7.4091   53.4791 C   0  0  0  0  0  0  0  0  0  0  0  0
   25.1690    7.9890   54.1255 C   0  0  0  0  0  0  0  0  0  0  0  0
   25.4122    8.8113   55.2319 C   0  0  0  0  0  0  0  0  0  0  0  0
   26.6790    9.0552   55.6928 C   0  0  0  0  0  0  0  0  0  0  0  0
   27.7329    8.4532   55.0175 C   0  0  0  0  0  0  0  0  0  0  0  0
   24.0898    9.2797   55.6482 C   0  0  0  0  0  0  0  0  0  0  0  0
   23.8852   10.0398   56.6112 O   0  0  0  0  0  0  0  0  0  0  0  0
   23.0934    8.7558   54.8154 N   0  0  0  0  0  0  0  0  0  0  0  0
   21.6648    8.9135   54.7092 C   0  0  0  0  0  0  0  0  0  0  0  0
   21.2651    9.1953   53.2623 C   0  0  0  0  0  0  0  0  0  0  0  0
   21.8488    8.1971   52.4251 N   0  0  0  0  0  0  0  0  0  0  0  0
   23.3017    8.1658   52.4601 C   0  0  0  0  0  0  0  0  0  0  0  0
   23.7307    7.8758   53.8631 C   0  0  0  0  0  0  0  0  0  0  0  0
   21.5438    8.2478   51.4352 H   0  0  0  0  0  0  0  0  0  0  0  0
   26.9083    9.9207   56.8699 C   0  0  0  0  0  0  0  0  0  0  0  0
   26.2000   11.0818   56.8750 F   0  0  0  0  0  0  0  0  0  0  0  0
   28.2817   10.1504   57.0363 F   0  0  0  0  0  0  0  0  0  0  0  0
   26.5362    9.2289   58.0326 F   0  0  0  0  0  0  0  0  0  0  0  0
  1  2  1  0  0  0
  2  3  2  0  0  0
  3  4  1  0  0  0
  4  5  2  0  0  0
  5  6  1  0  0  0
  6 17  1  0  0  0
 17 18  1  0  0  0
 17 19  1  0  0  0
 17 20  1  0  0  0
  6  7  2  0  0  0
  5  8  1  0  0  0
  8  9  2  0  0  0
  8 10  1  0  0  0
 10 11  1  0  0  0
 11 12  1  0  0  0
 12 13  1  0  0  0
 13 14  1  0  0  0
 14 15  1  0  0  0
  7  2  1  0  0  0
 15 10  1  0  0  0
 15  4  1  0  0  0
 13 16  1  0  0  0
M  END
> <minimizedAffinity>
13.31802

> <CNNscore>
0.5971302390

> <CNNaffinity>
5.3044633865

> <CNN_VS>
3.1674554348

> <CNNaffinity_variance>
0.1657011509

$$$$
[H]c1c(C([H])([H])[H])c([H])c2c(c1C(F)(F)F)C(=O)N1C([H])([H])C([H])([H])N([H])C([H])([H])[C@@]21[H]


 20 22  0  0  0  0  0  0  0  0999 V2000
   27.4238    7.2744   53.5451 C   0  0  0  0  0  0  0  0  0  0  0  0
   26.0766    7.7694   53.9342 C   0  0  0  0  0  0  0  0  0  0  0  0
   24.9946    7.2475   53.2604 C   0  0  0  0  0  0  0  0  0  0  0  0
   23.7284    7.6637   53.5732 C   0  0  0  0  0  0  0  0  0  0  0  0
   23.5535    8.6206   54.5796 C   0  0  0  0  0  0  0  0  0  0  0  0
   24.6111    9.1560   55.2664 C   0  0  0  0  0  0  0  0  0  0  0  0
   25.8837    8.7146   54.9278 C   0  0  0  0  0  0  0  0  0  0  0  0
   22.1096    8.8532   54.6284 C   0  0  0  0  0  0  0  0  0  0  0  0
   21.5520    9.6462   55.4076 O   0  0  0  0  0  0  0  0  0  0  0  0
   21.4478    8.0629   53.6804 N   0  0  0  0  0  0  0  0  0  0  0  0
   20.0814    7.9210   53.2449 C   0  0  0  0  0  0  0  0  0  0  0  0
   19.9985    7.9765   51.7208 C   0  0  0  0  0  0  0  0  0  0  0  0
   20.9291    7.0392   51.1790 N   0  0  0  0  0  0  0  0  0  0  0  0
   22.3141    7.3024   51.5334 C   0  0  0  0  0  0  0  0  0  0  0  0
   22.4369    7.2405   53.0225 C   0  0  0  0  0  0  0  0  0  0  0  0
   20.8667    6.9323   50.1493 H   0  0  0  0  0  0  0  0  0  0  0  0
   24.3984   10.1592   56.3321 C   0  0  0  0  0  0  0  0  0  0  0  0
   23.6125    9.7445   57.3618 F   0  0  0  0  0  0  0  0  0  0  0  0
   23.9331   11.3593   55.7755 F   0  0  0  0  0  0  0  0  0  0  0  0
   25.6358   10.5038   56.8970 F   0  0  0  0  0  0  0  0  0  0  0  0
  1  2  1  0  0  0
  2  3  2  0  0  0
  3  4  1  0  0  0
  4  5  2  0  0  0
  5  6  1  0  0  0
  6 17  1  0  0  0
 17 18  1  0  0  0
 17 19  1  0  0  0
 17 20  1  0  0  0
  6  7  2  0  0  0
  5  8  1  0  0  0
  8  9  2  0  0  0
  8 10  1  0  0  0
 10 11  1  0  0  0
 11 12  1  0  0  0
 12 13  1  0  0  0
 13 14  1  0  0  0
 14 15  1  0  0  0
  7  2  1  0  0  0
 15 10  1  0  0  0
 15  4  1  0  0  0
 13 16  1  0  0  0
M  END
> <minimizedAffinity>
14.94573

> <CNNscore>
0.5599904060

> <CNNaffinity>
5.2020807266

> <CNN_VS>
2.9131152630

> <CNNaffinity_variance>
0.4074608386

$$$$
[H]c1c(C([H])([H])[H])c([H])c2c(c1C(F)(F)F)C(=O)N1C([H])([H])C([H])([H])N([H])C([H])([H])[C@@]21[H]


 20 22  0  0  0  0  0  0  0  0999 V2000
   23.6803    4.3193   56.3926 C   0  0  0  0  0  0  0  0  0  0  0  0
   23.7075    5.5068   55.4978 C   0  0  0  0  0  0  0  0  0  0  0  0
   22.5182    5.8829   54.9137 C   0  0  0  0  0  0  0  0  0  0  0  0
   22.4789    6.9680   54.0797 C   0  0  0  0  0  0  0  0  0  0  0  0
   23.6573    7.6817   53.8322 C   0  0  0  0  0  0  0  0  0  0  0  0
   24.8536    7.3306   54.4000 C   0  0  0  0  0  0  0  0  0  0  0  0
   24.8629    6.2259   55.2417 C   0  0  0  0  0  0  0  0  0  0  0  0
   23.2675    8.7340   52.8930 C   0  0  0  0  0  0  0  0  0  0  0  0
   24.0464    9.5863   52.4305 O   0  0  0  0  0  0  0  0  0  0  0  0
   21.9031    8.6474   52.5898 N   0  0  0  0  0  0  0  0  0  0  0  0
   21.0067    9.3521   51.7084 C   0  0  0  0  0  0  0  0  0  0  0  0
   20.1865    8.3649   50.8805 C   0  0  0  0  0  0  0  0  0  0  0  0
   19.5820    7.4205   51.7643 N   0  0  0  0  0  0  0  0  0  0  0  0
   20.5310    6.6342   52.5351 C   0  0  0  0  0  0  0  0  0  0  0  0
   21.3438    7.5694   53.3724 C   0  0  0  0  0  0  0  0  0  0  0  0
   18.9192    6.7732   51.2981 H   0  0  0  0  0  0  0  0  0  0  0  0
   26.0828    8.1072   54.1294 C   0  0  0  0  0  0  0  0  0  0  0  0
   26.1440    8.6722   52.8937 F   0  0  0  0  0  0  0  0  0  0  0  0
   27.2143    7.3235   54.3977 F   0  0  0  0  0  0  0  0  0  0  0  0
   26.1750    9.1632   55.0488 F   0  0  0  0  0  0  0  0  0  0  0  0
  1  2  1  0  0  0
  2  3  2  0  0  0
  3  4  1  0  0  0
  4  5  2  0  0  0
  5  6  1  0  0  0
  6 17  1  0  0  0
 17 18  1  0  0  0
 17 19  1  0  0  0
 17 20  1  0  0  0
  6  7  2  0  0  0
  5  8  1  0  0  0
  8  9  2  0  0  0
  8 10  1  0  0  0
 10 11  1  0  0  0
 11 12  1  0  0  0
 12 13  1  0  0  0
 13 14  1  0  0  0
 14 15  1  0  0  0
  7  2  1  0  0  0
 15 10  1  0  0  0
 15  4  1  0  0  0
 13 16  1  0  0  0
M  END
> <minimizedAffinity>
12.80896

> <CNNscore>
0.5594447255

> <CNNaffinity>
5.3036527634

> <CNN_VS>
2.9671006203

> <CNNaffinity_variance>
0.4989354014

$$$$
[H]c1c(C([H])([H])[H])c([H])c2c(c1C(F)(F)F)C(=O)N1C([H])([H])C([H])([H])N([H])C([H])([H])[C@@]21[H]


 20 22  0  0  0  0  0  0  0  0999 V2000
   24.4624    4.6818   52.2420 C   0  0  0  0  0  0  0  0  0  0  0  0
   24.5304    5.9193   53.0640 C   0  0  0  0  0  0  0  0  0  0  0  0
   23.3383    6.4451   53.5109 C   0  0  0  0  0  0  0  0  0  0  0  0
   23.3354    7.5833   54.2719 C   0  0  0  0  0  0  0  0  0  0  0  0
   24.5532    8.1985   54.5846 C   0  0  0  0  0  0  0  0  0  0  0  0
   25.7534    7.6971   54.1543 C   0  0  0  0  0  0  0  0  0  0  0  0
   25.7254    6.5415   53.3845 C   0  0  0  0  0  0  0  0  0  0  0  0
   24.1861    9.3809   55.3646 C   0  0  0  0  0  0  0  0  0  0  0  0
   25.0021   10.1943   55.8329 O   0  0  0  0  0  0  0  0  0  0  0  0
   22.7958    9.4677   55.5087 N   0  0  0  0  0  0  0  0  0  0  0  0
   21.8885   10.4173   56.1019 C   0  0  0  0  0  0  0  0  0  0  0  0
   20.7619   10.7588   55.1288 C   0  0  0  0  0  0  0  0  0  0  0  0
   20.1783    9.5424   54.6620 N   0  0  0  0  0  0  0  0  0  0  0  0
   21.1006    8.6750   53.9478 C   0  0  0  0  0  0  0  0  0  0  0  0
   22.2126    8.3064   54.8773 C   0  0  0  0  0  0  0  0  0  0  0  0
   19.3335    9.6793   54.0760 H   0  0  0  0  0  0  0  0  0  0  0  0
   27.0270    8.3612   54.5065 C   0  0  0  0  0  0  0  0  0  0  0  0
   27.0524    8.9369   55.7385 F   0  0  0  0  0  0  0  0  0  0  0  0
   27.3878    9.2706   53.5018 F   0  0  0  0  0  0  0  0  0  0  0  0
   28.0619    7.4136   54.4948 F   0  0  0  0  0  0  0  0  0  0  0  0
  1  2  1  0  0  0
  2  3  2  0  0  0
  3  4  1  0  0  0
  4  5  2  0  0  0
  5  6  1  0  0  0
  6 17  1  0  0  0
 17 18  1  0  0  0
 17 19  1  0  0  0
 17 20  1  0  0  0
  6  7  2  0  0  0
  5  8  1  0  0  0
  8  9  2  0  0  0
  8 10  1  0  0  0
 10 11  1  0  0  0
 11 12  1  0  0  0
 12 13  1  0  0  0
 13 14  1  0  0  0
 14 15  1  0  0  0
  7  2  1  0  0  0
 15 10  1  0  0  0
 15  4  1  0  0  0
 13 16  1  0  0  0
M  END
> <minimizedAffinity>
11.55433

> <CNNscore>
0.5540658236

> <CNNaffinity>
5.2307648659

> <CNN_VS>
2.8981881142

> <CNNaffinity_variance>
0.1719888747

$$$$
[H]c1c(C([H])([H])[H])c([H])c2c(c1C(F)(F)F)C(=O)N1C([H])([H])C([H])([H])N([H])C([H])([H])[C@@]21[H]


 20 22  0  0  0  0  0  0  0  0999 V2000
   21.3864   11.3696   54.9579 C   0  0  0  0  0  0  0  0  0  0  0  0
   21.8886   10.0168   54.5981 C   0  0  0  0  0  0  0  0  0  0  0  0
   20.9635    9.0997   54.1509 C   0  0  0  0  0  0  0  0  0  0  0  0
   21.3644    7.8373   53.8045 C   0  0  0  0  0  0  0  0  0  0  0  0
   22.7179    7.4972   53.9122 C   0  0  0  0  0  0  0  0  0  0  0  0
   23.6595    8.3893   54.3531 C   0  0  0  0  0  0  0  0  0  0  0  0
   23.2237    9.6623   54.6971 C   0  0  0  0  0  0  0  0  0  0  0  0
   22.7854    6.0943   53.5015 C   0  0  0  0  0  0  0  0  0  0  0  0
   23.8324    5.4242   53.4605 O   0  0  0  0  0  0  0  0  0  0  0  0
   21.5138    5.6150   53.1633 N   0  0  0  0  0  0  0  0  0  0  0  0
   20.9774    4.3388   52.7625 C   0  0  0  0  0  0  0  0  0  0  0  0
   19.7418    3.9950   53.5918 C   0  0  0  0  0  0  0  0  0  0  0  0
   18.8371    5.0983   53.5412 N   0  0  0  0  0  0  0  0  0  0  0  0
   19.3753    6.3349   54.0837 C   0  0  0  0  0  0  0  0  0  0  0  0
   20.5814    6.7120   53.2839 C   0  0  0  0  0  0  0  0  0  0  0  0
   17.9213    4.9119   53.9909 H   0  0  0  0  0  0  0  0  0  0  0  0
   25.0851    8.0076   54.4490 C   0  0  0  0  0  0  0  0  0  0  0  0
   25.7278    8.4636   55.5575 F   0  0  0  0  0  0  0  0  0  0  0  0
   25.7588    8.3694   53.2735 F   0  0  0  0  0  0  0  0  0  0  0  0
   25.1885    6.6086   54.4830 F   0  0  0  0  0  0  0  0  0  0  0  0
  1  2  1  0  0  0
  2  3  2  0  0  0
  3  4  1  0  0  0
  4  5  2  0  0  0
  5  6  1  0  0  0
  6 17  1  0  0  0
 17 18  1  0  0  0
 17 19  1  0  0  0
 17 20  1  0  0  0
  6  7  2  0  0  0
  5  8  1  0  0  0
  8  9  2  0  0  0
  8 10  1  0  0  0
 10 11  1  0  0  0
 11 12  1  0  0  0
 12 13  1  0  0  0
 13 14  1  0  0  0
 14 15  1  0  0  0
  7  2  1  0  0  0
 15 10  1  0  0  0
 15  4  1  0  0  0
 13 16  1  0  0  0
M  END
> <minimizedAffinity>
10.89205

> <CNNscore>
0.5237352848

> <CNNaffinity>
5.3556222916

> <CNN_VS>
2.8049283028

> <CNNaffinity_variance>
0.4813143313

$$$$
[H]c1c(C([H])([H])[H])c([H])c2c(c1C(F)(F)F)C(=O)N1C([H])([H])C([H])([H])N([H])C([H])([H])[C@@]21[H]


 20 22  0  0  0  0  0  0  0  0999 V2000
   27.7366    8.5024   54.8034 C   0  0  0  0  0  0  0  0  0  0  0  0
   26.3337    8.1685   54.4399 C   0  0  0  0  0  0  0  0  0  0  0  0
   25.3674    9.1059   54.7307 C   0  0  0  0  0  0  0  0  0  0  0  0
   24.0574    8.8565   54.4204 C   0  0  0  0  0  0  0  0  0  0  0  0
   23.7197    7.6435   53.8089 C   0  0  0  0  0  0  0  0  0  0  0  0
   24.6600    6.6939   53.5077 C   0  0  0  0  0  0  0  0  0  0  0  0
   25.9806    6.9745   53.8337 C   0  0  0  0  0  0  0  0  0  0  0  0
   22.2656    7.6948   53.6532 C   0  0  0  0  0  0  0  0  0  0  0  0
   21.5818    6.7904   53.1417 O   0  0  0  0  0  0  0  0  0  0  0  0
   21.7549    8.8971   54.1578 N   0  0  0  0  0  0  0  0  0  0  0  0
   20.4371    9.4556   54.3261 C   0  0  0  0  0  0  0  0  0  0  0  0
   20.2643    9.9980   55.7433 C   0  0  0  0  0  0  0  0  0  0  0  0
   21.3560   10.8709   56.0338 N   0  0  0  0  0  0  0  0  0  0  0  0
   22.6598   10.2298   55.9864 C   0  0  0  0  0  0  0  0  0  0  0  0
   22.8710    9.6985   54.6046 C   0  0  0  0  0  0  0  0  0  0  0  0
   21.2663   11.3693   56.9389 H   0  0  0  0  0  0  0  0  0  0  0  0
   24.2781    5.4239   52.8529 C   0  0  0  0  0  0  0  0  0  0  0  0
   25.3210    4.6369   52.4753 F   0  0  0  0  0  0  0  0  0  0  0  0
   23.4069    5.6784   51.7838 F   0  0  0  0  0  0  0  0  0  0  0  0
   23.5097    4.6573   53.7422 F   0  0  0  0  0  0  0  0  0  0  0  0
  1  2  1  0  0  0
  2  3  2  0  0  0
  3  4  1  0  0  0
  4  5  2  0  0  0
  5  6  1  0  0  0
  6 17  1  0  0  0
 17 18  1  0  0  0
 17 19  1  0  0  0
 17 20  1  0  0  0
  6  7  2  0  0  0
  5  8  1  0  0  0
  8  9  2  0  0  0
  8 10  1  0  0  0
 10 11  1  0  0  0
 11 12  1  0  0  0
 12 13  1  0  0  0
 13 14  1  0  0  0
 14 15  1  0  0  0
  7  2  1  0  0  0
 15 10  1  0  0  0
 15  4  1  0  0  0
 13 16  1  0  0  0
M  END
> <minimizedAffinity>
13.04930

> <CNNscore>
0.5145893097

> <CNNaffinity>
4.9948806763

> <CNN_VS>
2.5703122616

> <CNNaffinity_variance>
0.1378962249

$$$$
[H]c1c(C([H])([H])[H])c([H])c2c(c1C(F)(F)F)C(=O)N1C([H])([H])C([H])([H])N([H])C([H])([H])[C@@]21[H]


 20 22  0  0  0  0  0  0  0  0999 V2000
   23.8131    5.2921   51.7550 C   0  0  0  0  0  0  0  0  0  0  0  0
   23.7472    6.3823   52.7644 C   0  0  0  0  0  0  0  0  0  0  0  0
   24.9390    6.9503   53.1569 C   0  0  0  0  0  0  0  0  0  0  0  0
   24.9438    7.9584   54.0834 C   0  0  0  0  0  0  0  0  0  0  0  0
   23.7281    8.3974   54.6208 C   0  0  0  0  0  0  0  0  0  0  0  0
   22.5283    7.8511   54.2482 C   0  0  0  0  0  0  0  0  0  0  0  0
   22.5544    6.8306   53.3065 C   0  0  0  0  0  0  0  0  0  0  0  0
   24.0974    9.4373   55.5818 C   0  0  0  0  0  0  0  0  0  0  0  0
   23.2836   10.0777   56.2707 O   0  0  0  0  0  0  0  0  0  0  0  0
   25.4867    9.6093   55.6169 N   0  0  0  0  0  0  0  0  0  0  0  0
   26.3959   10.4172   56.3899 C   0  0  0  0  0  0  0  0  0  0  0  0
   27.5356    9.5614   56.9388 C   0  0  0  0  0  0  0  0  0  0  0  0
   28.1136    8.8256   55.8605 N   0  0  0  0  0  0  0  0  0  0  0  0
   27.1914    7.9194   55.1962 C   0  0  0  0  0  0  0  0  0  0  0  0
   26.0665    8.7265   54.6310 C   0  0  0  0  0  0  0  0  0  0  0  0
   28.9656    8.2955   56.1226 H   0  0  0  0  0  0  0  0  0  0  0  0
   21.2568    8.3396   54.8244 C   0  0  0  0  0  0  0  0  0  0  0  0
   21.0582    9.6811   54.7214 F   0  0  0  0  0  0  0  0  0  0  0  0
   21.1289    7.8968   56.1489 F   0  0  0  0  0  0  0  0  0  0  0  0
   20.1825    7.7314   54.1575 F   0  0  0  0  0  0  0  0  0  0  0  0
  1  2  1  0  0  0
  2  3  2  0  0  0
  3  4  1  0  0  0
  4  5  2  0  0  0
  5  6  1  0  0  0
  6 17  1  0  0  0
 17 18  1  0  0  0
 17 19  1  0  0  0
 17 20  1  0  0  0
  6  7  2  0  0  0
  5  8  1  0  0  0
  8  9  2  0  0  0
  8 10  1  0  0  0
 10 11  1  0  0  0
 11 12  1  0  0  0
 12 13  1  0  0  0
 13 14  1  0  0  0
 14 15  1  0  0  0
  7  2  1  0  0  0
 15 10  1  0  0  0
 15  4  1  0  0  0
 13 16  1  0  0  0
M  END
> <minimizedAffinity>
10.98712

> <CNNscore>
0.5050519109

> <CNNaffinity>
4.8422565460

> <CNN_VS>
2.4455909729

> <CNNaffinity_variance>
0.2186777145

$$$$
[H]c1c(C([H])([H])[H])c([H])c2c(c1C(F)(F)F)C(=O)N1C([H])([H])C([H])([H])N([H])C([H])([H])[C@@]21[H]


 20 22  0  0  0  0  0  0  0  0999 V2000
   24.1281    4.1109   53.3548 C   0  0  0  0  0  0  0  0  0  0  0  0
   24.0210    5.5717   53.6121 C   0  0  0  0  0  0  0  0  0  0  0  0
   22.8991    6.2145   53.1376 C   0  0  0  0  0  0  0  0  0  0  0  0
   22.7430    7.5591   53.3428 C   0  0  0  0  0  0  0  0  0  0  0  0
   23.7344    8.2634   54.0360 C   0  0  0  0  0  0  0  0  0  0  0  0
   24.8597    7.6497   54.5196 C   0  0  0  0  0  0  0  0  0  0  0  0
   24.9906    6.2851   54.2967 C   0  0  0  0  0  0  0  0  0  0  0  0
   23.2711    9.6514   54.0444 C   0  0  0  0  0  0  0  0  0  0  0  0
   23.8859   10.5937   54.5745 O   0  0  0  0  0  0  0  0  0  0  0  0
   22.0462    9.7694   53.3760 N   0  0  0  0  0  0  0  0  0  0  0  0
   21.1754   10.8632   53.0263 C   0  0  0  0  0  0  0  0  0  0  0  0
   20.7838   10.7835   51.5522 C   0  0  0  0  0  0  0  0  0  0  0  0
   20.2830    9.4738   51.2836 N   0  0  0  0  0  0  0  0  0  0  0  0
   21.2436    8.4088   51.5204 C   0  0  0  0  0  0  0  0  0  0  0  0
   21.6393    8.4463   52.9620 C   0  0  0  0  0  0  0  0  0  0  0  0
   19.8935    9.3604   50.3291 H   0  0  0  0  0  0  0  0  0  0  0  0
   25.8880    8.4152   55.2571 C   0  0  0  0  0  0  0  0  0  0  0  0
   26.8502    7.6591   55.8506 F   0  0  0  0  0  0  0  0  0  0  0  0
   25.2754    9.2851   56.1706 F   0  0  0  0  0  0  0  0  0  0  0  0
   26.5547    9.2711   54.3673 F   0  0  0  0  0  0  0  0  0  0  0  0
  1  2  1  0  0  0
  2  3  2  0  0  0
  3  4  1  0  0  0
  4  5  2  0  0  0
  5  6  1  0  0  0
  6 17  1  0  0  0
 17 18  1  0  0  0
 17 19  1  0  0  0
 17 20  1  0  0  0
  6  7  2  0  0  0
  5  8  1  0  0  0
  8  9  2  0  0  0
  8 10  1  0  0  0
 10 11  1  0  0  0
 11 12  1  0  0  0
 12 13  1  0  0  0
 13 14  1  0  0  0
 14 15  1  0  0  0
  7  2  1  0  0  0
 15 10  1  0  0  0
 15  4  1  0  0  0
 13 16  1  0  0  0
M  END
> <minimizedAffinity>
17.33846

> <CNNscore>
0.4737858772

> <CNNaffinity>
5.2926902771

> <CNN_VS>
2.5076019764

> <CNNaffinity_variance>
0.5042731166

$$$$
[H]c1c(C([H])([H])[H])c([H])c2c(c1C(F)(F)F)C(=O)N1C([H])([H])C([H])([H])N([H])C([H])([H])[C@@]21[H]


 20 22  0  0  0  0  0  0  0  0999 V2000
   27.0507    8.6820   54.5548 C   0  0  0  0  0  0  0  0  0  0  0  0
   25.7130    8.0949   54.2767 C   0  0  0  0  0  0  0  0  0  0  0  0
   24.9261    8.7336   53.3441 C   0  0  0  0  0  0  0  0  0  0  0  0
   23.6841    8.2414   53.0449 C   0  0  0  0  0  0  0  0  0  0  0  0
   23.2312    7.0889   53.6975 C   0  0  0  0  0  0  0  0  0  0  0  0
   23.9927    6.4330   54.6285 C   0  0  0  0  0  0  0  0  0  0  0  0
   25.2482    6.9551   54.9114 C   0  0  0  0  0  0  0  0  0  0  0  0
   21.8829    6.8673   53.1738 C   0  0  0  0  0  0  0  0  0  0  0  0
   21.1434    5.9266   53.5134 O   0  0  0  0  0  0  0  0  0  0  0  0
   21.5439    7.8567   52.2426 N   0  0  0  0  0  0  0  0  0  0  0  0
   20.3663    8.1760   51.4755 C   0  0  0  0  0  0  0  0  0  0  0  0
   20.0265    9.6588   51.6117 C   0  0  0  0  0  0  0  0  0  0  0  0
   21.1945   10.4236   51.3133 N   0  0  0  0  0  0  0  0  0  0  0  0
   22.3168   10.1675   52.2011 C   0  0  0  0  0  0  0  0  0  0  0  0
   22.6884    8.7238   52.0825 C   0  0  0  0  0  0  0  0  0  0  0  0
   21.0291   11.4468   51.2776 H   0  0  0  0  0  0  0  0  0  0  0  0
   23.4944    5.2116   55.2971 C   0  0  0  0  0  0  0  0  0  0  0  0
   23.2880    4.1498   54.4726 F   0  0  0  0  0  0  0  0  0  0  0  0
   22.3518    5.5106   56.0532 F   0  0  0  0  0  0  0  0  0  0  0  0
   24.4329    4.7907   56.2516 F   0  0  0  0  0  0  0  0  0  0  0  0
  1  2  1  0  0  0
  2  3  2  0  0  0
  3  4  1  0  0  0
  4  5  2  0  0  0
  5  6  1  0  0  0
  6 17  1  0  0  0
 17 18  1  0  0  0
 17 19  1  0  0  0
 17 20  1  0  0  0
  6  7  2  0  0  0
  5  8  1  0  0  0
  8  9  2  0  0  0
  8 10  1  0  0  0
 10 11  1  0  0  0
 11 12  1  0  0  0
 12 13  1  0  0  0
 13 14  1  0  0  0
 14 15  1  0  0  0
  7  2  1  0  0  0
 15 10  1  0  0  0
 15  4  1  0  0  0
 13 16  1  0  0  0
M  END
> <minimizedAffinity>
13.06724

> <CNNscore>
0.4650893211

> <CNNaffinity>
5.4209222794

> <CNN_VS>
2.5212130547

> <CNNaffinity_variance>
0.6063541770

$$$$
[H]N=C1c2c([H])nc([H])nc2C([H])([H])[C@](c2c([H])c(-c3c([H])nc([H])c(Cl)c3[H])c([H])c([H])c2F)(C([H])([H])[H])N1[H]


 28 31  0  0  0  0  0  0  0  0999 V2000
   23.6369    8.3577   54.9774 C   0  0  0  0  0  0  0  0  0  0  0  0
   24.0625    8.1691   53.5530 C   0  0  0  0  0  0  0  0  0  0  0  0
   23.7534    6.7435   53.1661 C   0  0  0  0  0  0  0  0  0  0  0  0
   22.3075    6.4690   53.2719 C   0  0  0  0  0  0  0  0  0  0  0  0
   21.8845    5.2236   53.5687 N   0  0  0  0  0  0  0  0  0  0  0  0
   20.5797    4.9139   53.6645 C   0  0  0  0  0  0  0  0  0  0  0  0
   19.6943    5.9020   53.4514 N   0  0  0  0  0  0  0  0  0  0  0  0
   20.0730    7.1710   53.1504 C   0  0  0  0  0  0  0  0  0  0  0  0
   21.4016    7.4774   53.0552 C   0  0  0  0  0  0  0  0  0  0  0  0
   21.8514    8.8513   52.7449 C   0  0  0  0  0  0  0  0  0  0  0  0
   21.0367    9.7971   52.5347 N   0  0  0  0  0  0  0  0  0  0  0  0
   23.2597    9.0312   52.6946 N   0  0  0  0  0  0  0  0  0  0  0  0
   20.0180    9.8038   52.5362 H   0  0  0  0  0  0  0  0  0  0  0  0
   23.6522    9.7576   52.0593 H   0  0  0  0  0  0  0  0  0  0  0  0
   25.5140    8.4192   53.3584 C   0  0  0  0  0  0  0  0  0  0  0  0
   26.0382    8.8473   52.1588 C   0  0  0  0  0  0  0  0  0  0  0  0
   27.4033    9.0712   51.9986 C   0  0  0  0  0  0  0  0  0  0  0  0
   28.2278    8.8510   53.0850 C   0  0  0  0  0  0  0  0  0  0  0  0
   27.7327    8.4174   54.3158 C   0  0  0  0  0  0  0  0  0  0  0  0
   26.3711    8.2116   54.4166 C   0  0  0  0  0  0  0  0  0  0  0  0
   25.8425    7.7878   55.6021 F   0  0  0  0  0  0  0  0  0  0  0  0
   27.9820    9.5225   50.7402 C   0  0  0  0  0  0  0  0  0  0  0  0
   28.3038   10.8506   50.5726 C   0  0  0  0  0  0  0  0  0  0  0  0
   28.8419   11.3032   49.4110 N   0  0  0  0  0  0  0  0  0  0  0  0
   29.0901   10.4877   48.3655 C   0  0  0  0  0  0  0  0  0  0  0  0
   28.7817    9.1575   48.4977 C   0  0  0  0  0  0  0  0  0  0  0  0
   29.0954    8.0885   47.1553 Cl  0  0  0  0  0  0  0  0  0  0  0  0
   28.2273    8.6703   49.6839 C   0  0  0  0  0  0  0  0  0  0  0  0
  2  1  1  0  0  0
  2 15  1  0  0  0
 15 16  2  0  0  0
 16 17  1  0  0  0
 17 22  1  0  0  0
 22 23  2  0  0  0
 23 24  1  0  0  0
 24 25  2  0  0  0
 25 26  1  0  0  0
 26 27  1  0  0  0
 26 28  2  0  0  0
 17 18  2  0  0  0
 18 19  1  0  0  0
 19 20  2  0  0  0
 20 21  1  0  0  0
  2  3  1  0  0  0
  3  4  1  0  0  0
  4  5  2  0  0  0
  5  6  1  0  0  0
  6  7  2  0  0  0
  7  8  1  0  0  0
  8  9  2  0  0  0
  9 10  1  0  0  0
 10 11  2  0  0  0
 10 12  1  0  0  0
 12  2  1  0  0  0
 20 15  1  0  0  0
  9  4  1  0  0  0
 28 22  1  0  0  0
 11 13  1  0  0  0
 12 14  1  0  0  0
M  END
> <minimizedAffinity>
23.04004

> <CNNscore>
0.4785727859

> <CNNaffinity>
6.2784466743

> <CNN_VS>
3.0046937466

> <CNNaffinity_variance>
0.3248304725

$$$$
[H]N=C1c2c([H])nc([H])nc2C([H])([H])[C@](c2c([H])c(-c3c([H])nc([H])c(Cl)c3[H])c([H])c([H])c2F)(C([H])([H])[H])N1[H]


 28 31  0  0  0  0  0  0  0  0999 V2000
   24.0203    7.4446   52.4845 C   0  0  0  0  0  0  0  0  0  0  0  0
   24.7480    7.9890   53.6760 C   0  0  0  0  0  0  0  0  0  0  0  0
   23.9553    9.1602   54.2028 C   0  0  0  0  0  0  0  0  0  0  0  0
   22.6046    8.7387   54.6209 C   0  0  0  0  0  0  0  0  0  0  0  0
   21.5787    9.6100   54.5407 N   0  0  0  0  0  0  0  0  0  0  0  0
   20.3307    9.2843   54.9202 C   0  0  0  0  0  0  0  0  0  0  0  0
   20.1340    8.0411   55.3905 N   0  0  0  0  0  0  0  0  0  0  0  0
   21.1358    7.1295   55.4893 C   0  0  0  0  0  0  0  0  0  0  0  0
   22.4017    7.4687   55.1010 C   0  0  0  0  0  0  0  0  0  0  0  0
   23.5139    6.4977   55.1795 C   0  0  0  0  0  0  0  0  0  0  0  0
   23.3547    5.3232   55.6240 N   0  0  0  0  0  0  0  0  0  0  0  0
   24.7715    6.9786   54.7263 N   0  0  0  0  0  0  0  0  0  0  0  0
   22.5202    4.8589   55.9790 H   0  0  0  0  0  0  0  0  0  0  0  0
   25.6409    6.5965   55.1546 H   0  0  0  0  0  0  0  0  0  0  0  0
   26.1210    8.4462   53.3399 C   0  0  0  0  0  0  0  0  0  0  0  0
   26.4758    8.8601   52.0751 C   0  0  0  0  0  0  0  0  0  0  0  0
   27.7706    9.2807   51.7823 C   0  0  0  0  0  0  0  0  0  0  0  0
   28.7009    9.2726   52.8037 C   0  0  0  0  0  0  0  0  0  0  0  0
   28.3781    8.8603   54.0975 C   0  0  0  0  0  0  0  0  0  0  0  0
   27.0791    8.4536   54.3297 C   0  0  0  0  0  0  0  0  0  0  0  0
   26.7182    8.0423   55.5807 F   0  0  0  0  0  0  0  0  0  0  0  0
   28.1708    9.7214   50.4528 C   0  0  0  0  0  0  0  0  0  0  0  0
   28.4196   11.0555   50.2203 C   0  0  0  0  0  0  0  0  0  0  0  0
   28.7915   11.4985   48.9919 N   0  0  0  0  0  0  0  0  0  0  0  0
   28.9375   10.6672   47.9395 C   0  0  0  0  0  0  0  0  0  0  0  0
   28.6977    9.3307   48.1352 C   0  0  0  0  0  0  0  0  0  0  0  0
   28.8811    8.2413   46.7850 Cl  0  0  0  0  0  0  0  0  0  0  0  0
   28.3141    8.8531   49.3908 C   0  0  0  0  0  0  0  0  0  0  0  0
  2  1  1  0  0  0
  2 15  1  0  0  0
 15 16  2  0  0  0
 16 17  1  0  0  0
 17 22  1  0  0  0
 22 23  2  0  0  0
 23 24  1  0  0  0
 24 25  2  0  0  0
 25 26  1  0  0  0
 26 27  1  0  0  0
 26 28  2  0  0  0
 17 18  2  0  0  0
 18 19  1  0  0  0
 19 20  2  0  0  0
 20 21  1  0  0  0
  2  3  1  0  0  0
  3  4  1  0  0  0
  4  5  2  0  0  0
  5  6  1  0  0  0
  6  7  2  0  0  0
  7  8  1  0  0  0
  8  9  2  0  0  0
  9 10  1  0  0  0
 10 11  2  0  0  0
 10 12  1  0  0  0
 12  2  1  0  0  0
 20 15  1  0  0  0
  9  4  1  0  0  0
 28 22  1  0  0  0
 11 13  1  0  0  0
 12 14  1  0  0  0
M  END
> <minimizedAffinity>
25.11506

> <CNNscore>
0.4692456424

> <CNNaffinity>
6.0411229134

> <CNN_VS>
2.8347706795

> <CNNaffinity_variance>
0.2268770933

$$$$
[H]N=C1c2c([H])nc([H])nc2C([H])([H])[C@](c2c([H])c(-c3c([H])nc([H])c(Cl)c3[H])c([H])c([H])c2F)(C([H])([H])[H])N1[H]


 28 31  0  0  0  0  0  0  0  0999 V2000
   24.3459    6.7876   54.4843 C   0  0  0  0  0  0  0  0  0  0  0  0
   24.4951    8.1609   53.9033 C   0  0  0  0  0  0  0  0  0  0  0  0
   23.6558    8.2233   52.6506 C   0  0  0  0  0  0  0  0  0  0  0  0
   22.2318    7.9873   52.9564 C   0  0  0  0  0  0  0  0  0  0  0  0
   21.4364    7.4143   52.0307 N   0  0  0  0  0  0  0  0  0  0  0  0
   20.1294    7.1880   52.2503 C   0  0  0  0  0  0  0  0  0  0  0  0
   19.6315    7.5573   53.4425 N   0  0  0  0  0  0  0  0  0  0  0  0
   20.3937    8.1372   54.4054 C   0  0  0  0  0  0  0  0  0  0  0  0
   21.7216    8.3635   54.1741 C   0  0  0  0  0  0  0  0  0  0  0  0
   22.5856    8.9781   55.2046 C   0  0  0  0  0  0  0  0  0  0  0  0
   22.1387    9.3395   56.3324 N   0  0  0  0  0  0  0  0  0  0  0  0
   23.9483    9.1382   54.8363 N   0  0  0  0  0  0  0  0  0  0  0  0
   21.1970    9.2865   56.7175 H   0  0  0  0  0  0  0  0  0  0  0  0
   24.4895    9.9312   55.2406 H   0  0  0  0  0  0  0  0  0  0  0  0
   25.9046    8.4787   53.5575 C   0  0  0  0  0  0  0  0  0  0  0  0
   26.2920    8.8439   52.2872 C   0  0  0  0  0  0  0  0  0  0  0  0
   27.6203    9.1334   51.9854 C   0  0  0  0  0  0  0  0  0  0  0  0
   28.5502    9.0443   53.0033 C   0  0  0  0  0  0  0  0  0  0  0  0
   28.1948    8.6777   54.3022 C   0  0  0  0  0  0  0  0  0  0  0  0
   26.8635    8.4020   54.5434 C   0  0  0  0  0  0  0  0  0  0  0  0
   26.4702    8.0397   55.7998 F   0  0  0  0  0  0  0  0  0  0  0  0
   28.0552    9.5203   50.6501 C   0  0  0  0  0  0  0  0  0  0  0  0
   28.2096   10.8530   50.3402 C   0  0  0  0  0  0  0  0  0  0  0  0
   28.6107   11.2462   49.1040 N   0  0  0  0  0  0  0  0  0  0  0  0
   28.8786   10.3647   48.1186 C   0  0  0  0  0  0  0  0  0  0  0  0
   28.7353    9.0281   48.3925 C   0  0  0  0  0  0  0  0  0  0  0  0
   29.0769    7.8740   47.1296 Cl  0  0  0  0  0  0  0  0  0  0  0  0
   28.3237    8.6012   49.6575 C   0  0  0  0  0  0  0  0  0  0  0  0
  2  1  1  0  0  0
  2 15  1  0  0  0
 15 16  2  0  0  0
 16 17  1  0  0  0
 17 22  1  0  0  0
 22 23  2  0  0  0
 23 24  1  0  0  0
 24 25  2  0  0  0
 25 26  1  0  0  0
 26 27  1  0  0  0
 26 28  2  0  0  0
 17 18  2  0  0  0
 18 19  1  0  0  0
 19 20  2  0  0  0
 20 21  1  0  0  0
  2  3  1  0  0  0
  3  4  1  0  0  0
  4  5  2  0  0  0
  5  6  1  0  0  0
  6  7  2  0  0  0
  7  8  1  0  0  0
  8  9  2  0  0  0
  9 10  1  0  0  0
 10 11  2  0  0  0
 10 12  1  0  0  0
 12  2  1  0  0  0
 20 15  1  0  0  0
  9  4  1  0  0  0
 28 22  1  0  0  0
 11 13  1  0  0  0
 12 14  1  0  0  0
M  END
> <minimizedAffinity>
20.19179

> <CNNscore>
0.4582694471

> <CNNaffinity>
6.3726215363

> <CNN_VS>
2.9203777313

> <CNNaffinity_variance>
0.2138489038

$$$$
[H]N=C1c2c([H])nc([H])nc2C([H])([H])[C@](c2c([H])c(-c3c([H])nc([H])c(Cl)c3[H])c([H])c([H])c2F)(C([H])([H])[H])N1[H]


 28 31  0  0  0  0  0  0  0  0999 V2000
   24.8029    6.4700   54.4809 C   0  0  0  0  0  0  0  0  0  0  0  0
   24.2585    7.7967   54.0459 C   0  0  0  0  0  0  0  0  0  0  0  0
   24.4487    8.7674   55.1857 C   0  0  0  0  0  0  0  0  0  0  0  0
   25.8787    8.9234   55.5139 C   0  0  0  0  0  0  0  0  0  0  0  0
   26.2457    9.2115   56.7789 N   0  0  0  0  0  0  0  0  0  0  0  0
   27.5324    9.3777   57.1315 C   0  0  0  0  0  0  0  0  0  0  0  0
   28.4581    9.2452   56.1665 N   0  0  0  0  0  0  0  0  0  0  0  0
   28.1364    8.9553   54.8793 C   0  0  0  0  0  0  0  0  0  0  0  0
   26.8258    8.7878   54.5294 C   0  0  0  0  0  0  0  0  0  0  0  0
   26.4391    8.4560   53.1414 C   0  0  0  0  0  0  0  0  0  0  0  0
   27.2920    8.3318   52.2143 N   0  0  0  0  0  0  0  0  0  0  0  0
   25.0449    8.2927   52.9232 N   0  0  0  0  0  0  0  0  0  0  0  0
   28.3063    8.4248   52.2333 H   0  0  0  0  0  0  0  0  0  0  0  0
   24.6503    8.5289   51.9884 H   0  0  0  0  0  0  0  0  0  0  0  0
   22.8146    7.7307   53.7025 C   0  0  0  0  0  0  0  0  0  0  0  0
   22.0998    6.5536   53.7270 C   0  0  0  0  0  0  0  0  0  0  0  0
   20.7475    6.5152   53.3970 C   0  0  0  0  0  0  0  0  0  0  0  0
   20.1337    7.7006   53.0407 C   0  0  0  0  0  0  0  0  0  0  0  0
   20.8255    8.9122   53.0049 C   0  0  0  0  0  0  0  0  0  0  0  0
   22.1644    8.8902   53.3417 C   0  0  0  0  0  0  0  0  0  0  0  0
   22.8808   10.0524   53.3208 F   0  0  0  0  0  0  0  0  0  0  0  0
   19.9703    5.2833   53.4138 C   0  0  0  0  0  0  0  0  0  0  0  0
   20.5344    4.1123   52.9594 C   0  0  0  0  0  0  0  0  0  0  0  0
   19.8356    2.9482   52.9593 N   0  0  0  0  0  0  0  0  0  0  0  0
   18.5627    2.8714   53.3994 C   0  0  0  0  0  0  0  0  0  0  0  0
   17.9691    4.0193   53.8596 C   0  0  0  0  0  0  0  0  0  0  0  0
   16.3231    3.9385   54.4320 Cl  0  0  0  0  0  0  0  0  0  0  0  0
   18.6695    5.2281   53.8687 C   0  0  0  0  0  0  0  0  0  0  0  0
  2  1  1  0  0  0
  2 15  1  0  0  0
 15 16  2  0  0  0
 16 17  1  0  0  0
 17 22  1  0  0  0
 22 23  2  0  0  0
 23 24  1  0  0  0
 24 25  2  0  0  0
 25 26  1  0  0  0
 26 27  1  0  0  0
 26 28  2  0  0  0
 17 18  2  0  0  0
 18 19  1  0  0  0
 19 20  2  0  0  0
 20 21  1  0  0  0
  2  3  1  0  0  0
  3  4  1  0  0  0
  4  5  2  0  0  0
  5  6  1  0  0  0
  6  7  2  0  0  0
  7  8  1  0  0  0
  8  9  2  0  0  0
  9 10  1  0  0  0
 10 11  2  0  0  0
 10 12  1  0  0  0
 12  2  1  0  0  0
 20 15  1  0  0  0
  9  4  1  0  0  0
 28 22  1  0  0  0
 11 13  1  0  0  0
 12 14  1  0  0  0
M  END
> <minimizedAffinity>
18.41824

> <CNNscore>
0.4440295994

> <CNNaffinity>
6.4314246178

> <CNN_VS>
2.8557429314

> <CNNaffinity_variance>
0.2860588729

$$$$
[H]N=C1c2c([H])nc([H])nc2C([H])([H])[C@](c2c([H])c(-c3c([H])nc([H])c(Cl)c3[H])c([H])c([H])c2F)(C([H])([H])[H])N1[H]


 28 31  0  0  0  0  0  0  0  0999 V2000
   25.3540    6.7108   54.9656 C   0  0  0  0  0  0  0  0  0  0  0  0
   25.2983    8.0718   54.3409 C   0  0  0  0  0  0  0  0  0  0  0  0
   25.5225    9.0883   55.4336 C   0  0  0  0  0  0  0  0  0  0  0  0
   26.8451    8.9060   56.0617 C   0  0  0  0  0  0  0  0  0  0  0  0
   27.0205    9.2373   57.3568 N   0  0  0  0  0  0  0  0  0  0  0  0
   28.2064    9.1048   57.9760 C   0  0  0  0  0  0  0  0  0  0  0  0
   29.2301    8.6231   57.2510 N   0  0  0  0  0  0  0  0  0  0  0  0
   29.1012    8.2757   55.9444 C   0  0  0  0  0  0  0  0  0  0  0  0
   27.8918    8.4134   55.3225 C   0  0  0  0  0  0  0  0  0  0  0  0
   27.7101    8.0308   53.9060 C   0  0  0  0  0  0  0  0  0  0  0  0
   28.6601    7.5804   53.2010 N   0  0  0  0  0  0  0  0  0  0  0  0
   26.3972    8.2098   53.3934 N   0  0  0  0  0  0  0  0  0  0  0  0
   29.6356    7.4087   53.4395 H   0  0  0  0  0  0  0  0  0  0  0  0
   26.2769    8.4275   52.3817 H   0  0  0  0  0  0  0  0  0  0  0  0
   23.9906    8.3422   53.6897 C   0  0  0  0  0  0  0  0  0  0  0  0
   23.4226    9.5966   53.6598 C   0  0  0  0  0  0  0  0  0  0  0  0
   22.1933    9.8255   53.0469 C   0  0  0  0  0  0  0  0  0  0  0  0
   21.5506    8.7510   52.4628 C   0  0  0  0  0  0  0  0  0  0  0  0
   22.0954    7.4661   52.4731 C   0  0  0  0  0  0  0  0  0  0  0  0
   23.3165    7.2982   53.0953 C   0  0  0  0  0  0  0  0  0  0  0  0
   23.8875    6.0583   53.1293 F   0  0  0  0  0  0  0  0  0  0  0  0
   21.5713   11.1419   53.0033 C   0  0  0  0  0  0  0  0  0  0  0  0
   20.9026   11.6196   54.1080 C   0  0  0  0  0  0  0  0  0  0  0  0
   20.3098   12.8411   54.0983 N   0  0  0  0  0  0  0  0  0  0  0  0
   20.3412   13.6491   53.0185 C   0  0  0  0  0  0  0  0  0  0  0  0
   20.9992   13.2050   51.8997 C   0  0  0  0  0  0  0  0  0  0  0  0
   21.0491   14.2367   50.4937 Cl  0  0  0  0  0  0  0  0  0  0  0  0
   21.6160   11.9516   51.8876 C   0  0  0  0  0  0  0  0  0  0  0  0
  2  1  1  0  0  0
  2 15  1  0  0  0
 15 16  2  0  0  0
 16 17  1  0  0  0
 17 22  1  0  0  0
 22 23  2  0  0  0
 23 24  1  0  0  0
 24 25  2  0  0  0
 25 26  1  0  0  0
 26 27  1  0  0  0
 26 28  2  0  0  0
 17 18  2  0  0  0
 18 19  1  0  0  0
 19 20  2  0  0  0
 20 21  1  0  0  0
  2  3  1  0  0  0
  3  4  1  0  0  0
  4  5  2  0  0  0
  5  6  1  0  0  0
  6  7  2  0  0  0
  7  8  1  0  0  0
  8  9  2  0  0  0
  9 10  1  0  0  0
 10 11  2  0  0  0
 10 12  1  0  0  0
 12  2  1  0  0  0
 20 15  1  0  0  0
  9  4  1  0  0  0
 28 22  1  0  0  0
 11 13  1  0  0  0
 12 14  1  0  0  0
M  END
> <minimizedAffinity>
30.56510

> <CNNscore>
0.4255957901

> <CNNaffinity>
5.9464354515

> <CNN_VS>
2.5307779312

> <CNNaffinity_variance>
0.1263307631

$$$$
[H]N=C1c2c([H])nc([H])nc2C([H])([H])[C@](c2c([H])c(-c3c([H])nc([H])c(Cl)c3[H])c([H])c([H])c2F)(C([H])([H])[H])N1[H]


 28 31  0  0  0  0  0  0  0  0999 V2000
   20.2927    6.9132   52.1028 C   0  0  0  0  0  0  0  0  0  0  0  0
   20.7264    6.7751   53.5306 C   0  0  0  0  0  0  0  0  0  0  0  0
   19.4857    6.7767   54.3897 C   0  0  0  0  0  0  0  0  0  0  0  0
   18.6045    5.6439   54.0476 C   0  0  0  0  0  0  0  0  0  0  0  0
   17.2710    5.7638   54.2066 N   0  0  0  0  0  0  0  0  0  0  0  0
   16.4225    4.7600   53.9236 C   0  0  0  0  0  0  0  0  0  0  0  0
   16.9544    3.6127   53.4691 N   0  0  0  0  0  0  0  0  0  0  0  0
   18.2906    3.4456   53.2926 C   0  0  0  0  0  0  0  0  0  0  0  0
   19.1462    4.4714   53.5825 C   0  0  0  0  0  0  0  0  0  0  0  0
   20.6052    4.3312   53.3879 C   0  0  0  0  0  0  0  0  0  0  0  0
   21.1302    3.2591   52.9666 N   0  0  0  0  0  0  0  0  0  0  0  0
   21.3732    5.4815   53.7121 N   0  0  0  0  0  0  0  0  0  0  0  0
   20.7020    2.3726   52.7048 H   0  0  0  0  0  0  0  0  0  0  0  0
   22.3475    5.3552   54.0588 H   0  0  0  0  0  0  0  0  0  0  0  0
   21.6149    7.8849   53.9618 C   0  0  0  0  0  0  0  0  0  0  0  0
   22.9771    7.7338   54.0983 C   0  0  0  0  0  0  0  0  0  0  0  0
   23.7898    8.7876   54.5082 C   0  0  0  0  0  0  0  0  0  0  0  0
   23.1891   10.0022   54.7774 C   0  0  0  0  0  0  0  0  0  0  0  0
   21.8123   10.1929   54.6501 C   0  0  0  0  0  0  0  0  0  0  0  0
   21.0560    9.1128   54.2404 C   0  0  0  0  0  0  0  0  0  0  0  0
   19.7049    9.2535   54.1018 F   0  0  0  0  0  0  0  0  0  0  0  0
   25.2321    8.6526   54.6614 C   0  0  0  0  0  0  0  0  0  0  0  0
   25.9767    8.0816   53.6538 C   0  0  0  0  0  0  0  0  0  0  0  0
   27.3222    7.9388   53.7671 N   0  0  0  0  0  0  0  0  0  0  0  0
   28.0005    8.3436   54.8607 C   0  0  0  0  0  0  0  0  0  0  0  0
   27.2902    8.9173   55.8845 C   0  0  0  0  0  0  0  0  0  0  0  0
   28.1512    9.4460   57.3067 Cl  0  0  0  0  0  0  0  0  0  0  0  0
   25.9052    9.0740   55.7891 C   0  0  0  0  0  0  0  0  0  0  0  0
  2  1  1  0  0  0
  2 15  1  0  0  0
 15 16  2  0  0  0
 16 17  1  0  0  0
 17 22  1  0  0  0
 22 23  2  0  0  0
 23 24  1  0  0  0
 24 25  2  0  0  0
 25 26  1  0  0  0
 26 27  1  0  0  0
 26 28  2  0  0  0
 17 18  2  0  0  0
 18 19  1  0  0  0
 19 20  2  0  0  0
 20 21  1  0  0  0
  2  3  1  0  0  0
  3  4  1  0  0  0
  4  5  2  0  0  0
  5  6  1  0  0  0
  6  7  2  0  0  0
  7  8  1  0  0  0
  8  9  2  0  0  0
  9 10  1  0  0  0
 10 11  2  0  0  0
 10 12  1  0  0  0
 12  2  1  0  0  0
 20 15  1  0  0  0
  9  4  1  0  0  0
 28 22  1  0  0  0
 11 13  1  0  0  0
 12 14  1  0  0  0
M  END
> <minimizedAffinity>
28.25558

> <CNNscore>
0.4134780169

> <CNNaffinity>
6.4011573792

> <CNN_VS>
2.6467378139

> <CNNaffinity_variance>
0.7955113053

$$$$
[H]N=C1c2c([H])nc([H])nc2C([H])([H])[C@](c2c([H])c(-c3c([H])nc([H])c(Cl)c3[H])c([H])c([H])c2F)(C([H])([H])[H])N1[H]


 28 31  0  0  0  0  0  0  0  0999 V2000
   25.4690    6.7079   54.9639 C   0  0  0  0  0  0  0  0  0  0  0  0
   25.3256    8.0109   54.2377 C   0  0  0  0  0  0  0  0  0  0  0  0
   25.5220    9.1203   55.2417 C   0  0  0  0  0  0  0  0  0  0  0  0
   26.8675    9.0559   55.8439 C   0  0  0  0  0  0  0  0  0  0  0  0
   27.0566    9.4968   57.1040 N   0  0  0  0  0  0  0  0  0  0  0  0
   28.2627    9.4743   57.6975 C   0  0  0  0  0  0  0  0  0  0  0  0
   29.2926    8.9900   56.9830 N   0  0  0  0  0  0  0  0  0  0  0  0
   29.1504    8.5347   55.7113 C   0  0  0  0  0  0  0  0  0  0  0  0
   27.9205    8.5610   55.1155 C   0  0  0  0  0  0  0  0  0  0  0  0
   27.7248    8.0592   53.7385 C   0  0  0  0  0  0  0  0  0  0  0  0
   28.6799    7.6039   53.0437 N   0  0  0  0  0  0  0  0  0  0  0  0
   26.3922    8.1299   53.2514 N   0  0  0  0  0  0  0  0  0  0  0  0
   29.6687    7.5017   53.2668 H   0  0  0  0  0  0  0  0  0  0  0  0
   26.2357    8.2609   52.2297 H   0  0  0  0  0  0  0  0  0  0  0  0
   23.9899    8.1619   53.6051 C   0  0  0  0  0  0  0  0  0  0  0  0
   23.4891    9.3836   53.2131 C   0  0  0  0  0  0  0  0  0  0  0  0
   22.2320    9.5013   52.6256 C   0  0  0  0  0  0  0  0  0  0  0  0
   21.4915    8.3493   52.4437 C   0  0  0  0  0  0  0  0  0  0  0  0
   21.9660    7.0943   52.8281 C   0  0  0  0  0  0  0  0  0  0  0  0
   23.2190    7.0378   53.4056 C   0  0  0  0  0  0  0  0  0  0  0  0
   23.7238    5.8310   53.7968 F   0  0  0  0  0  0  0  0  0  0  0  0
   21.6798   10.7816   52.2039 C   0  0  0  0  0  0  0  0  0  0  0  0
   21.5752   11.0730   50.8623 C   0  0  0  0  0  0  0  0  0  0  0  0
   21.0676   12.2584   50.4370 N   0  0  0  0  0  0  0  0  0  0  0  0
   20.6408   13.2089   51.2939 C   0  0  0  0  0  0  0  0  0  0  0  0
   20.7301   12.9521   52.6385 C   0  0  0  0  0  0  0  0  0  0  0  0
   20.1834   14.1704   53.7611 Cl  0  0  0  0  0  0  0  0  0  0  0  0
   21.2492   11.7392   53.0983 C   0  0  0  0  0  0  0  0  0  0  0  0
  2  1  1  0  0  0
  2 15  1  0  0  0
 15 16  2  0  0  0
 16 17  1  0  0  0
 17 22  1  0  0  0
 22 23  2  0  0  0
 23 24  1  0  0  0
 24 25  2  0  0  0
 25 26  1  0  0  0
 26 27  1  0  0  0
 26 28  2  0  0  0
 17 18  2  0  0  0
 18 19  1  0  0  0
 19 20  2  0  0  0
 20 21  1  0  0  0
  2  3  1  0  0  0
  3  4  1  0  0  0
  4  5  2  0  0  0
  5  6  1  0  0  0
  6  7  2  0  0  0
  7  8  1  0  0  0
  8  9  2  0  0  0
  9 10  1  0  0  0
 10 11  2  0  0  0
 10 12  1  0  0  0
 12  2  1  0  0  0
 20 15  1  0  0  0
  9  4  1  0  0  0
 28 22  1  0  0  0
 11 13  1  0  0  0
 12 14  1  0  0  0
M  END
> <minimizedAffinity>
28.26161

> <CNNscore>
0.4023773670

> <CNNaffinity>
6.1124072075

> <CNN_VS>
2.4594943523

> <CNNaffinity_variance>
0.2700065076

$$$$
[H]N=C1c2c([H])nc([H])nc2C([H])([H])[C@](c2c([H])c(-c3c([H])nc([H])c(Cl)c3[H])c([H])c([H])c2F)(C([H])([H])[H])N1[H]


 28 31  0  0  0  0  0  0  0  0999 V2000
   21.3998    7.0309   51.8933 C   0  0  0  0  0  0  0  0  0  0  0  0
   21.3806    7.2022   53.3819 C   0  0  0  0  0  0  0  0  0  0  0  0
   20.0909    6.6104   53.8957 C   0  0  0  0  0  0  0  0  0  0  0  0
   20.0072    5.1715   53.5804 C   0  0  0  0  0  0  0  0  0  0  0  0
   18.8019    4.6002   53.3835 N   0  0  0  0  0  0  0  0  0  0  0  0
   18.6658    3.2916   53.1069 C   0  0  0  0  0  0  0  0  0  0  0  0
   19.7887    2.5573   53.0314 N   0  0  0  0  0  0  0  0  0  0  0  0
   21.0240    3.0886   53.2217 C   0  0  0  0  0  0  0  0  0  0  0  0
   21.1535    4.4200   53.5024 C   0  0  0  0  0  0  0  0  0  0  0  0
   22.4828    5.0362   53.7000 C   0  0  0  0  0  0  0  0  0  0  0  0
   23.5541    4.3646   53.6396 N   0  0  0  0  0  0  0  0  0  0  0  0
   22.4704    6.4315   53.9673 N   0  0  0  0  0  0  0  0  0  0  0  0
   23.7023    3.3724   53.4621 H   0  0  0  0  0  0  0  0  0  0  0  0
   23.2260    6.8377   54.5583 H   0  0  0  0  0  0  0  0  0  0  0  0
   21.4535    8.6294   53.7880 C   0  0  0  0  0  0  0  0  0  0  0  0
   21.4784    9.6599   52.8745 C   0  0  0  0  0  0  0  0  0  0  0  0
   21.5513   10.9904   53.2787 C   0  0  0  0  0  0  0  0  0  0  0  0
   21.5983   11.2542   54.6340 C   0  0  0  0  0  0  0  0  0  0  0  0
   21.5748   10.2363   55.5887 C   0  0  0  0  0  0  0  0  0  0  0  0
   21.5022    8.9360   55.1301 C   0  0  0  0  0  0  0  0  0  0  0  0
   21.4764    7.9081   56.0285 F   0  0  0  0  0  0  0  0  0  0  0  0
   21.5804   12.0975   52.3324 C   0  0  0  0  0  0  0  0  0  0  0  0
   20.5504   13.0111   52.3163 C   0  0  0  0  0  0  0  0  0  0  0  0
   20.5466   14.0522   51.4447 N   0  0  0  0  0  0  0  0  0  0  0  0
   21.5402   14.2504   50.5540 C   0  0  0  0  0  0  0  0  0  0  0  0
   22.5830   13.3592   50.5422 C   0  0  0  0  0  0  0  0  0  0  0  0
   23.8763   13.5998   49.3964 Cl  0  0  0  0  0  0  0  0  0  0  0  0
   22.6073   12.2807   51.4301 C   0  0  0  0  0  0  0  0  0  0  0  0
  2  1  1  0  0  0
  2 15  1  0  0  0
 15 16  2  0  0  0
 16 17  1  0  0  0
 17 22  1  0  0  0
 22 23  2  0  0  0
 23 24  1  0  0  0
 24 25  2  0  0  0
 25 26  1  0  0  0
 26 27  1  0  0  0
 26 28  2  0  0  0
 17 18  2  0  0  0
 18 19  1  0  0  0
 19 20  2  0  0  0
 20 21  1  0  0  0
  2  3  1  0  0  0
  3  4  1  0  0  0
  4  5  2  0  0  0
  5  6  1  0  0  0
  6  7  2  0  0  0
  7  8  1  0  0  0
  8  9  2  0  0  0
  9 10  1  0  0  0
 10 11  2  0  0  0
 10 12  1  0  0  0
 12  2  1  0  0  0
 20 15  1  0  0  0
  9  4  1  0  0  0
 28 22  1  0  0  0
 11 13  1  0  0  0
 12 14  1  0  0  0
M  END
> <minimizedAffinity>
42.47549

> <CNNscore>
0.3931655586

> <CNNaffinity>
5.9154157639

> <CNN_VS>
2.3257377148

> <CNNaffinity_variance>
0.3614111841

$$$$
[H]N=C1c2c([H])nc([H])nc2C([H])([H])[C@](c2c([H])c(-c3c([H])nc([H])c(Cl)c3[H])c([H])c([H])c2F)(C([H])([H])[H])N1[H]


 28 31  0  0  0  0  0  0  0  0999 V2000
   21.0000    7.1985   52.2057 C   0  0  0  0  0  0  0  0  0  0  0  0
   21.2704    7.1128   53.6772 C   0  0  0  0  0  0  0  0  0  0  0  0
   19.9425    7.1661   54.3922 C   0  0  0  0  0  0  0  0  0  0  0  0
   19.0844    6.0322   53.9984 C   0  0  0  0  0  0  0  0  0  0  0  0
   17.7439    6.1763   54.0032 N   0  0  0  0  0  0  0  0  0  0  0  0
   16.9142    5.1733   53.6668 C   0  0  0  0  0  0  0  0  0  0  0  0
   17.4726    4.0015   53.3194 N   0  0  0  0  0  0  0  0  0  0  0  0
   18.8169    3.8094   53.2993 C   0  0  0  0  0  0  0  0  0  0  0  0
   19.6533    4.8345   53.6426 C   0  0  0  0  0  0  0  0  0  0  0  0
   21.1221    4.6670   53.6171 C   0  0  0  0  0  0  0  0  0  0  0  0
   21.6713    3.5717   53.2990 N   0  0  0  0  0  0  0  0  0  0  0  0
   21.8700    5.8191   53.9798 N   0  0  0  0  0  0  0  0  0  0  0  0
   21.2590    2.6810   53.0258 H   0  0  0  0  0  0  0  0  0  0  0  0
   22.7974    5.6940   54.4374 H   0  0  0  0  0  0  0  0  0  0  0  0
   22.1254    8.2272   54.1611 C   0  0  0  0  0  0  0  0  0  0  0  0
   23.4639    8.0662   54.4430 C   0  0  0  0  0  0  0  0  0  0  0  0
   24.2450    9.1248   54.8997 C   0  0  0  0  0  0  0  0  0  0  0  0
   23.6370   10.3544   55.0647 C   0  0  0  0  0  0  0  0  0  0  0  0
   22.2836   10.5553   54.7891 C   0  0  0  0  0  0  0  0  0  0  0  0
   21.5583    9.4699   54.3392 C   0  0  0  0  0  0  0  0  0  0  0  0
   20.2310    9.6203   54.0567 F   0  0  0  0  0  0  0  0  0  0  0  0
   25.6617    8.9796   55.2060 C   0  0  0  0  0  0  0  0  0  0  0  0
   26.1672    9.5091   56.3722 C   0  0  0  0  0  0  0  0  0  0  0  0
   27.4834    9.3932   56.6852 N   0  0  0  0  0  0  0  0  0  0  0  0
   28.3625    8.7598   55.8816 C   0  0  0  0  0  0  0  0  0  0  0  0
   27.8931    8.2199   54.7111 C   0  0  0  0  0  0  0  0  0  0  0  0
   29.0163    7.3977   53.6594 Cl  0  0  0  0  0  0  0  0  0  0  0  0
   26.5428    8.3274   54.3691 C   0  0  0  0  0  0  0  0  0  0  0  0
  2  1  1  0  0  0
  2 15  1  0  0  0
 15 16  2  0  0  0
 16 17  1  0  0  0
 17 22  1  0  0  0
 22 23  2  0  0  0
 23 24  1  0  0  0
 24 25  2  0  0  0
 25 26  1  0  0  0
 26 27  1  0  0  0
 26 28  2  0  0  0
 17 18  2  0  0  0
 18 19  1  0  0  0
 19 20  2  0  0  0
 20 21  1  0  0  0
  2  3  1  0  0  0
  3  4  1  0  0  0
  4  5  2  0  0  0
  5  6  1  0  0  0
  6  7  2  0  0  0
  7  8  1  0  0  0
  8  9  2  0  0  0
  9 10  1  0  0  0
 10 11  2  0  0  0
 10 12  1  0  0  0
 12  2  1  0  0  0
 20 15  1  0  0  0
  9  4  1  0  0  0
 28 22  1  0  0  0
 11 13  1  0  0  0
 12 14  1  0  0  0
M  END
> <minimizedAffinity>
33.13244

> <CNNscore>
0.3762089014

> <CNNaffinity>
6.2392406464

> <CNN_VS>
2.3472578526

> <CNNaffinity_variance>
0.8550403714

$$$$
[H]/C(C(=O)/C([H])=C(\[H])c1c([H])c([H])c(F)c([H])c1[H])=C(/[H])c1c([H])c([H])c(F)c([H])c1[H]


 20 21  0  0  0  0  0  0  0  0999 V2000
   21.3028    9.2595   51.7961 O   0  0  0  0  0  0  0  0  0  0  0  0
   21.6848    8.3248   52.6546 C   0  0  0  0  0  0  0  0  0  0  0  0
   20.6613    7.3959   52.9391 C   0  0  0  0  0  0  0  0  0  0  0  0
   20.6650    6.1434   53.2777 C   0  0  0  0  0  0  0  0  0  0  0  0
   19.4400    5.3565   53.5303 C   0  0  0  0  0  0  0  0  0  0  0  0
   18.2475    6.0640   53.7338 C   0  0  0  0  0  0  0  0  0  0  0  0
   17.0533    5.4360   53.9760 C   0  0  0  0  0  0  0  0  0  0  0  0
   17.0191    4.0739   54.0215 C   0  0  0  0  0  0  0  0  0  0  0  0
   15.8318    3.4405   54.2625 F   0  0  0  0  0  0  0  0  0  0  0  0
   18.1877    3.3671   53.8224 C   0  0  0  0  0  0  0  0  0  0  0  0
   19.3970    4.0121   53.5769 C   0  0  0  0  0  0  0  0  0  0  0  0
   23.0141    8.4731   53.0818 C   0  0  0  0  0  0  0  0  0  0  0  0
   23.5947    8.0672   54.1671 C   0  0  0  0  0  0  0  0  0  0  0  0
   25.0193    8.3346   54.4176 C   0  0  0  0  0  0  0  0  0  0  0  0
   25.5480    8.7503   55.5901 C   0  0  0  0  0  0  0  0  0  0  0  0
   26.9154    8.9917   55.7777 C   0  0  0  0  0  0  0  0  0  0  0  0
   27.7791    8.8024   54.7307 C   0  0  0  0  0  0  0  0  0  0  0  0
   29.1117    9.0156   54.8387 F   0  0  0  0  0  0  0  0  0  0  0  0
   27.2505    8.3748   53.5175 C   0  0  0  0  0  0  0  0  0  0  0  0
   25.9159    8.1445   53.3521 C   0  0  0  0  0  0  0  0  0  0  0  0
  1  2  2  0  0  0
  2  3  1  0  0  0
  3  4  2  0  0  0
  4  5  1  0  0  0
  5  6  2  0  0  0
  6  7  1  0  0  0
  7  8  2  0  0  0
  8  9  1  0  0  0
  8 10  1  0  0  0
 10 11  2  0  0  0
  2 12  1  0  0  0
 12 13  2  0  0  0
 13 14  1  0  0  0
 14 15  2  0  0  0
 15 16  1  0  0  0
 16 17  2  0  0  0
 17 18  1  0  0  0
 17 19  1  0  0  0
 19 20  2  0  0  0
 11  5  1  0  0  0
 20 14  1  0  0  0
M  END
> <minimizedAffinity>
10.59056

> <CNNscore>
0.6198577881

> <CNNaffinity>
5.3866910934

> <CNN_VS>
3.3389823437

> <CNNaffinity_variance>
0.1112841964

$$$$
[H]/C(C(=O)/C([H])=C(\[H])c1c([H])c([H])c(F)c([H])c1[H])=C(/[H])c1c([H])c([H])c(F)c([H])c1[H]


 20 21  0  0  0  0  0  0  0  0999 V2000
   21.2950    9.1518   51.6588 O   0  0  0  0  0  0  0  0  0  0  0  0
   21.6194    8.2557   52.5797 C   0  0  0  0  0  0  0  0  0  0  0  0
   22.9399    8.4136   53.0516 C   0  0  0  0  0  0  0  0  0  0  0  0
   23.5406    8.0665   54.1481 C   0  0  0  0  0  0  0  0  0  0  0  0
   24.9645    8.3452   54.4289 C   0  0  0  0  0  0  0  0  0  0  0  0
   25.8838    8.1177   53.3959 C   0  0  0  0  0  0  0  0  0  0  0  0
   27.2277    8.3423   53.5463 C   0  0  0  0  0  0  0  0  0  0  0  0
   27.6918    8.8038   54.7422 C   0  0  0  0  0  0  0  0  0  0  0  0
   29.0308    9.0301   54.8998 F   0  0  0  0  0  0  0  0  0  0  0  0
   26.7952    9.0314   55.7664 C   0  0  0  0  0  0  0  0  0  0  0  0
   25.4314    8.8008   55.6061 C   0  0  0  0  0  0  0  0  0  0  0  0
   20.5792    7.3591   52.8728 C   0  0  0  0  0  0  0  0  0  0  0  0
   20.6228    6.1471   53.3296 C   0  0  0  0  0  0  0  0  0  0  0  0
   19.3932    5.3756   53.5678 C   0  0  0  0  0  0  0  0  0  0  0  0
   19.3081    4.0278   53.6245 C   0  0  0  0  0  0  0  0  0  0  0  0
   18.1097    3.3391   53.8546 C   0  0  0  0  0  0  0  0  0  0  0  0
   16.9521    4.0502   54.0343 C   0  0  0  0  0  0  0  0  0  0  0  0
   15.7584    3.4528   54.2608 F   0  0  0  0  0  0  0  0  0  0  0  0
   17.0232    5.4381   53.9789 C   0  0  0  0  0  0  0  0  0  0  0  0
   18.1989    6.0927   53.7537 C   0  0  0  0  0  0  0  0  0  0  0  0
  1  2  2  0  0  0
  2  3  1  0  0  0
  3  4  2  0  0  0
  4  5  1  0  0  0
  5  6  2  0  0  0
  6  7  1  0  0  0
  7  8  2  0  0  0
  8  9  1  0  0  0
  8 10  1  0  0  0
 10 11  2  0  0  0
  2 12  1  0  0  0
 12 13  2  0  0  0
 13 14  1  0  0  0
 14 15  2  0  0  0
 15 16  1  0  0  0
 16 17  2  0  0  0
 17 18  1  0  0  0
 17 19  1  0  0  0
 19 20  2  0  0  0
 11  5  1  0  0  0
 20 14  1  0  0  0
M  END
> <minimizedAffinity>
10.72953

> <CNNscore>
0.6146737337

> <CNNaffinity>
5.3829283714

> <CNN_VS>
3.3087446690

> <CNNaffinity_variance>
0.1237340346

$$$$
[H]/C(C(=O)/C([H])=C(\[H])c1c([H])c([H])c(F)c([H])c1[H])=C(/[H])c1c([H])c([H])c(F)c([H])c1[H]


 20 21  0  0  0  0  0  0  0  0999 V2000
   21.1841    9.2847   51.7495 O   0  0  0  0  0  0  0  0  0  0  0  0
   21.5937    8.3415   52.5855 C   0  0  0  0  0  0  0  0  0  0  0  0
   20.5807    7.4081   52.8919 C   0  0  0  0  0  0  0  0  0  0  0  0
   20.5981    6.1602   53.2467 C   0  0  0  0  0  0  0  0  0  0  0  0
   19.3820    5.3667   53.5212 C   0  0  0  0  0  0  0  0  0  0  0  0
   18.1902    6.0679   53.7487 C   0  0  0  0  0  0  0  0  0  0  0  0
   17.0039    5.4334   54.0125 C   0  0  0  0  0  0  0  0  0  0  0  0
   16.9774    4.0711   54.0562 C   0  0  0  0  0  0  0  0  0  0  0  0
   15.7981    3.4313   54.3187 F   0  0  0  0  0  0  0  0  0  0  0  0
   18.1455    3.3705   53.8335 C   0  0  0  0  0  0  0  0  0  0  0  0
   19.3467    4.0221   53.5662 C   0  0  0  0  0  0  0  0  0  0  0  0
   22.9356    8.4872   52.9726 C   0  0  0  0  0  0  0  0  0  0  0  0
   23.6081    7.8867   53.9037 C   0  0  0  0  0  0  0  0  0  0  0  0
   25.0261    8.1961   54.1427 C   0  0  0  0  0  0  0  0  0  0  0  0
   26.0179    8.0991   53.2294 C   0  0  0  0  0  0  0  0  0  0  0  0
   27.3563    8.4064   53.5078 C   0  0  0  0  0  0  0  0  0  0  0  0
   27.6991    8.8291   54.7655 C   0  0  0  0  0  0  0  0  0  0  0  0
   28.9712    9.1432   55.1064 F   0  0  0  0  0  0  0  0  0  0  0  0
   26.6899    8.9340   55.7166 C   0  0  0  0  0  0  0  0  0  0  0  0
   25.3913    8.6306   55.4284 C   0  0  0  0  0  0  0  0  0  0  0  0
  1  2  2  0  0  0
  2  3  1  0  0  0
  3  4  2  0  0  0
  4  5  1  0  0  0
  5  6  2  0  0  0
  6  7  1  0  0  0
  7  8  2  0  0  0
  8  9  1  0  0  0
  8 10  1  0  0  0
 10 11  2  0  0  0
  2 12  1  0  0  0
 12 13  2  0  0  0
 13 14  1  0  0  0
 14 15  2  0  0  0
 15 16  1  0  0  0
 16 17  2  0  0  0
 17 18  1  0  0  0
 17 19  1  0  0  0
 19 20  2  0  0  0
 11  5  1  0  0  0
 20 14  1  0  0  0
M  END
> <minimizedAffinity>
10.72836

> <CNNscore>
0.6095734239

> <CNNaffinity>
5.4237532616

> <CNN_VS>
3.3061759472

> <CNNaffinity_variance>
0.1316816509

$$$$
[H]/C(C(=O)/C([H])=C(\[H])c1c([H])c([H])c(F)c([H])c1[H])=C(/[H])c1c([H])c([H])c(F)c([H])c1[H]


 20 21  0  0  0  0  0  0  0  0999 V2000
   21.4152    8.9224   52.0309 O   0  0  0  0  0  0  0  0  0  0  0  0
   21.7724    7.9693   52.8797 C   0  0  0  0  0  0  0  0  0  0  0  0
   23.1164    8.0849   53.2938 C   0  0  0  0  0  0  0  0  0  0  0  0
   23.6887    8.6523   54.3107 C   0  0  0  0  0  0  0  0  0  0  0  0
   25.1481    8.6437   54.5429 C   0  0  0  0  0  0  0  0  0  0  0  0
   25.9403    7.9078   53.6515 C   0  0  0  0  0  0  0  0  0  0  0  0
   27.3037    7.8307   53.7723 C   0  0  0  0  0  0  0  0  0  0  0  0
   27.9159    8.4924   54.7951 C   0  0  0  0  0  0  0  0  0  0  0  0
   29.2751    8.4203   54.9221 F   0  0  0  0  0  0  0  0  0  0  0  0
   27.1452    9.2203   55.6788 C   0  0  0  0  0  0  0  0  0  0  0  0
   25.7608    9.2938   55.5496 C   0  0  0  0  0  0  0  0  0  0  0  0
   20.7359    7.0677   53.1705 C   0  0  0  0  0  0  0  0  0  0  0  0
   19.4636    7.1519   52.9383 C   0  0  0  0  0  0  0  0  0  0  0  0
   18.5419    6.0755   53.3328 C   0  0  0  0  0  0  0  0  0  0  0  0
   17.2122    6.2117   53.5331 C   0  0  0  0  0  0  0  0  0  0  0  0
   16.3757    5.1523   53.9092 C   0  0  0  0  0  0  0  0  0  0  0  0
   16.9139    3.9048   54.0884 C   0  0  0  0  0  0  0  0  0  0  0  0
   16.1674    2.8352   54.4511 F   0  0  0  0  0  0  0  0  0  0  0  0
   18.2809    3.7484   53.8860 C   0  0  0  0  0  0  0  0  0  0  0  0
   19.0810    4.7912   53.5199 C   0  0  0  0  0  0  0  0  0  0  0  0
  1  2  2  0  0  0
  2  3  1  0  0  0
  3  4  2  0  0  0
  4  5  1  0  0  0
  5  6  2  0  0  0
  6  7  1  0  0  0
  7  8  2  0  0  0
  8  9  1  0  0  0
  8 10  1  0  0  0
 10 11  2  0  0  0
  2 12  1  0  0  0
 12 13  2  0  0  0
 13 14  1  0  0  0
 14 15  2  0  0  0
 15 16  1  0  0  0
 16 17  2  0  0  0
 17 18  1  0  0  0
 17 19  1  0  0  0
 19 20  2  0  0  0
 11  5  1  0  0  0
 20 14  1  0  0  0
M  END
> <minimizedAffinity>
15.27667

> <CNNscore>
0.5914165974

> <CNNaffinity>
5.0937919617

> <CNN_VS>
3.0125532150

> <CNNaffinity_variance>
0.0925633684

$$$$
[H]/C(C(=O)/C([H])=C(\[H])c1c([H])c([H])c(F)c([H])c1[H])=C(/[H])c1c([H])c([H])c(F)c([H])c1[H]


 20 21  0  0  0  0  0  0  0  0999 V2000
   20.7048    8.1489   51.6880 O   0  0  0  0  0  0  0  0  0  0  0  0
   21.0392    7.2251   52.5776 C   0  0  0  0  0  0  0  0  0  0  0  0
   20.0629    6.2143   52.7059 C   0  0  0  0  0  0  0  0  0  0  0  0
   19.9677    5.1589   53.4546 C   0  0  0  0  0  0  0  0  0  0  0  0
   18.8248    4.2229   53.4143 C   0  0  0  0  0  0  0  0  0  0  0  0
   17.6867    4.5597   54.1595 C   0  0  0  0  0  0  0  0  0  0  0  0
   16.5702    3.7651   54.1943 C   0  0  0  0  0  0  0  0  0  0  0  0
   16.5616    2.6041   53.4797 C   0  0  0  0  0  0  0  0  0  0  0  0
   15.4517    1.8065   53.5094 F   0  0  0  0  0  0  0  0  0  0  0  0
   17.6771    2.2628   52.7422 C   0  0  0  0  0  0  0  0  0  0  0  0
   18.8076    3.0751   52.7119 C   0  0  0  0  0  0  0  0  0  0  0  0
   22.2824    7.4636   53.1851 C   0  0  0  0  0  0  0  0  0  0  0  0
   23.1076    8.4527   53.0426 C   0  0  0  0  0  0  0  0  0  0  0  0
   24.3748    8.5041   53.7878 C   0  0  0  0  0  0  0  0  0  0  0  0
   25.5753    8.0848   53.3293 C   0  0  0  0  0  0  0  0  0  0  0  0
   26.7560    8.1556   54.0805 C   0  0  0  0  0  0  0  0  0  0  0  0
   26.7134    8.6737   55.3485 C   0  0  0  0  0  0  0  0  0  0  0  0
   27.8133    8.7730   56.1316 F   0  0  0  0  0  0  0  0  0  0  0  0
   25.4854    9.1095   55.8347 C   0  0  0  0  0  0  0  0  0  0  0  0
   24.3451    9.0332   55.0894 C   0  0  0  0  0  0  0  0  0  0  0  0
  1  2  2  0  0  0
  2  3  1  0  0  0
  3  4  2  0  0  0
  4  5  1  0  0  0
  5  6  2  0  0  0
  6  7  1  0  0  0
  7  8  2  0  0  0
  8  9  1  0  0  0
  8 10  1  0  0  0
 10 11  2  0  0  0
  2 12  1  0  0  0
 12 13  2  0  0  0
 13 14  1  0  0  0
 14 15  2  0  0  0
 15 16  1  0  0  0
 16 17  2  0  0  0
 17 18  1  0  0  0
 17 19  1  0  0  0
 19 20  2  0  0  0
 11  5  1  0  0  0
 20 14  1  0  0  0
M  END
> <minimizedAffinity>
14.10927

> <CNNscore>
0.5880984664

> <CNNaffinity>
5.2575788498

> <CNN_VS>
3.0919740200

> <CNNaffinity_variance>
0.0540216677

$$$$
[H]/C(C(=O)/C([H])=C(\[H])c1c([H])c([H])c(F)c([H])c1[H])=C(/[H])c1c([H])c([H])c(F)c([H])c1[H]


 20 21  0  0  0  0  0  0  0  0999 V2000
   22.4428    7.8560   51.6130 O   0  0  0  0  0  0  0  0  0  0  0  0
   22.3294    7.4687   52.8754 C   0  0  0  0  0  0  0  0  0  0  0  0
   21.1584    6.7174   53.1112 C   0  0  0  0  0  0  0  0  0  0  0  0
   20.9267    5.4471   53.2388 C   0  0  0  0  0  0  0  0  0  0  0  0
   19.5862    4.8771   53.4877 C   0  0  0  0  0  0  0  0  0  0  0  0
   19.3997    3.5169   53.2069 C   0  0  0  0  0  0  0  0  0  0  0  0
   18.1986    2.8851   53.4002 C   0  0  0  0  0  0  0  0  0  0  0  0
   17.1441    3.6017   53.8832 C   0  0  0  0  0  0  0  0  0  0  0  0
   15.9431    2.9785   54.0786 F   0  0  0  0  0  0  0  0  0  0  0  0
   17.3166    4.9420   54.1632 C   0  0  0  0  0  0  0  0  0  0  0  0
   18.5399    5.5768   53.9641 C   0  0  0  0  0  0  0  0  0  0  0  0
   23.3957    7.8933   53.6844 C   0  0  0  0  0  0  0  0  0  0  0  0
   24.6748    7.8224   53.4883 C   0  0  0  0  0  0  0  0  0  0  0  0
   25.6299    8.3365   54.4819 C   0  0  0  0  0  0  0  0  0  0  0  0
   25.3078    9.0121   55.6075 C   0  0  0  0  0  0  0  0  0  0  0  0
   26.2576    9.4818   56.5243 C   0  0  0  0  0  0  0  0  0  0  0  0
   27.5880    9.2550   56.2862 C   0  0  0  0  0  0  0  0  0  0  0  0
   28.5606    9.6792   57.1271 F   0  0  0  0  0  0  0  0  0  0  0  0
   27.9356    8.5612   55.1321 C   0  0  0  0  0  0  0  0  0  0  0  0
   26.9975    8.1108   54.2498 C   0  0  0  0  0  0  0  0  0  0  0  0
  1  2  2  0  0  0
  2  3  1  0  0  0
  3  4  2  0  0  0
  4  5  1  0  0  0
  5  6  2  0  0  0
  6  7  1  0  0  0
  7  8  2  0  0  0
  8  9  1  0  0  0
  8 10  1  0  0  0
 10 11  2  0  0  0
  2 12  1  0  0  0
 12 13  2  0  0  0
 13 14  1  0  0  0
 14 15  2  0  0  0
 15 16  1  0  0  0
 16 17  2  0  0  0
 17 18  1  0  0  0
 17 19  1  0  0  0
 19 20  2  0  0  0
 11  5  1  0  0  0
 20 14  1  0  0  0
M  END
> <minimizedAffinity>
14.96970

> <CNNscore>
0.5852800608

> <CNNaffinity>
5.1823897362

> <CNN_VS>
3.0331494808

> <CNNaffinity_variance>
0.0279050879

$$$$
[H]/C(C(=O)/C([H])=C(\[H])c1c([H])c([H])c(F)c([H])c1[H])=C(/[H])c1c([H])c([H])c(F)c([H])c1[H]


 20 21  0  0  0  0  0  0  0  0999 V2000
   20.9734    8.5419   54.6649 O   0  0  0  0  0  0  0  0  0  0  0  0
   21.5978    7.4865   54.1623 C   0  0  0  0  0  0  0  0  0  0  0  0
   20.7150    6.4331   53.8422 C   0  0  0  0  0  0  0  0  0  0  0  0
   20.3459    5.3594   54.4701 C   0  0  0  0  0  0  0  0  0  0  0  0
   19.3856    4.3773   53.9247 C   0  0  0  0  0  0  0  0  0  0  0  0
   19.7884    3.6296   52.8101 C   0  0  0  0  0  0  0  0  0  0  0  0
   18.9787    2.6918   52.2233 C   0  0  0  0  0  0  0  0  0  0  0  0
   17.7355    2.4751   52.7392 C   0  0  0  0  0  0  0  0  0  0  0  0
   16.9222    1.5416   52.1596 F   0  0  0  0  0  0  0  0  0  0  0  0
   17.3286    3.2059   53.8370 C   0  0  0  0  0  0  0  0  0  0  0  0
   18.1568    4.1569   54.4275 C   0  0  0  0  0  0  0  0  0  0  0  0
   22.9880    7.6582   54.0645 C   0  0  0  0  0  0  0  0  0  0  0  0
   23.8104    8.2880   54.8434 C   0  0  0  0  0  0  0  0  0  0  0  0
   25.2505    8.3441   54.5490 C   0  0  0  0  0  0  0  0  0  0  0  0
   25.8164    8.1224   53.3417 C   0  0  0  0  0  0  0  0  0  0  0  0
   27.1973    8.1881   53.1127 C   0  0  0  0  0  0  0  0  0  0  0  0
   28.0353    8.4916   54.1537 C   0  0  0  0  0  0  0  0  0  0  0  0
   29.3788    8.5724   54.0068 F   0  0  0  0  0  0  0  0  0  0  0  0
   27.4682    8.7225   55.4024 C   0  0  0  0  0  0  0  0  0  0  0  0
   26.1211    8.6543   55.6077 C   0  0  0  0  0  0  0  0  0  0  0  0
  1  2  2  0  0  0
  2  3  1  0  0  0
  3  4  2  0  0  0
  4  5  1  0  0  0
  5  6  2  0  0  0
  6  7  1  0  0  0
  7  8  2  0  0  0
  8  9  1  0  0  0
  8 10  1  0  0  0
 10 11  2  0  0  0
  2 12  1  0  0  0
 12 13  2  0  0  0
 13 14  1  0  0  0
 14 15  2  0  0  0
 15 16  1  0  0  0
 16 17  2  0  0  0
 17 18  1  0  0  0
 17 19  1  0  0  0
 19 20  2  0  0  0
 11  5  1  0  0  0
 20 14  1  0  0  0
M  END
> <minimizedAffinity>
19.24738

> <CNNscore>
0.5792465806

> <CNNaffinity>
5.2335939407

> <CNN_VS>
3.0315413475

> <CNNaffinity_variance>
0.1110230908

$$$$
[H]/C(C(=O)/C([H])=C(\[H])c1c([H])c([H])c(F)c([H])c1[H])=C(/[H])c1c([H])c([H])c(F)c([H])c1[H]


 20 21  0  0  0  0  0  0  0  0999 V2000
   21.3224    8.6562   55.8557 O   0  0  0  0  0  0  0  0  0  0  0  0
   21.9049    7.7909   55.0381 C   0  0  0  0  0  0  0  0  0  0  0  0
   21.0387    6.7508   54.6392 C   0  0  0  0  0  0  0  0  0  0  0  0
   21.0831    5.8722   53.6855 C   0  0  0  0  0  0  0  0  0  0  0  0
   20.0356    4.8555   53.4552 C   0  0  0  0  0  0  0  0  0  0  0  0
   20.4321    3.6346   52.8931 C   0  0  0  0  0  0  0  0  0  0  0  0
   19.5447    2.6216   52.6367 C   0  0  0  0  0  0  0  0  0  0  0  0
   18.2275    2.8037   52.9376 C   0  0  0  0  0  0  0  0  0  0  0  0
   17.3366    1.7981   52.6847 F   0  0  0  0  0  0  0  0  0  0  0  0
   17.8261    4.0023   53.4916 C   0  0  0  0  0  0  0  0  0  0  0  0
   18.7334    5.0267   53.7491 C   0  0  0  0  0  0  0  0  0  0  0  0
   23.2442    8.1067   54.7580 C   0  0  0  0  0  0  0  0  0  0  0  0
   24.3301    7.7792   55.3851 C   0  0  0  0  0  0  0  0  0  0  0  0
   25.6496    8.2250   54.9121 C   0  0  0  0  0  0  0  0  0  0  0  0
   26.6478    8.6961   55.6924 C   0  0  0  0  0  0  0  0  0  0  0  0
   27.8896    9.1091   55.1917 C   0  0  0  0  0  0  0  0  0  0  0  0
   28.1250    9.0399   53.8434 C   0  0  0  0  0  0  0  0  0  0  0  0
   29.2999    9.4211   53.2891 F   0  0  0  0  0  0  0  0  0  0  0  0
   27.1078    8.5572   53.0271 C   0  0  0  0  0  0  0  0  0  0  0  0
   25.9041    8.1593   53.5315 C   0  0  0  0  0  0  0  0  0  0  0  0
  1  2  2  0  0  0
  2  3  1  0  0  0
  3  4  2  0  0  0
  4  5  1  0  0  0
  5  6  2  0  0  0
  6  7  1  0  0  0
  7  8  2  0  0  0
  8  9  1  0  0  0
  8 10  1  0  0  0
 10 11  2  0  0  0
  2 12  1  0  0  0
 12 13  2  0  0  0
 13 14  1  0  0  0
 14 15  2  0  0  0
 15 16  1  0  0  0
 16 17  2  0  0  0
 17 18  1  0  0  0
 17 19  1  0  0  0
 19 20  2  0  0  0
 11  5  1  0  0  0
 20 14  1  0  0  0
M  END
> <minimizedAffinity>
22.01270

> <CNNscore>
0.5741720200

> <CNNaffinity>
5.1782336235

> <CNN_VS>
2.9731967449

> <CNNaffinity_variance>
0.1242961138

$$$$
[H]/C(C(=O)/C([H])=C(\[H])c1c([H])c([H])c(F)c([H])c1[H])=C(/[H])c1c([H])c([H])c(F)c([H])c1[H]


 20 21  0  0  0  0  0  0  0  0999 V2000
   27.8949    8.0326   53.6360 O   0  0  0  0  0  0  0  0  0  0  0  0
   26.9149    8.5924   52.9412 C   0  0  0  0  0  0  0  0  0  0  0  0
   27.3737    9.2284   51.7680 C   0  0  0  0  0  0  0  0  0  0  0  0
   27.9077    8.7911   50.6693 C   0  0  0  0  0  0  0  0  0  0  0  0
   28.3184    9.6649   49.5505 C   0  0  0  0  0  0  0  0  0  0  0  0
   28.4515   11.0346   49.8151 C   0  0  0  0  0  0  0  0  0  0  0  0
   28.8268   11.9354   48.8522 C   0  0  0  0  0  0  0  0  0  0  0  0
   29.0807   11.4875   47.5899 C   0  0  0  0  0  0  0  0  0  0  0  0
   29.4554   12.3798   46.6243 F   0  0  0  0  0  0  0  0  0  0  0  0
   28.9527   10.1404   47.3183 C   0  0  0  0  0  0  0  0  0  0  0  0
   28.5710    9.2314   48.3016 C   0  0  0  0  0  0  0  0  0  0  0  0
   25.6510    8.4247   53.5296 C   0  0  0  0  0  0  0  0  0  0  0  0
   24.4954    8.2103   52.9835 C   0  0  0  0  0  0  0  0  0  0  0  0
   23.2803    8.0632   53.7993 C   0  0  0  0  0  0  0  0  0  0  0  0
   23.0691    7.1080   54.7321 C   0  0  0  0  0  0  0  0  0  0  0  0
   21.8909    7.0108   55.4844 C   0  0  0  0  0  0  0  0  0  0  0  0
   20.8879    7.9218   55.2793 C   0  0  0  0  0  0  0  0  0  0  0  0
   19.7231    7.8896   55.9686 F   0  0  0  0  0  0  0  0  0  0  0  0
   21.0900    8.9110   54.3228 C   0  0  0  0  0  0  0  0  0  0  0  0
   22.2438    8.9910   53.5989 C   0  0  0  0  0  0  0  0  0  0  0  0
  1  2  2  0  0  0
  2  3  1  0  0  0
  3  4  2  0  0  0
  4  5  1  0  0  0
  5  6  2  0  0  0
  6  7  1  0  0  0
  7  8  2  0  0  0
  8  9  1  0  0  0
  8 10  1  0  0  0
 10 11  2  0  0  0
  2 12  1  0  0  0
 12 13  2  0  0  0
 13 14  1  0  0  0
 14 15  2  0  0  0
 15 16  1  0  0  0
 16 17  2  0  0  0
 17 18  1  0  0  0
 17 19  1  0  0  0
 19 20  2  0  0  0
 11  5  1  0  0  0
 20 14  1  0  0  0
M  END
> <minimizedAffinity>
15.97589

> <CNNscore>
0.5722034574

> <CNNaffinity>
5.0971450806

> <CNN_VS>
2.9166040421

> <CNNaffinity_variance>
0.0915859938

$$$$
[H]Oc1c([H])c([H])c(N([H])c2nc([H])c(F)c(N([H])c3c([H])c([H])c(C(=O)N([H])[H])c([H])c3[H])n2)c([H])c1[H]


 30 32  0  0  0  0  0  0  0  0999 V2000
   26.4429    8.1783   55.3498 C   0  0  0  0  0  0  0  0  0  0  0  0
   26.8930    8.4126   56.5714 N   0  0  0  0  0  0  0  0  0  0  0  0
   28.0348    9.1249   56.7972 C   0  0  0  0  0  0  0  0  0  0  0  0
   28.6964    9.5868   55.7256 N   0  0  0  0  0  0  0  0  0  0  0  0
   28.3034    9.3899   54.4728 C   0  0  0  0  0  0  0  0  0  0  0  0
   27.1521    8.6720   54.2383 C   0  0  0  0  0  0  0  0  0  0  0  0
   26.7039    8.4406   52.9917 F   0  0  0  0  0  0  0  0  0  0  0  0
   25.2738    7.4239   55.0743 N   0  0  0  0  0  0  0  0  0  0  0  0
   25.2025    6.4652   55.5293 H   0  0  0  0  0  0  0  0  0  0  0  0
   22.0129    8.3795   52.5808 C   0  0  0  0  0  0  0  0  0  0  0  0
   22.3409    9.1600   53.6395 C   0  0  0  0  0  0  0  0  0  0  0  0
   23.4208    8.8800   54.4842 C   0  0  0  0  0  0  0  0  0  0  0  0
   24.1862    7.7927   54.2601 C   0  0  0  0  0  0  0  0  0  0  0  0
   23.8659    6.9641   53.1639 C   0  0  0  0  0  0  0  0  0  0  0  0
   22.8065    7.2585   52.3531 C   0  0  0  0  0  0  0  0  0  0  0  0
   19.9905    7.6458   51.3438 N   0  0  0  0  0  0  0  0  0  0  0  0
   20.8888    8.6663   51.6974 C   0  0  0  0  0  0  0  0  0  0  0  0
   20.7289    9.8216   51.2576 O   0  0  0  0  0  0  0  0  0  0  0  0
   20.1216    7.1332   50.4513 H   0  0  0  0  0  0  0  0  0  0  0  0
   19.1929    7.3849   51.9506 H   0  0  0  0  0  0  0  0  0  0  0  0
   28.4562    9.3025   58.1265 N   0  0  0  0  0  0  0  0  0  0  0  0
   28.6886    8.4296   58.6862 H   0  0  0  0  0  0  0  0  0  0  0  0
   28.5923   10.5368   58.7650 C   0  0  0  0  0  0  0  0  0  0  0  0
   29.2233   10.7270   59.9587 C   0  0  0  0  0  0  0  0  0  0  0  0
   29.3116   11.9913   60.5814 C   0  0  0  0  0  0  0  0  0  0  0  0
   28.7438   13.0824   59.9696 C   0  0  0  0  0  0  0  0  0  0  0  0
   28.8258   14.3340   60.5765 O   0  0  0  0  0  0  0  0  0  0  0  0
   28.0951   12.9349   58.7578 C   0  0  0  0  0  0  0  0  0  0  0  0
   28.0279   11.6951   58.1830 C   0  0  0  0  0  0  0  0  0  0  0  0
   28.0746   14.5806   61.2098 H   0  0  0  0  0  0  0  0  0  0  0  0
 16 17  1  0  0  0
 17 18  2  0  0  0
 17 10  1  0  0  0
 10 11  2  0  0  0
 11 12  1  0  0  0
 12 13  2  0  0  0
 13  8  1  0  0  0
  8  1  1  0  0  0
  1  2  2  0  0  0
  2  3  1  0  0  0
  3 21  1  0  0  0
 21 23  1  0  0  0
 23 24  2  0  0  0
 24 25  1  0  0  0
 25 26  2  0  0  0
 26 27  1  0  0  0
 26 28  1  0  0  0
 28 29  2  0  0  0
  3  4  2  0  0  0
  4  5  1  0  0  0
  5  6  2  0  0  0
  6  7  1  0  0  0
 13 14  1  0  0  0
 14 15  2  0  0  0
 15 10  1  0  0  0
  6  1  1  0  0  0
 29 23  1  0  0  0
 16 19  1  0  0  0
 16 20  1  0  0  0
  8  9  1  0  0  0
 21 22  1  0  0  0
 27 30  1  0  0  0
M  END
> <minimizedAffinity>
2.16423

> <CNNscore>
0.7277273536

> <CNNaffinity>
6.2744870186

> <CNN_VS>
4.5661158562

> <CNNaffinity_variance>
0.3948617578

$$$$
[H]Oc1c([H])c([H])c(N([H])c2nc([H])c(F)c(N([H])c3c([H])c([H])c(C(=O)N([H])[H])c([H])c3[H])n2)c([H])c1[H]


 30 32  0  0  0  0  0  0  0  0999 V2000
   27.0945    8.3677   53.3906 C   0  0  0  0  0  0  0  0  0  0  0  0
   27.2131    8.8970   52.1842 N   0  0  0  0  0  0  0  0  0  0  0  0
   28.1360    9.8626   51.9056 C   0  0  0  0  0  0  0  0  0  0  0  0
   28.9311   10.2644   52.9085 N   0  0  0  0  0  0  0  0  0  0  0  0
   28.8679    9.7779   54.1422 C   0  0  0  0  0  0  0  0  0  0  0  0
   27.9387    8.8032   54.4297 C   0  0  0  0  0  0  0  0  0  0  0  0
   27.8278    8.2722   55.6601 F   0  0  0  0  0  0  0  0  0  0  0  0
   26.1333    7.3793   53.7242 N   0  0  0  0  0  0  0  0  0  0  0  0
   26.5038    6.4139   53.9733 H   0  0  0  0  0  0  0  0  0  0  0  0
   21.9292    7.6480   53.8537 C   0  0  0  0  0  0  0  0  0  0  0  0
   22.7107    8.7276   54.1012 C   0  0  0  0  0  0  0  0  0  0  0  0
   24.1086    8.6793   54.0592 C   0  0  0  0  0  0  0  0  0  0  0  0
   24.7334    7.5218   53.7628 C   0  0  0  0  0  0  0  0  0  0  0  0
   23.9422    6.3832   53.5007 C   0  0  0  0  0  0  0  0  0  0  0  0
   22.5789    6.4553   53.5476 C   0  0  0  0  0  0  0  0  0  0  0  0
   19.7157    6.8681   53.0470 N   0  0  0  0  0  0  0  0  0  0  0  0
   20.4723    7.6924   53.8963 C   0  0  0  0  0  0  0  0  0  0  0  0
   19.9016    8.4657   54.6901 O   0  0  0  0  0  0  0  0  0  0  0  0
   19.3619    7.2451   52.1474 H   0  0  0  0  0  0  0  0  0  0  0  0
   19.4967    5.8858   53.2911 H   0  0  0  0  0  0  0  0  0  0  0  0
   28.1744   10.3904   50.6032 N   0  0  0  0  0  0  0  0  0  0  0  0
   28.0372   11.4387   50.4965 H   0  0  0  0  0  0  0  0  0  0  0  0
   28.3789    9.6423   49.4420 C   0  0  0  0  0  0  0  0  0  0  0  0
   29.0961    8.4842   49.3820 C   0  0  0  0  0  0  0  0  0  0  0  0
   29.3006    7.7758   48.1777 C   0  0  0  0  0  0  0  0  0  0  0  0
   28.7595    8.2618   47.0124 C   0  0  0  0  0  0  0  0  0  0  0  0
   28.9561    7.5696   45.8191 O   0  0  0  0  0  0  0  0  0  0  0  0
   28.0243    9.4324   47.0278 C   0  0  0  0  0  0  0  0  0  0  0  0
   27.8463   10.0935   48.2125 C   0  0  0  0  0  0  0  0  0  0  0  0
   29.7754    7.8211   45.2790 H   0  0  0  0  0  0  0  0  0  0  0  0
 16 17  1  0  0  0
 17 18  2  0  0  0
 17 10  1  0  0  0
 10 11  2  0  0  0
 11 12  1  0  0  0
 12 13  2  0  0  0
 13  8  1  0  0  0
  8  1  1  0  0  0
  1  2  2  0  0  0
  2  3  1  0  0  0
  3 21  1  0  0  0
 21 23  1  0  0  0
 23 24  2  0  0  0
 24 25  1  0  0  0
 25 26  2  0  0  0
 26 27  1  0  0  0
 26 28  1  0  0  0
 28 29  2  0  0  0
  3  4  2  0  0  0
  4  5  1  0  0  0
  5  6  2  0  0  0
  6  7  1  0  0  0
 13 14  1  0  0  0
 14 15  2  0  0  0
 15 10  1  0  0  0
  6  1  1  0  0  0
 29 23  1  0  0  0
 16 19  1  0  0  0
 16 20  1  0  0  0
  8  9  1  0  0  0
 21 22  1  0  0  0
 27 30  1  0  0  0
M  END
> <minimizedAffinity>
17.58649

> <CNNscore>
0.6387556791

> <CNNaffinity>
6.2250123024

> <CNN_VS>
3.9762618542

> <CNNaffinity_variance>
0.1445626020

$$$$
[H]Oc1c([H])c([H])c(N([H])c2nc([H])c(F)c(N([H])c3c([H])c([H])c(C(=O)N([H])[H])c([H])c3[H])n2)c([H])c1[H]


 30 32  0  0  0  0  0  0  0  0999 V2000
   24.0323    7.3554   53.4022 C   0  0  0  0  0  0  0  0  0  0  0  0
   23.1323    8.1260   52.8141 N   0  0  0  0  0  0  0  0  0  0  0  0
   21.8042    7.8129   52.8097 C   0  0  0  0  0  0  0  0  0  0  0  0
   21.4344    6.6821   53.4295 N   0  0  0  0  0  0  0  0  0  0  0  0
   22.2821    5.8623   54.0393 C   0  0  0  0  0  0  0  0  0  0  0  0
   23.6236    6.1727   54.0474 C   0  0  0  0  0  0  0  0  0  0  0  0
   24.5294    5.3816   54.6490 F   0  0  0  0  0  0  0  0  0  0  0  0
   25.4228    7.6354   53.4087 N   0  0  0  0  0  0  0  0  0  0  0  0
   25.9696    7.3734   52.5349 H   0  0  0  0  0  0  0  0  0  0  0  0
   27.5486    9.3814   56.6019 C   0  0  0  0  0  0  0  0  0  0  0  0
   28.1946    8.8232   55.5489 C   0  0  0  0  0  0  0  0  0  0  0  0
   27.5237    8.2422   54.4671 C   0  0  0  0  0  0  0  0  0  0  0  0
   26.1756    8.2214   54.4439 C   0  0  0  0  0  0  0  0  0  0  0  0
   25.4794    8.7963   55.5282 C   0  0  0  0  0  0  0  0  0  0  0  0
   26.1569    9.3580   56.5730 C   0  0  0  0  0  0  0  0  0  0  0  0
   28.5932    9.2082   58.8463 N   0  0  0  0  0  0  0  0  0  0  0  0
   28.2425    9.9881   57.7318 C   0  0  0  0  0  0  0  0  0  0  0  0
   28.5230   11.2023   57.7038 O   0  0  0  0  0  0  0  0  0  0  0  0
   27.9704    9.1895   59.6760 H   0  0  0  0  0  0  0  0  0  0  0  0
   29.4619    8.6450   58.8681 H   0  0  0  0  0  0  0  0  0  0  0  0
   20.9199    8.6736   52.1364 N   0  0  0  0  0  0  0  0  0  0  0  0
   20.0302    8.2482   51.7407 H   0  0  0  0  0  0  0  0  0  0  0  0
   21.1223   10.0425   51.9491 C   0  0  0  0  0  0  0  0  0  0  0  0
   20.9671   10.6939   50.7613 C   0  0  0  0  0  0  0  0  0  0  0  0
   21.2111   12.0769   50.6128 C   0  0  0  0  0  0  0  0  0  0  0  0
   21.6210   12.8073   51.7016 C   0  0  0  0  0  0  0  0  0  0  0  0
   21.8643   14.1724   51.5647 O   0  0  0  0  0  0  0  0  0  0  0  0
   21.7901   12.1870   52.9255 C   0  0  0  0  0  0  0  0  0  0  0  0
   21.5452   10.8452   53.0334 C   0  0  0  0  0  0  0  0  0  0  0  0
   22.8077   14.4415   51.3122 H   0  0  0  0  0  0  0  0  0  0  0  0
 16 17  1  0  0  0
 17 18  2  0  0  0
 17 10  1  0  0  0
 10 11  2  0  0  0
 11 12  1  0  0  0
 12 13  2  0  0  0
 13  8  1  0  0  0
  8  1  1  0  0  0
  1  2  2  0  0  0
  2  3  1  0  0  0
  3 21  1  0  0  0
 21 23  1  0  0  0
 23 24  2  0  0  0
 24 25  1  0  0  0
 25 26  2  0  0  0
 26 27  1  0  0  0
 26 28  1  0  0  0
 28 29  2  0  0  0
  3  4  2  0  0  0
  4  5  1  0  0  0
  5  6  2  0  0  0
  6  7  1  0  0  0
 13 14  1  0  0  0
 14 15  2  0  0  0
 15 10  1  0  0  0
  6  1  1  0  0  0
 29 23  1  0  0  0
 16 19  1  0  0  0
 16 20  1  0  0  0
  8  9  1  0  0  0
 21 22  1  0  0  0
 27 30  1  0  0  0
M  END
> <minimizedAffinity>
5.66141

> <CNNscore>
0.6345704794

> <CNNaffinity>
6.2212524414

> <CNN_VS>
3.9478230476

> <CNNaffinity_variance>
0.1233851090

$$$$
[H]Oc1c([H])c([H])c(N([H])c2nc([H])c(F)c(N([H])c3c([H])c([H])c(C(=O)N([H])[H])c([H])c3[H])n2)c([H])c1[H]


 30 32  0  0  0  0  0  0  0  0999 V2000
   27.1905    8.5665   53.3733 C   0  0  0  0  0  0  0  0  0  0  0  0
   25.8946    8.4668   53.6190 N   0  0  0  0  0  0  0  0  0  0  0  0
   25.3771    8.6691   54.8653 C   0  0  0  0  0  0  0  0  0  0  0  0
   26.2366    8.9767   55.8482 N   0  0  0  0  0  0  0  0  0  0  0  0
   27.5477    9.0932   55.6741 C   0  0  0  0  0  0  0  0  0  0  0  0
   28.0760    8.8904   54.4189 C   0  0  0  0  0  0  0  0  0  0  0  0
   29.3954    8.9950   54.1811 F   0  0  0  0  0  0  0  0  0  0  0  0
   27.7681    8.3416   52.0975 N   0  0  0  0  0  0  0  0  0  0  0  0
   28.1418    7.3647   51.9049 H   0  0  0  0  0  0  0  0  0  0  0  0
   28.2861   11.1984   49.0423 C   0  0  0  0  0  0  0  0  0  0  0  0
   27.8847    9.9343   48.7622 C   0  0  0  0  0  0  0  0  0  0  0  0
   27.6937    8.9614   49.7497 C   0  0  0  0  0  0  0  0  0  0  0  0
   27.9113    9.2656   51.0451 C   0  0  0  0  0  0  0  0  0  0  0  0
   28.3294   10.5752   51.3631 C   0  0  0  0  0  0  0  0  0  0  0  0
   28.5089   11.5079   50.3813 C   0  0  0  0  0  0  0  0  0  0  0  0
   27.5872   13.2888   47.9018 N   0  0  0  0  0  0  0  0  0  0  0  0
   28.4869   12.2162   48.0174 C   0  0  0  0  0  0  0  0  0  0  0  0
   29.4609   12.1296   47.2445 O   0  0  0  0  0  0  0  0  0  0  0  0
   26.8111   13.2358   47.2152 H   0  0  0  0  0  0  0  0  0  0  0  0
   27.6733   14.1400   48.4851 H   0  0  0  0  0  0  0  0  0  0  0  0
   23.9912    8.5150   55.0433 N   0  0  0  0  0  0  0  0  0  0  0  0
   23.6182    8.5599   56.0373 H   0  0  0  0  0  0  0  0  0  0  0  0
   23.0701    8.3080   54.0145 C   0  0  0  0  0  0  0  0  0  0  0  0
   22.8031    7.0984   53.4445 C   0  0  0  0  0  0  0  0  0  0  0  0
   21.8825    6.9415   52.3853 C   0  0  0  0  0  0  0  0  0  0  0  0
   21.2217    8.0440   51.9008 C   0  0  0  0  0  0  0  0  0  0  0  0
   20.3116    7.8989   50.8557 O   0  0  0  0  0  0  0  0  0  0  0  0
   21.4614    9.2896   52.4503 C   0  0  0  0  0  0  0  0  0  0  0  0
   22.3604    9.4055   53.4753 C   0  0  0  0  0  0  0  0  0  0  0  0
   20.6816    7.9877   49.9169 H   0  0  0  0  0  0  0  0  0  0  0  0
 16 17  1  0  0  0
 17 18  2  0  0  0
 17 10  1  0  0  0
 10 11  2  0  0  0
 11 12  1  0  0  0
 12 13  2  0  0  0
 13  8  1  0  0  0
  8  1  1  0  0  0
  1  2  2  0  0  0
  2  3  1  0  0  0
  3 21  1  0  0  0
 21 23  1  0  0  0
 23 24  2  0  0  0
 24 25  1  0  0  0
 25 26  2  0  0  0
 26 27  1  0  0  0
 26 28  1  0  0  0
 28 29  2  0  0  0
  3  4  2  0  0  0
  4  5  1  0  0  0
  5  6  2  0  0  0
  6  7  1  0  0  0
 13 14  1  0  0  0
 14 15  2  0  0  0
 15 10  1  0  0  0
  6  1  1  0  0  0
 29 23  1  0  0  0
 16 19  1  0  0  0
 16 20  1  0  0  0
  8  9  1  0  0  0
 21 22  1  0  0  0
 27 30  1  0  0  0
M  END
> <minimizedAffinity>
17.90880

> <CNNscore>
0.5857223868

> <CNNaffinity>
6.3567056656

> <CNN_VS>
3.7232649326

> <CNNaffinity_variance>
0.0926584974

$$$$
[H]Oc1c([H])c([H])c(N([H])c2nc([H])c(F)c(N([H])c3c([H])c([H])c(C(=O)N([H])[H])c([H])c3[H])n2)c([H])c1[H]


 30 32  0  0  0  0  0  0  0  0999 V2000
   27.2814    8.7325   55.9972 C   0  0  0  0  0  0  0  0  0  0  0  0
   25.9633    8.8057   56.0814 N   0  0  0  0  0  0  0  0  0  0  0  0
   25.1613    8.6961   54.9829 C   0  0  0  0  0  0  0  0  0  0  0  0
   25.7603    8.5090   53.7973 N   0  0  0  0  0  0  0  0  0  0  0  0
   27.0759    8.4259   53.6388 C   0  0  0  0  0  0  0  0  0  0  0  0
   27.8906    8.5358   54.7433 C   0  0  0  0  0  0  0  0  0  0  0  0
   29.2296    8.4592   54.6454 F   0  0  0  0  0  0  0  0  0  0  0  0
   28.1486    8.8643   57.1119 N   0  0  0  0  0  0  0  0  0  0  0  0
   28.7271    8.0111   57.3739 H   0  0  0  0  0  0  0  0  0  0  0  0
   28.6067   12.3392   59.4526 C   0  0  0  0  0  0  0  0  0  0  0  0
   28.9711   11.1213   59.9233 C   0  0  0  0  0  0  0  0  0  0  0  0
   28.8423    9.9471   59.1730 C   0  0  0  0  0  0  0  0  0  0  0  0
   28.3361    9.9986   57.9243 C   0  0  0  0  0  0  0  0  0  0  0  0
   27.9495   11.2547   57.4109 C   0  0  0  0  0  0  0  0  0  0  0  0
   28.0852   12.3873   58.1626 C   0  0  0  0  0  0  0  0  0  0  0  0
   30.0112   14.0461   60.5807 N   0  0  0  0  0  0  0  0  0  0  0  0
   28.7385   13.5659   60.2299 C   0  0  0  0  0  0  0  0  0  0  0  0
   27.7163   14.1864   60.5816 O   0  0  0  0  0  0  0  0  0  0  0  0
   30.4077   13.8162   61.5116 H   0  0  0  0  0  0  0  0  0  0  0  0
   30.5733   14.6281   59.9345 H   0  0  0  0  0  0  0  0  0  0  0  0
   23.7717    8.8141   55.1593 N   0  0  0  0  0  0  0  0  0  0  0  0
   23.4272    9.1803   56.0955 H   0  0  0  0  0  0  0  0  0  0  0  0
   22.8122    8.4873   54.1988 C   0  0  0  0  0  0  0  0  0  0  0  0
   22.2525    7.2528   54.0506 C   0  0  0  0  0  0  0  0  0  0  0  0
   21.3052    6.9611   53.0449 C   0  0  0  0  0  0  0  0  0  0  0  0
   20.9227    7.9526   52.1745 C   0  0  0  0  0  0  0  0  0  0  0  0
   19.9886    7.6741   51.1788 O   0  0  0  0  0  0  0  0  0  0  0  0
   21.4643    9.2193   52.2895 C   0  0  0  0  0  0  0  0  0  0  0  0
   22.3802    9.4669   53.2754 C   0  0  0  0  0  0  0  0  0  0  0  0
   20.3548    7.3482   50.2923 H   0  0  0  0  0  0  0  0  0  0  0  0
 16 17  1  0  0  0
 17 18  2  0  0  0
 17 10  1  0  0  0
 10 11  2  0  0  0
 11 12  1  0  0  0
 12 13  2  0  0  0
 13  8  1  0  0  0
  8  1  1  0  0  0
  1  2  2  0  0  0
  2  3  1  0  0  0
  3 21  1  0  0  0
 21 23  1  0  0  0
 23 24  2  0  0  0
 24 25  1  0  0  0
 25 26  2  0  0  0
 26 27  1  0  0  0
 26 28  1  0  0  0
 28 29  2  0  0  0
  3  4  2  0  0  0
  4  5  1  0  0  0
  5  6  2  0  0  0
  6  7  1  0  0  0
 13 14  1  0  0  0
 14 15  2  0  0  0
 15 10  1  0  0  0
  6  1  1  0  0  0
 29 23  1  0  0  0
 16 19  1  0  0  0
 16 20  1  0  0  0
  8  9  1  0  0  0
 21 22  1  0  0  0
 27 30  1  0  0  0
M  END
> <minimizedAffinity>
0.46382

> <CNNscore>
0.5683821440

> <CNNaffinity>
6.0968289375

> <CNN_VS>
3.4653286934

> <CNNaffinity_variance>
0.2970045805

$$$$
[H]Oc1c([H])c([H])c(N([H])c2nc([H])c(F)c(N([H])c3c([H])c([H])c(C(=O)N([H])[H])c([H])c3[H])n2)c([H])c1[H]


 30 32  0  0  0  0  0  0  0  0999 V2000
   23.7540    8.1463   54.6440 C   0  0  0  0  0  0  0  0  0  0  0  0
   24.8375    8.8677   54.8788 N   0  0  0  0  0  0  0  0  0  0  0  0
   26.0656    8.2959   55.0426 C   0  0  0  0  0  0  0  0  0  0  0  0
   26.1407    6.9593   54.9569 N   0  0  0  0  0  0  0  0  0  0  0  0
   25.0960    6.1737   54.7239 C   0  0  0  0  0  0  0  0  0  0  0  0
   23.8541    6.7446   54.5577 C   0  0  0  0  0  0  0  0  0  0  0  0
   22.7595    6.0008   54.3189 F   0  0  0  0  0  0  0  0  0  0  0  0
   22.4579    8.7019   54.4908 N   0  0  0  0  0  0  0  0  0  0  0  0
   21.7033    8.3503   55.1527 H   0  0  0  0  0  0  0  0  0  0  0  0
   21.2814   11.7135   51.7871 C   0  0  0  0  0  0  0  0  0  0  0  0
   21.3590   10.4155   51.4037 C   0  0  0  0  0  0  0  0  0  0  0  0
   21.7371    9.3874   52.2744 C   0  0  0  0  0  0  0  0  0  0  0  0
   22.0440    9.6702   53.5565 C   0  0  0  0  0  0  0  0  0  0  0  0
   21.9707   11.0139   53.9807 C   0  0  0  0  0  0  0  0  0  0  0  0
   21.5987   12.0003   53.1119 C   0  0  0  0  0  0  0  0  0  0  0  0
   20.8333   14.1142   51.3463 N   0  0  0  0  0  0  0  0  0  0  0  0
   20.8882   12.7889   50.8841 C   0  0  0  0  0  0  0  0  0  0  0  0
   20.6010   12.5261   49.7000 O   0  0  0  0  0  0  0  0  0  0  0  0
   19.9283   14.5097   51.6644 H   0  0  0  0  0  0  0  0  0  0  0  0
   21.6749   14.7166   51.3808 H   0  0  0  0  0  0  0  0  0  0  0  0
   27.1592    9.1354   55.3171 N   0  0  0  0  0  0  0  0  0  0  0  0
   27.6448    9.5917   54.4894 H   0  0  0  0  0  0  0  0  0  0  0  0
   27.6540    9.4142   56.5928 C   0  0  0  0  0  0  0  0  0  0  0  0
   27.8697    8.4799   57.5621 C   0  0  0  0  0  0  0  0  0  0  0  0
   28.3452    8.8127   58.8494 C   0  0  0  0  0  0  0  0  0  0  0  0
   28.6059   10.1275   59.1499 C   0  0  0  0  0  0  0  0  0  0  0  0
   29.0752   10.4656   60.4176 O   0  0  0  0  0  0  0  0  0  0  0  0
   28.4022   11.1075   58.1963 C   0  0  0  0  0  0  0  0  0  0  0  0
   27.9400   10.7495   56.9592 C   0  0  0  0  0  0  0  0  0  0  0  0
   28.3752   10.6788   61.1181 H   0  0  0  0  0  0  0  0  0  0  0  0
 16 17  1  0  0  0
 17 18  2  0  0  0
 17 10  1  0  0  0
 10 11  2  0  0  0
 11 12  1  0  0  0
 12 13  2  0  0  0
 13  8  1  0  0  0
  8  1  1  0  0  0
  1  2  2  0  0  0
  2  3  1  0  0  0
  3 21  1  0  0  0
 21 23  1  0  0  0
 23 24  2  0  0  0
 24 25  1  0  0  0
 25 26  2  0  0  0
 26 27  1  0  0  0
 26 28  1  0  0  0
 28 29  2  0  0  0
  3  4  2  0  0  0
  4  5  1  0  0  0
  5  6  2  0  0  0
  6  7  1  0  0  0
 13 14  1  0  0  0
 14 15  2  0  0  0
 15 10  1  0  0  0
  6  1  1  0  0  0
 29 23  1  0  0  0
 16 19  1  0  0  0
 16 20  1  0  0  0
  8  9  1  0  0  0
 21 22  1  0  0  0
 27 30  1  0  0  0
M  END
> <minimizedAffinity>
11.93420

> <CNNscore>
0.5529102087

> <CNNaffinity>
5.8616418839

> <CNN_VS>
3.2409615517

> <CNNaffinity_variance>
0.0803327933

$$$$
[H]Oc1c([H])c([H])c(N([H])c2nc([H])c(F)c(N([H])c3c([H])c([H])c(C(=O)N([H])[H])c([H])c3[H])n2)c([H])c1[H]


 30 32  0  0  0  0  0  0  0  0999 V2000
   22.4135    7.6512   53.2623 C   0  0  0  0  0  0  0  0  0  0  0  0
   23.6619    8.0851   53.2081 N   0  0  0  0  0  0  0  0  0  0  0  0
   24.7198    7.2868   53.5332 C   0  0  0  0  0  0  0  0  0  0  0  0
   24.4500    6.0296   53.9153 N   0  0  0  0  0  0  0  0  0  0  0  0
   23.2233    5.5276   53.9925 C   0  0  0  0  0  0  0  0  0  0  0  0
   22.1516    6.3280   53.6657 C   0  0  0  0  0  0  0  0  0  0  0  0
   20.8866    5.8756   53.7242 F   0  0  0  0  0  0  0  0  0  0  0  0
   21.2874    8.4568   52.9542 N   0  0  0  0  0  0  0  0  0  0  0  0
   20.3302    8.0060   53.0628 H   0  0  0  0  0  0  0  0  0  0  0  0
   21.3469   12.5018   51.7719 C   0  0  0  0  0  0  0  0  0  0  0  0
   21.1652   11.5078   50.8683 C   0  0  0  0  0  0  0  0  0  0  0  0
   21.1310   10.1548   51.2238 C   0  0  0  0  0  0  0  0  0  0  0  0
   21.2832    9.7939   52.5140 C   0  0  0  0  0  0  0  0  0  0  0  0
   21.4734   10.8101   53.4744 C   0  0  0  0  0  0  0  0  0  0  0  0
   21.5028   12.1243   53.1028 C   0  0  0  0  0  0  0  0  0  0  0  0
   20.2465   14.7185   51.5864 N   0  0  0  0  0  0  0  0  0  0  0  0
   21.3835   13.9132   51.4072 C   0  0  0  0  0  0  0  0  0  0  0  0
   22.4288   14.4016   50.9355 O   0  0  0  0  0  0  0  0  0  0  0  0
   19.6010   14.8794   50.7902 H   0  0  0  0  0  0  0  0  0  0  0  0
   20.0283   15.1618   52.4964 H   0  0  0  0  0  0  0  0  0  0  0  0
   26.0117    7.8379   53.4751 N   0  0  0  0  0  0  0  0  0  0  0  0
   26.5140    7.8080   52.5392 H   0  0  0  0  0  0  0  0  0  0  0  0
   26.6828    8.4203   54.5522 C   0  0  0  0  0  0  0  0  0  0  0  0
   28.0362    8.5625   54.6373 C   0  0  0  0  0  0  0  0  0  0  0  0
   28.6736    9.1330   55.7609 C   0  0  0  0  0  0  0  0  0  0  0  0
   27.9106    9.5672   56.8174 C   0  0  0  0  0  0  0  0  0  0  0  0
   28.5307   10.1314   57.9304 O   0  0  0  0  0  0  0  0  0  0  0  0
   26.5345    9.4432   56.7726 C   0  0  0  0  0  0  0  0  0  0  0  0
   25.9500    8.8851   55.6684 C   0  0  0  0  0  0  0  0  0  0  0  0
   28.7938    9.4953   58.6736 H   0  0  0  0  0  0  0  0  0  0  0  0
 16 17  1  0  0  0
 17 18  2  0  0  0
 17 10  1  0  0  0
 10 11  2  0  0  0
 11 12  1  0  0  0
 12 13  2  0  0  0
 13  8  1  0  0  0
  8  1  1  0  0  0
  1  2  2  0  0  0
  2  3  1  0  0  0
  3 21  1  0  0  0
 21 23  1  0  0  0
 23 24  2  0  0  0
 24 25  1  0  0  0
 25 26  2  0  0  0
 26 27  1  0  0  0
 26 28  1  0  0  0
 28 29  2  0  0  0
  3  4  2  0  0  0
  4  5  1  0  0  0
  5  6  2  0  0  0
  6  7  1  0  0  0
 13 14  1  0  0  0
 14 15  2  0  0  0
 15 10  1  0  0  0
  6  1  1  0  0  0
 29 23  1  0  0  0
 16 19  1  0  0  0
 16 20  1  0  0  0
  8  9  1  0  0  0
 21 22  1  0  0  0
 27 30  1  0  0  0
M  END
> <minimizedAffinity>
6.79444

> <CNNscore>
0.5461120009

> <CNNaffinity>
5.9733195305

> <CNN_VS>
3.2621014118

> <CNNaffinity_variance>
0.1247092634

$$$$
[H]Oc1c([H])c([H])c(N([H])c2nc([H])c(F)c(N([H])c3c([H])c([H])c(C(=O)N([H])[H])c([H])c3[H])n2)c([H])c1[H]


 30 32  0  0  0  0  0  0  0  0999 V2000
   23.9408    8.6817   54.2567 C   0  0  0  0  0  0  0  0  0  0  0  0
   25.2058    8.5302   54.6125 N   0  0  0  0  0  0  0  0  0  0  0  0
   25.7451    9.2025   55.6704 C   0  0  0  0  0  0  0  0  0  0  0  0
   24.9402   10.0345   56.3482 N   0  0  0  0  0  0  0  0  0  0  0  0
   23.6627   10.2354   56.0477 C   0  0  0  0  0  0  0  0  0  0  0  0
   23.1126    9.5598   54.9814 C   0  0  0  0  0  0  0  0  0  0  0  0
   21.8248    9.7217   54.6294 F   0  0  0  0  0  0  0  0  0  0  0  0
   23.3506    8.0182   53.1506 N   0  0  0  0  0  0  0  0  0  0  0  0
   23.7451    8.2436   52.1890 H   0  0  0  0  0  0  0  0  0  0  0  0
   20.2606    5.1572   53.3237 C   0  0  0  0  0  0  0  0  0  0  0  0
   20.0530    6.3848   52.7875 C   0  0  0  0  0  0  0  0  0  0  0  0
   21.0558    7.3573   52.7048 C   0  0  0  0  0  0  0  0  0  0  0  0
   22.2924    7.0901   53.1713 C   0  0  0  0  0  0  0  0  0  0  0  0
   22.5344    5.8190   53.7339 C   0  0  0  0  0  0  0  0  0  0  0  0
   21.5391    4.8859   53.8033 C   0  0  0  0  0  0  0  0  0  0  0  0
   18.0034    4.4288   54.0540 N   0  0  0  0  0  0  0  0  0  0  0  0
   19.2194    4.1401   53.4126 C   0  0  0  0  0  0  0  0  0  0  0  0
   19.4138    3.0132   52.9166 O   0  0  0  0  0  0  0  0  0  0  0  0
   17.8725    4.1641   55.0486 H   0  0  0  0  0  0  0  0  0  0  0  0
   17.2247    4.9020   53.5622 H   0  0  0  0  0  0  0  0  0  0  0  0
   27.1059    9.0035   55.9614 N   0  0  0  0  0  0  0  0  0  0  0  0
   27.6871    8.4773   55.2441 H   0  0  0  0  0  0  0  0  0  0  0  0
   27.7496    9.4443   57.1195 C   0  0  0  0  0  0  0  0  0  0  0  0
   28.1366    8.6359   58.1471 C   0  0  0  0  0  0  0  0  0  0  0  0
   28.7601    9.1310   59.3133 C   0  0  0  0  0  0  0  0  0  0  0  0
   28.9930   10.4798   59.4294 C   0  0  0  0  0  0  0  0  0  0  0  0
   29.6076   10.9776   60.5765 O   0  0  0  0  0  0  0  0  0  0  0  0
   28.6177   11.3357   58.4107 C   0  0  0  0  0  0  0  0  0  0  0  0
   28.0152   10.8218   57.2948 C   0  0  0  0  0  0  0  0  0  0  0  0
   28.9960   11.2463   61.3381 H   0  0  0  0  0  0  0  0  0  0  0  0
 16 17  1  0  0  0
 17 18  2  0  0  0
 17 10  1  0  0  0
 10 11  2  0  0  0
 11 12  1  0  0  0
 12 13  2  0  0  0
 13  8  1  0  0  0
  8  1  1  0  0  0
  1  2  2  0  0  0
  2  3  1  0  0  0
  3 21  1  0  0  0
 21 23  1  0  0  0
 23 24  2  0  0  0
 24 25  1  0  0  0
 25 26  2  0  0  0
 26 27  1  0  0  0
 26 28  1  0  0  0
 28 29  2  0  0  0
  3  4  2  0  0  0
  4  5  1  0  0  0
  5  6  2  0  0  0
  6  7  1  0  0  0
 13 14  1  0  0  0
 14 15  2  0  0  0
 15 10  1  0  0  0
  6  1  1  0  0  0
 29 23  1  0  0  0
 16 19  1  0  0  0
 16 20  1  0  0  0
  8  9  1  0  0  0
 21 22  1  0  0  0
 27 30  1  0  0  0
M  END
> <minimizedAffinity>
10.90712

> <CNNscore>
0.5388388038

> <CNNaffinity>
5.9557342529

> <CNN_VS>
3.2091808319

> <CNNaffinity_variance>
0.1446482390

$$$$
[H]Oc1c([H])c([H])c(N([H])c2nc([H])c(F)c(N([H])c3c([H])c([H])c(C(=O)N([H])[H])c([H])c3[H])n2)c([H])c1[H]


 30 32  0  0  0  0  0  0  0  0999 V2000
   22.9351    7.2741   53.0061 C   0  0  0  0  0  0  0  0  0  0  0  0
   22.4527    6.0763   53.2928 N   0  0  0  0  0  0  0  0  0  0  0  0
   21.1115    5.8291   53.3400 C   0  0  0  0  0  0  0  0  0  0  0  0
   20.2854    6.8542   53.0829 N   0  0  0  0  0  0  0  0  0  0  0  0
   20.6990    8.0810   52.7886 C   0  0  0  0  0  0  0  0  0  0  0  0
   22.0511    8.3369   52.7393 C   0  0  0  0  0  0  0  0  0  0  0  0
   22.5299    9.5589   52.4462 F   0  0  0  0  0  0  0  0  0  0  0  0
   24.3208    7.5752   52.9696 N   0  0  0  0  0  0  0  0  0  0  0  0
   24.8271    7.3964   52.0516 H   0  0  0  0  0  0  0  0  0  0  0  0
   26.8265    9.1024   55.9950 C   0  0  0  0  0  0  0  0  0  0  0  0
   25.4766    9.1755   56.0965 C   0  0  0  0  0  0  0  0  0  0  0  0
   24.6127    8.6724   55.1174 C   0  0  0  0  0  0  0  0  0  0  0  0
   25.1164    8.0843   54.0135 C   0  0  0  0  0  0  0  0  0  0  0  0
   26.5186    7.9953   53.8841 C   0  0  0  0  0  0  0  0  0  0  0  0
   27.3416    8.4938   54.8538 C   0  0  0  0  0  0  0  0  0  0  0  0
   28.0110    8.8705   58.1634 N   0  0  0  0  0  0  0  0  0  0  0  0
   27.7314    9.6251   57.0120 C   0  0  0  0  0  0  0  0  0  0  0  0
   28.2557   10.7450   56.8546 O   0  0  0  0  0  0  0  0  0  0  0  0
   27.4759    9.0465   59.0347 H   0  0  0  0  0  0  0  0  0  0  0  0
   28.7411    8.1363   58.1720 H   0  0  0  0  0  0  0  0  0  0  0  0
   20.6854    4.5336   53.6806 N   0  0  0  0  0  0  0  0  0  0  0  0
   21.4214    3.8549   54.0367 H   0  0  0  0  0  0  0  0  0  0  0  0
   19.3706    4.0727   53.5865 C   0  0  0  0  0  0  0  0  0  0  0  0
   18.3390    4.5071   54.3653 C   0  0  0  0  0  0  0  0  0  0  0  0
   17.0295    3.9906   54.2534 C   0  0  0  0  0  0  0  0  0  0  0  0
   16.7707    3.0113   53.3255 C   0  0  0  0  0  0  0  0  0  0  0  0
   15.4817    2.4956   53.2079 O   0  0  0  0  0  0  0  0  0  0  0  0
   17.7872    2.5425   52.5143 C   0  0  0  0  0  0  0  0  0  0  0  0
   19.0446    3.0649   52.6501 C   0  0  0  0  0  0  0  0  0  0  0  0
   15.2604    1.6928   53.7848 H   0  0  0  0  0  0  0  0  0  0  0  0
 16 17  1  0  0  0
 17 18  2  0  0  0
 17 10  1  0  0  0
 10 11  2  0  0  0
 11 12  1  0  0  0
 12 13  2  0  0  0
 13  8  1  0  0  0
  8  1  1  0  0  0
  1  2  2  0  0  0
  2  3  1  0  0  0
  3 21  1  0  0  0
 21 23  1  0  0  0
 23 24  2  0  0  0
 24 25  1  0  0  0
 25 26  2  0  0  0
 26 27  1  0  0  0
 26 28  1  0  0  0
 28 29  2  0  0  0
  3  4  2  0  0  0
  4  5  1  0  0  0
  5  6  2  0  0  0
  6  7  1  0  0  0
 13 14  1  0  0  0
 14 15  2  0  0  0
 15 10  1  0  0  0
  6  1  1  0  0  0
 29 23  1  0  0  0
 16 19  1  0  0  0
 16 20  1  0  0  0
  8  9  1  0  0  0
 21 22  1  0  0  0
 27 30  1  0  0  0
M  END
> <minimizedAffinity>
11.45531

> <CNNscore>
0.5185204148

> <CNNaffinity>
6.2655916214

> <CNN_VS>
3.2488372326

> <CNNaffinity_variance>
0.3093474507

$$$$
[H]OC(=O)[C@@]1([H])N(C(=O)[C@@]([H])(N([H])[C@]([H])(C(=O)O[H])C([H])([H])C([H])([H])c2c([H])c([H])c([H])c([H])c2[H])C([H])([H])[H])C([H])([H])c2c([H])c([H])c([H])c([H])c2C1([H])[H]


 33 35  0  0  0  0  0  0  0  0999 V2000
   20.3736    7.8311   54.6187 C   0  0  0  0  0  0  0  0  0  0  0  0
   20.3074    7.9147   53.0855 C   0  0  0  0  0  0  0  0  0  0  0  0
   21.6014    8.4401   52.6411 C   0  0  0  0  0  0  0  0  0  0  0  0
   21.9146    8.2095   51.4214 O   0  0  0  0  0  0  0  0  0  0  0  0
   22.5330    9.1689   53.4106 N   0  0  0  0  0  0  0  0  0  0  0  0
   23.8029    9.5602   52.7555 C   0  0  0  0  0  0  0  0  0  0  0  0
   24.9079    8.9223   53.5630 C   0  0  0  0  0  0  0  0  0  0  0  0
   25.9336    8.2019   53.0124 C   0  0  0  0  0  0  0  0  0  0  0  0
   26.8961    7.6186   53.8523 C   0  0  0  0  0  0  0  0  0  0  0  0
   26.7696    7.7958   55.2136 C   0  0  0  0  0  0  0  0  0  0  0  0
   25.7083    8.5393   55.7461 C   0  0  0  0  0  0  0  0  0  0  0  0
   24.7606    9.1153   54.9308 C   0  0  0  0  0  0  0  0  0  0  0  0
   23.6528    9.9331   55.4212 C   0  0  0  0  0  0  0  0  0  0  0  0
   22.3530    9.5721   54.7766 C   0  0  0  0  0  0  0  0  0  0  0  0
   21.3716   10.6902   54.8891 C   0  0  0  0  0  0  0  0  0  0  0  0
   21.1950   11.4479   53.9218 O   0  0  0  0  0  0  0  0  0  0  0  0
   20.6831   10.8612   56.0552 O   0  0  0  0  0  0  0  0  0  0  0  0
   20.0348   10.1250   56.3298 H   0  0  0  0  0  0  0  0  0  0  0  0
   20.0953    6.5367   52.6563 N   0  0  0  0  0  0  0  0  0  0  0  0
   19.0559    6.3792   52.6918 H   0  0  0  0  0  0  0  0  0  0  0  0
   20.6873    5.6505   53.6316 C   0  0  0  0  0  0  0  0  0  0  0  0
   22.1749    5.7688   53.6397 C   0  0  0  0  0  0  0  0  0  0  0  0
   22.8379    5.7762   54.7068 O   0  0  0  0  0  0  0  0  0  0  0  0
   22.9012    5.8765   52.4617 O   0  0  0  0  0  0  0  0  0  0  0  0
   22.6285    6.4568   51.6818 H   0  0  0  0  0  0  0  0  0  0  0  0
   20.2507    4.2209   53.4361 C   0  0  0  0  0  0  0  0  0  0  0  0
   19.3051    3.7640   54.5218 C   0  0  0  0  0  0  0  0  0  0  0  0
   17.9363    3.5305   53.9983 C   0  0  0  0  0  0  0  0  0  0  0  0
   16.8403    4.2440   54.4671 C   0  0  0  0  0  0  0  0  0  0  0  0
   15.5576    4.0496   54.0047 C   0  0  0  0  0  0  0  0  0  0  0  0
   15.3250    3.1032   53.0259 C   0  0  0  0  0  0  0  0  0  0  0  0
   16.4027    2.3702   52.5343 C   0  0  0  0  0  0  0  0  0  0  0  0
   17.6708    2.5908   53.0193 C   0  0  0  0  0  0  0  0  0  0  0  0
  1  2  1  0  0  0
  2 19  1  0  0  0
 19 21  1  0  0  0
 21 26  1  0  0  0
 26 27  1  0  0  0
 27 28  1  0  0  0
 28 29  2  0  0  0
 29 30  1  0  0  0
 30 31  2  0  0  0
 31 32  1  0  0  0
 32 33  2  0  0  0
 21 22  1  0  0  0
 22 23  2  0  0  0
 22 24  1  0  0  0
  2  3  1  0  0  0
  3  4  2  0  0  0
  3  5  1  0  0  0
  5  6  1  0  0  0
  6  7  1  0  0  0
  7  8  2  0  0  0
  8  9  1  0  0  0
  9 10  2  0  0  0
 10 11  1  0  0  0
 11 12  2  0  0  0
 12 13  1  0  0  0
 13 14  1  0  0  0
 14 15  1  0  0  0
 15 16  2  0  0  0
 15 17  1  0  0  0
 33 28  1  0  0  0
 14  5  1  0  0  0
 12  7  1  0  0  0
 19 20  1  0  0  0
 24 25  1  0  0  0
 17 18  1  0  0  0
M  END
> <minimizedAffinity>
20.96285

> <CNNscore>
0.5771607161

> <CNNaffinity>
6.4679937363

> <CNN_VS>
3.7330718040

> <CNNaffinity_variance>
0.5940011144

$$$$
[H]OC(=O)[C@@]1([H])N(C(=O)[C@@]([H])(N([H])[C@]([H])(C(=O)O[H])C([H])([H])C([H])([H])c2c([H])c([H])c([H])c([H])c2[H])C([H])([H])[H])C([H])([H])c2c([H])c([H])c([H])c([H])c2C1([H])[H]


 33 35  0  0  0  0  0  0  0  0999 V2000
   22.0639   11.5060   54.3074 C   0  0  0  0  0  0  0  0  0  0  0  0
   22.2460   10.0515   53.8455 C   0  0  0  0  0  0  0  0  0  0  0  0
   23.1097    9.4050   54.8374 C   0  0  0  0  0  0  0  0  0  0  0  0
   22.7544    9.5298   56.0610 O   0  0  0  0  0  0  0  0  0  0  0  0
   24.2845    8.6641   54.5882 N   0  0  0  0  0  0  0  0  0  0  0  0
   25.0225    8.1387   55.7605 C   0  0  0  0  0  0  0  0  0  0  0  0
   26.4027    8.7477   55.6974 C   0  0  0  0  0  0  0  0  0  0  0  0
   27.0161    9.3531   56.7610 C   0  0  0  0  0  0  0  0  0  0  0  0
   28.2896    9.9203   56.5921 C   0  0  0  0  0  0  0  0  0  0  0  0
   28.8793    9.8448   55.3484 C   0  0  0  0  0  0  0  0  0  0  0  0
   28.2255    9.2176   54.2798 C   0  0  0  0  0  0  0  0  0  0  0  0
   26.9776    8.6583   54.4360 C   0  0  0  0  0  0  0  0  0  0  0  0
   26.2601    7.9577   53.3724 C   0  0  0  0  0  0  0  0  0  0  0  0
   24.8246    8.3678   53.2916 C   0  0  0  0  0  0  0  0  0  0  0  0
   24.0120    7.3338   52.5869 C   0  0  0  0  0  0  0  0  0  0  0  0
   22.9299    7.6546   52.0702 O   0  0  0  0  0  0  0  0  0  0  0  0
   24.4731    6.0507   52.5216 O   0  0  0  0  0  0  0  0  0  0  0  0
   25.3302    5.8861   51.9964 H   0  0  0  0  0  0  0  0  0  0  0  0
   20.8957    9.4992   53.8470 N   0  0  0  0  0  0  0  0  0  0  0  0
   20.7590    9.0715   54.7981 H   0  0  0  0  0  0  0  0  0  0  0  0
   20.8348    8.4196   52.8890 C   0  0  0  0  0  0  0  0  0  0  0  0
   20.9060    8.9318   51.4891 C   0  0  0  0  0  0  0  0  0  0  0  0
   21.0180   10.1563   51.2315 O   0  0  0  0  0  0  0  0  0  0  0  0
   20.8518    8.0747   50.3987 O   0  0  0  0  0  0  0  0  0  0  0  0
   20.2161    7.2937   50.3260 H   0  0  0  0  0  0  0  0  0  0  0  0
   19.6218    7.5483   53.0945 C   0  0  0  0  0  0  0  0  0  0  0  0
   19.9913    6.0930   53.2592 C   0  0  0  0  0  0  0  0  0  0  0  0
   21.1768    5.9210   54.1353 C   0  0  0  0  0  0  0  0  0  0  0  0
   22.3115    5.2423   53.7087 C   0  0  0  0  0  0  0  0  0  0  0  0
   23.4264    5.0630   54.4974 C   0  0  0  0  0  0  0  0  0  0  0  0
   23.4398    5.5748   55.7803 C   0  0  0  0  0  0  0  0  0  0  0  0
   22.3175    6.2608   56.2388 C   0  0  0  0  0  0  0  0  0  0  0  0
   21.2212    6.4212   55.4236 C   0  0  0  0  0  0  0  0  0  0  0  0
  1  2  1  0  0  0
  2 19  1  0  0  0
 19 21  1  0  0  0
 21 26  1  0  0  0
 26 27  1  0  0  0
 27 28  1  0  0  0
 28 29  2  0  0  0
 29 30  1  0  0  0
 30 31  2  0  0  0
 31 32  1  0  0  0
 32 33  2  0  0  0
 21 22  1  0  0  0
 22 23  2  0  0  0
 22 24  1  0  0  0
  2  3  1  0  0  0
  3  4  2  0  0  0
  3  5  1  0  0  0
  5  6  1  0  0  0
  6  7  1  0  0  0
  7  8  2  0  0  0
  8  9  1  0  0  0
  9 10  2  0  0  0
 10 11  1  0  0  0
 11 12  2  0  0  0
 12 13  1  0  0  0
 13 14  1  0  0  0
 14 15  1  0  0  0
 15 16  2  0  0  0
 15 17  1  0  0  0
 33 28  1  0  0  0
 14  5  1  0  0  0
 12  7  1  0  0  0
 19 20  1  0  0  0
 24 25  1  0  0  0
 17 18  1  0  0  0
M  END
> <minimizedAffinity>
15.85316

> <CNNscore>
0.5636736751

> <CNNaffinity>
6.1691727638

> <CNN_VS>
3.4774003029

> <CNNaffinity_variance>
0.5728585124

$$$$
[H]OC(=O)[C@@]1([H])N(C(=O)[C@@]([H])(N([H])[C@]([H])(C(=O)O[H])C([H])([H])C([H])([H])c2c([H])c([H])c([H])c([H])c2[H])C([H])([H])[H])C([H])([H])c2c([H])c([H])c([H])c([H])c2C1([H])[H]


 33 35  0  0  0  0  0  0  0  0999 V2000
   21.6281   11.0525   53.9957 C   0  0  0  0  0  0  0  0  0  0  0  0
   22.0291    9.5793   53.8199 C   0  0  0  0  0  0  0  0  0  0  0  0
   22.9701    9.2724   54.9007 C   0  0  0  0  0  0  0  0  0  0  0  0
   22.7614    9.8665   56.0154 O   0  0  0  0  0  0  0  0  0  0  0  0
   24.0752    8.3969   54.8432 N   0  0  0  0  0  0  0  0  0  0  0  0
   24.9171    8.2787   56.0565 C   0  0  0  0  0  0  0  0  0  0  0  0
   26.3070    8.7051   55.6485 C   0  0  0  0  0  0  0  0  0  0  0  0
   27.0629    9.6053   56.3501 C   0  0  0  0  0  0  0  0  0  0  0  0
   28.3330    9.9630   55.8694 C   0  0  0  0  0  0  0  0  0  0  0  0
   28.7742    9.3877   54.6969 C   0  0  0  0  0  0  0  0  0  0  0  0
   27.9766    8.4689   54.0024 C   0  0  0  0  0  0  0  0  0  0  0  0
   26.7308    8.1118   54.4661 C   0  0  0  0  0  0  0  0  0  0  0  0
   25.8674    7.1321   53.8093 C   0  0  0  0  0  0  0  0  0  0  0  0
   24.4514    7.6017   53.7088 C   0  0  0  0  0  0  0  0  0  0  0  0
   23.5194    6.4527   53.5163 C   0  0  0  0  0  0  0  0  0  0  0  0
   23.2343    5.7286   54.4835 O   0  0  0  0  0  0  0  0  0  0  0  0
   22.9947    6.2170   52.2785 O   0  0  0  0  0  0  0  0  0  0  0  0
   22.3716    6.9233   51.8906 H   0  0  0  0  0  0  0  0  0  0  0  0
   20.7762    8.8443   53.9546 N   0  0  0  0  0  0  0  0  0  0  0  0
   20.8006    8.4032   54.9092 H   0  0  0  0  0  0  0  0  0  0  0  0
   20.7655    7.7652   52.9942 C   0  0  0  0  0  0  0  0  0  0  0  0
   20.8664    8.2811   51.5974 C   0  0  0  0  0  0  0  0  0  0  0  0
   20.8485    9.5100   51.3371 O   0  0  0  0  0  0  0  0  0  0  0  0
   20.9859    7.4227   50.5132 O   0  0  0  0  0  0  0  0  0  0  0  0
   20.4537    6.5714   50.4063 H   0  0  0  0  0  0  0  0  0  0  0  0
   19.5655    6.8685   53.1636 C   0  0  0  0  0  0  0  0  0  0  0  0
   19.9594    5.4619   53.5482 C   0  0  0  0  0  0  0  0  0  0  0  0
   18.7976    4.5389   53.5272 C   0  0  0  0  0  0  0  0  0  0  0  0
   17.5921    4.8634   54.1366 C   0  0  0  0  0  0  0  0  0  0  0  0
   16.4966    4.0285   54.1376 C   0  0  0  0  0  0  0  0  0  0  0  0
   16.5772    2.8021   53.5074 C   0  0  0  0  0  0  0  0  0  0  0  0
   17.7723    2.4461   52.8866 C   0  0  0  0  0  0  0  0  0  0  0  0
   18.8466    3.3049   52.9052 C   0  0  0  0  0  0  0  0  0  0  0  0
  1  2  1  0  0  0
  2 19  1  0  0  0
 19 21  1  0  0  0
 21 26  1  0  0  0
 26 27  1  0  0  0
 27 28  1  0  0  0
 28 29  2  0  0  0
 29 30  1  0  0  0
 30 31  2  0  0  0
 31 32  1  0  0  0
 32 33  2  0  0  0
 21 22  1  0  0  0
 22 23  2  0  0  0
 22 24  1  0  0  0
  2  3  1  0  0  0
  3  4  2  0  0  0
  3  5  1  0  0  0
  5  6  1  0  0  0
  6  7  1  0  0  0
  7  8  2  0  0  0
  8  9  1  0  0  0
  9 10  2  0  0  0
 10 11  1  0  0  0
 11 12  2  0  0  0
 12 13  1  0  0  0
 13 14  1  0  0  0
 14 15  1  0  0  0
 15 16  2  0  0  0
 15 17  1  0  0  0
 33 28  1  0  0  0
 14  5  1  0  0  0
 12  7  1  0  0  0
 19 20  1  0  0  0
 24 25  1  0  0  0
 17 18  1  0  0  0
M  END
> <minimizedAffinity>
13.95047

> <CNNscore>
0.5553730726

> <CNNaffinity>
6.5331749916

> <CNN_VS>
3.6283495426

> <CNNaffinity_variance>
0.4019686580

$$$$
[H]OC(=O)[C@@]1([H])N(C(=O)[C@@]([H])(N([H])[C@]([H])(C(=O)O[H])C([H])([H])C([H])([H])c2c([H])c([H])c([H])c([H])c2[H])C([H])([H])[H])C([H])([H])c2c([H])c([H])c([H])c([H])c2C1([H])[H]


 33 35  0  0  0  0  0  0  0  0999 V2000
   23.0321    5.3686   55.4953 C   0  0  0  0  0  0  0  0  0  0  0  0
   22.4520    6.2374   54.3681 C   0  0  0  0  0  0  0  0  0  0  0  0
   23.5898    6.9055   53.7303 C   0  0  0  0  0  0  0  0  0  0  0  0
   24.0703    6.3319   52.6914 O   0  0  0  0  0  0  0  0  0  0  0  0
   24.2083    8.1067   54.1374 N   0  0  0  0  0  0  0  0  0  0  0  0
   25.3801    8.5701   53.3581 C   0  0  0  0  0  0  0  0  0  0  0  0
   26.5341    8.6340   54.3298 C   0  0  0  0  0  0  0  0  0  0  0  0
   27.7656    8.0887   54.0846 C   0  0  0  0  0  0  0  0  0  0  0  0
   28.7653    8.1716   55.0675 C   0  0  0  0  0  0  0  0  0  0  0  0
   28.4646    8.8057   56.2541 C   0  0  0  0  0  0  0  0  0  0  0  0
   27.1943    9.3542   56.4742 C   0  0  0  0  0  0  0  0  0  0  0  0
   26.2086    9.2784   55.5166 C   0  0  0  0  0  0  0  0  0  0  0  0
   24.8775    9.8629   55.6698 C   0  0  0  0  0  0  0  0  0  0  0  0
   23.7942    8.9259   55.2411 C   0  0  0  0  0  0  0  0  0  0  0  0
   22.5386    9.6681   54.9270 C   0  0  0  0  0  0  0  0  0  0  0  0
   21.8238   10.0797   55.8546 O   0  0  0  0  0  0  0  0  0  0  0  0
   22.1969    9.8828   53.6231 O   0  0  0  0  0  0  0  0  0  0  0  0
   22.8111   10.4768   53.0685 H   0  0  0  0  0  0  0  0  0  0  0  0
   21.8007    5.2852   53.4753 N   0  0  0  0  0  0  0  0  0  0  0  0
   22.3736    5.2769   52.5933 H   0  0  0  0  0  0  0  0  0  0  0  0
   20.4962    5.7963   53.1233 C   0  0  0  0  0  0  0  0  0  0  0  0
   20.4991    7.2870   53.0509 C   0  0  0  0  0  0  0  0  0  0  0  0
   20.8362    7.9038   52.0097 O   0  0  0  0  0  0  0  0  0  0  0  0
   20.1268    8.0674   54.1367 O   0  0  0  0  0  0  0  0  0  0  0  0
   20.4103    7.8827   55.0879 H   0  0  0  0  0  0  0  0  0  0  0  0
   19.4213    5.2933   54.0530 C   0  0  0  0  0  0  0  0  0  0  0  0
   18.6655    4.1250   53.4653 C   0  0  0  0  0  0  0  0  0  0  0  0
   19.4962    2.8960   53.4234 C   0  0  0  0  0  0  0  0  0  0  0  0
   20.1385    2.4842   52.2624 C   0  0  0  0  0  0  0  0  0  0  0  0
   20.9137    1.3481   52.1895 C   0  0  0  0  0  0  0  0  0  0  0  0
   21.0750    0.5631   53.3145 C   0  0  0  0  0  0  0  0  0  0  0  0
   20.4440    0.9481   54.4952 C   0  0  0  0  0  0  0  0  0  0  0  0
   19.6771    2.0893   54.5318 C   0  0  0  0  0  0  0  0  0  0  0  0
  1  2  1  0  0  0
  2 19  1  0  0  0
 19 21  1  0  0  0
 21 26  1  0  0  0
 26 27  1  0  0  0
 27 28  1  0  0  0
 28 29  2  0  0  0
 29 30  1  0  0  0
 30 31  2  0  0  0
 31 32  1  0  0  0
 32 33  2  0  0  0
 21 22  1  0  0  0
 22 23  2  0  0  0
 22 24  1  0  0  0
  2  3  1  0  0  0
  3  4  2  0  0  0
  3  5  1  0  0  0
  5  6  1  0  0  0
  6  7  1  0  0  0
  7  8  2  0  0  0
  8  9  1  0  0  0
  9 10  2  0  0  0
 10 11  1  0  0  0
 11 12  2  0  0  0
 12 13  1  0  0  0
 13 14  1  0  0  0
 14 15  1  0  0  0
 15 16  2  0  0  0
 15 17  1  0  0  0
 33 28  1  0  0  0
 14  5  1  0  0  0
 12  7  1  0  0  0
 19 20  1  0  0  0
 24 25  1  0  0  0
 17 18  1  0  0  0
M  END
> <minimizedAffinity>
25.96784

> <CNNscore>
0.5253345966

> <CNNaffinity>
6.0736131668

> <CNN_VS>
3.1906790733

> <CNNaffinity_variance>
0.2980707288

$$$$
[H]OC(=O)[C@@]1([H])N(C(=O)[C@@]([H])(N([H])[C@]([H])(C(=O)O[H])C([H])([H])C([H])([H])c2c([H])c([H])c([H])c([H])c2[H])C([H])([H])[H])C([H])([H])c2c([H])c([H])c([H])c([H])c2C1([H])[H]


 33 35  0  0  0  0  0  0  0  0999 V2000
   24.1649    5.8217   54.8286 C   0  0  0  0  0  0  0  0  0  0  0  0
   24.7089    6.6935   53.6857 C   0  0  0  0  0  0  0  0  0  0  0  0
   23.5463    7.1378   52.9118 C   0  0  0  0  0  0  0  0  0  0  0  0
   23.5110    6.7698   51.6861 O   0  0  0  0  0  0  0  0  0  0  0  0
   22.4683    7.9235   53.3717 N   0  0  0  0  0  0  0  0  0  0  0  0
   21.4210    8.2887   52.3894 C   0  0  0  0  0  0  0  0  0  0  0  0
   21.3987    9.7976   52.3381 C   0  0  0  0  0  0  0  0  0  0  0  0
   21.4222   10.5194   51.1751 C   0  0  0  0  0  0  0  0  0  0  0  0
   21.4327   11.9225   51.2336 C   0  0  0  0  0  0  0  0  0  0  0  0
   21.4189   12.5253   52.4733 C   0  0  0  0  0  0  0  0  0  0  0  0
   21.3943   11.7582   53.6454 C   0  0  0  0  0  0  0  0  0  0  0  0
   21.3832   10.3827   53.5980 C   0  0  0  0  0  0  0  0  0  0  0  0
   21.3193    9.5274   54.7817 C   0  0  0  0  0  0  0  0  0  0  0  0
   22.2937    8.3953   54.7162 C   0  0  0  0  0  0  0  0  0  0  0  0
   21.8908    7.2894   55.6331 C   0  0  0  0  0  0  0  0  0  0  0  0
   21.7519    6.1414   55.1816 O   0  0  0  0  0  0  0  0  0  0  0  0
   21.6819    7.5587   56.9548 O   0  0  0  0  0  0  0  0  0  0  0  0
   22.4838    7.8632   57.5042 H   0  0  0  0  0  0  0  0  0  0  0  0
   25.3772    7.8005   54.3611 N   0  0  0  0  0  0  0  0  0  0  0  0
   24.8321    8.6643   54.1098 H   0  0  0  0  0  0  0  0  0  0  0  0
   26.6976    7.9591   53.7971 C   0  0  0  0  0  0  0  0  0  0  0  0
   27.6475    8.5356   54.7935 C   0  0  0  0  0  0  0  0  0  0  0  0
   28.8788    8.2882   54.7622 O   0  0  0  0  0  0  0  0  0  0  0  0
   27.2133    9.3777   55.8078 O   0  0  0  0  0  0  0  0  0  0  0  0
   26.3765    9.2220   56.3509 H   0  0  0  0  0  0  0  0  0  0  0  0
   26.6767    8.7686   52.5255 C   0  0  0  0  0  0  0  0  0  0  0  0
   28.0326    9.3505   52.2022 C   0  0  0  0  0  0  0  0  0  0  0  0
   28.1816    9.6282   50.7520 C   0  0  0  0  0  0  0  0  0  0  0  0
   28.1949   10.9239   50.2511 C   0  0  0  0  0  0  0  0  0  0  0  0
   28.3286   11.2153   48.9115 C   0  0  0  0  0  0  0  0  0  0  0  0
   28.4575   10.1838   48.0020 C   0  0  0  0  0  0  0  0  0  0  0  0
   28.4480    8.8724   48.4718 C   0  0  0  0  0  0  0  0  0  0  0  0
   28.3126    8.6181   49.8168 C   0  0  0  0  0  0  0  0  0  0  0  0
  1  2  1  0  0  0
  2 19  1  0  0  0
 19 21  1  0  0  0
 21 26  1  0  0  0
 26 27  1  0  0  0
 27 28  1  0  0  0
 28 29  2  0  0  0
 29 30  1  0  0  0
 30 31  2  0  0  0
 31 32  1  0  0  0
 32 33  2  0  0  0
 21 22  1  0  0  0
 22 23  2  0  0  0
 22 24  1  0  0  0
  2  3  1  0  0  0
  3  4  2  0  0  0
  3  5  1  0  0  0
  5  6  1  0  0  0
  6  7  1  0  0  0
  7  8  2  0  0  0
  8  9  1  0  0  0
  9 10  2  0  0  0
 10 11  1  0  0  0
 11 12  2  0  0  0
 12 13  1  0  0  0
 13 14  1  0  0  0
 14 15  1  0  0  0
 15 16  2  0  0  0
 15 17  1  0  0  0
 33 28  1  0  0  0
 14  5  1  0  0  0
 12  7  1  0  0  0
 19 20  1  0  0  0
 24 25  1  0  0  0
 17 18  1  0  0  0
M  END
> <minimizedAffinity>
15.06841

> <CNNscore>
0.5160726905

> <CNNaffinity>
6.0878167152

> <CNN_VS>
3.1417560577

> <CNNaffinity_variance>
0.1721424609

$$$$
[H]OC(=O)[C@@]1([H])N(C(=O)[C@@]([H])(N([H])[C@]([H])(C(=O)O[H])C([H])([H])C([H])([H])c2c([H])c([H])c([H])c([H])c2[H])C([H])([H])[H])C([H])([H])c2c([H])c([H])c([H])c([H])c2C1([H])[H]


 33 35  0  0  0  0  0  0  0  0999 V2000
   25.2169    8.5515   55.7479 C   0  0  0  0  0  0  0  0  0  0  0  0
   25.4154    7.4389   54.7063 C   0  0  0  0  0  0  0  0  0  0  0  0
   24.4588    7.7031   53.6279 C   0  0  0  0  0  0  0  0  0  0  0  0
   24.9093    7.5913   52.4348 O   0  0  0  0  0  0  0  0  0  0  0  0
   23.1019    8.0655   53.7645 N   0  0  0  0  0  0  0  0  0  0  0  0
   22.3363    8.3273   52.5234 C   0  0  0  0  0  0  0  0  0  0  0  0
   21.8531    9.7547   52.6193 C   0  0  0  0  0  0  0  0  0  0  0  0
   21.9923   10.6737   51.6143 C   0  0  0  0  0  0  0  0  0  0  0  0
   21.5394   11.9881   51.8133 C   0  0  0  0  0  0  0  0  0  0  0  0
   20.9661   12.3055   53.0261 C   0  0  0  0  0  0  0  0  0  0  0  0
   20.8375   11.3416   54.0347 C   0  0  0  0  0  0  0  0  0  0  0  0
   21.2778   10.0508   53.8485 C   0  0  0  0  0  0  0  0  0  0  0  0
   21.1384    8.9910   54.8456 C   0  0  0  0  0  0  0  0  0  0  0  0
   22.3941    8.1956   55.0067 C   0  0  0  0  0  0  0  0  0  0  0  0
   22.1086    6.8625   55.6126 C   0  0  0  0  0  0  0  0  0  0  0  0
   22.3411    5.8323   54.9602 O   0  0  0  0  0  0  0  0  0  0  0  0
   21.5963    6.7979   56.8761 O   0  0  0  0  0  0  0  0  0  0  0  0
   22.1820    7.1358   57.6379 H   0  0  0  0  0  0  0  0  0  0  0  0
   26.7978    7.5960   54.2675 N   0  0  0  0  0  0  0  0  0  0  0  0
   27.3518    6.8711   54.7910 H   0  0  0  0  0  0  0  0  0  0  0  0
   27.2792    8.8866   54.7028 C   0  0  0  0  0  0  0  0  0  0  0  0
   28.7552    9.0060   54.5169 C   0  0  0  0  0  0  0  0  0  0  0  0
   29.3313   10.1205   54.4509 O   0  0  0  0  0  0  0  0  0  0  0  0
   29.5664    7.8850   54.4080 O   0  0  0  0  0  0  0  0  0  0  0  0
   29.3309    7.0692   53.8619 H   0  0  0  0  0  0  0  0  0  0  0  0
   26.8778    9.1908   56.1237 C   0  0  0  0  0  0  0  0  0  0  0  0
   27.9690    8.8409   57.1077 C   0  0  0  0  0  0  0  0  0  0  0  0
   28.2880    9.9792   58.0048 C   0  0  0  0  0  0  0  0  0  0  0  0
   29.0349    9.8122   59.1643 C   0  0  0  0  0  0  0  0  0  0  0  0
   29.3457   10.8466   60.0190 C   0  0  0  0  0  0  0  0  0  0  0  0
   28.9034   12.1226   59.7294 C   0  0  0  0  0  0  0  0  0  0  0  0
   28.1518   12.3242   58.5740 C   0  0  0  0  0  0  0  0  0  0  0  0
   27.8601   11.2677   57.7429 C   0  0  0  0  0  0  0  0  0  0  0  0
  1  2  1  0  0  0
  2 19  1  0  0  0
 19 21  1  0  0  0
 21 26  1  0  0  0
 26 27  1  0  0  0
 27 28  1  0  0  0
 28 29  2  0  0  0
 29 30  1  0  0  0
 30 31  2  0  0  0
 31 32  1  0  0  0
 32 33  2  0  0  0
 21 22  1  0  0  0
 22 23  2  0  0  0
 22 24  1  0  0  0
  2  3  1  0  0  0
  3  4  2  0  0  0
  3  5  1  0  0  0
  5  6  1  0  0  0
  6  7  1  0  0  0
  7  8  2  0  0  0
  8  9  1  0  0  0
  9 10  2  0  0  0
 10 11  1  0  0  0
 11 12  2  0  0  0
 12 13  1  0  0  0
 13 14  1  0  0  0
 14 15  1  0  0  0
 15 16  2  0  0  0
 15 17  1  0  0  0
 33 28  1  0  0  0
 14  5  1  0  0  0
 12  7  1  0  0  0
 19 20  1  0  0  0
 24 25  1  0  0  0
 17 18  1  0  0  0
M  END
> <minimizedAffinity>
8.09585

> <CNNscore>
0.5092178583

> <CNNaffinity>
6.1270780563

> <CNN_VS>
3.1200175285

> <CNNaffinity_variance>
0.2190310508

$$$$
[H]OC(=O)[C@@]1([H])N(C(=O)[C@@]([H])(N([H])[C@]([H])(C(=O)O[H])C([H])([H])C([H])([H])c2c([H])c([H])c([H])c([H])c2[H])C([H])([H])[H])C([H])([H])c2c([H])c([H])c([H])c([H])c2C1([H])[H]


 33 35  0  0  0  0  0  0  0  0999 V2000
   21.7945    9.8615   55.5363 C   0  0  0  0  0  0  0  0  0  0  0  0
   21.7680    8.3339   55.3695 C   0  0  0  0  0  0  0  0  0  0  0  0
   20.6724    8.0356   54.4429 C   0  0  0  0  0  0  0  0  0  0  0  0
   19.8577    8.9944   54.2058 O   0  0  0  0  0  0  0  0  0  0  0  0
   20.4216    6.8109   53.7883 N   0  0  0  0  0  0  0  0  0  0  0  0
   19.2195    6.7306   52.9261 C   0  0  0  0  0  0  0  0  0  0  0  0
   18.3605    5.6303   53.5018 C   0  0  0  0  0  0  0  0  0  0  0  0
   17.0216    5.7640   53.7539 C   0  0  0  0  0  0  0  0  0  0  0  0
   16.3159    4.6914   54.3230 C   0  0  0  0  0  0  0  0  0  0  0  0
   17.0062    3.5329   54.6089 C   0  0  0  0  0  0  0  0  0  0  0  0
   18.3767    3.4273   54.3382 C   0  0  0  0  0  0  0  0  0  0  0  0
   19.0765    4.4729   53.7800 C   0  0  0  0  0  0  0  0  0  0  0  0
   20.4966    4.4124   53.4389 C   0  0  0  0  0  0  0  0  0  0  0  0
   21.2380    5.6337   53.8799 C   0  0  0  0  0  0  0  0  0  0  0  0
   22.5096    5.7923   53.1158 C   0  0  0  0  0  0  0  0  0  0  0  0
   23.5742    5.3893   53.6108 O   0  0  0  0  0  0  0  0  0  0  0  0
   22.4807    6.3781   51.8833 O   0  0  0  0  0  0  0  0  0  0  0  0
   21.9745    5.8926   51.1445 H   0  0  0  0  0  0  0  0  0  0  0  0
   23.0725    8.0085   54.8034 N   0  0  0  0  0  0  0  0  0  0  0  0
   23.7472    8.0122   55.6104 H   0  0  0  0  0  0  0  0  0  0  0  0
   23.4732    9.0763   53.9169 C   0  0  0  0  0  0  0  0  0  0  0  0
   22.3426    9.5107   53.0449 C   0  0  0  0  0  0  0  0  0  0  0  0
   21.7191   10.5828   53.2453 O   0  0  0  0  0  0  0  0  0  0  0  0
   21.9239    8.7465   51.9645 O   0  0  0  0  0  0  0  0  0  0  0  0
   21.8229    7.7423   51.9891 H   0  0  0  0  0  0  0  0  0  0  0  0
   24.6869    8.7096   53.1012 C   0  0  0  0  0  0  0  0  0  0  0  0
   25.5554    7.6929   53.8039 C   0  0  0  0  0  0  0  0  0  0  0  0
   26.5828    8.3409   54.6564 C   0  0  0  0  0  0  0  0  0  0  0  0
   27.9029    8.4706   54.2434 C   0  0  0  0  0  0  0  0  0  0  0  0
   28.8805    9.0637   55.0112 C   0  0  0  0  0  0  0  0  0  0  0  0
   28.5556    9.5619   56.2578 C   0  0  0  0  0  0  0  0  0  0  0  0
   27.2402    9.4478   56.7019 C   0  0  0  0  0  0  0  0  0  0  0  0
   26.2894    8.8493   55.9084 C   0  0  0  0  0  0  0  0  0  0  0  0
  1  2  1  0  0  0
  2 19  1  0  0  0
 19 21  1  0  0  0
 21 26  1  0  0  0
 26 27  1  0  0  0
 27 28  1  0  0  0
 28 29  2  0  0  0
 29 30  1  0  0  0
 30 31  2  0  0  0
 31 32  1  0  0  0
 32 33  2  0  0  0
 21 22  1  0  0  0
 22 23  2  0  0  0
 22 24  1  0  0  0
  2  3  1  0  0  0
  3  4  2  0  0  0
  3  5  1  0  0  0
  5  6  1  0  0  0
  6  7  1  0  0  0
  7  8  2  0  0  0
  8  9  1  0  0  0
  9 10  2  0  0  0
 10 11  1  0  0  0
 11 12  2  0  0  0
 12 13  1  0  0  0
 13 14  1  0  0  0
 14 15  1  0  0  0
 15 16  2  0  0  0
 15 17  1  0  0  0
 33 28  1  0  0  0
 14  5  1  0  0  0
 12  7  1  0  0  0
 19 20  1  0  0  0
 24 25  1  0  0  0
 17 18  1  0  0  0
M  END
> <minimizedAffinity>
18.10574

> <CNNscore>
0.5040807724

> <CNNaffinity>
6.2116274834

> <CNN_VS>
3.1311619282

> <CNNaffinity_variance>
0.4180349410

$$$$
[H]OC(=O)[C@@]1([H])N(C(=O)[C@@]([H])(N([H])[C@]([H])(C(=O)O[H])C([H])([H])C([H])([H])c2c([H])c([H])c([H])c([H])c2[H])C([H])([H])[H])C([H])([H])c2c([H])c([H])c([H])c([H])c2C1([H])[H]


 33 35  0  0  0  0  0  0  0  0999 V2000
   21.1001   10.7061   55.4924 C   0  0  0  0  0  0  0  0  0  0  0  0
   21.9393    9.8064   54.5714 C   0  0  0  0  0  0  0  0  0  0  0  0
   23.0345    9.2792   55.3902 C   0  0  0  0  0  0  0  0  0  0  0  0
   23.0547    9.6548   56.6140 O   0  0  0  0  0  0  0  0  0  0  0  0
   24.0630    8.4067   54.9752 N   0  0  0  0  0  0  0  0  0  0  0  0
   25.0941    8.0417   55.9745 C   0  0  0  0  0  0  0  0  0  0  0  0
   26.4139    8.5076   55.4079 C   0  0  0  0  0  0  0  0  0  0  0  0
   27.3283    9.2414   56.1147 C   0  0  0  0  0  0  0  0  0  0  0  0
   28.5140    9.6563   55.4869 C   0  0  0  0  0  0  0  0  0  0  0  0
   28.7135    9.3050   54.1689 C   0  0  0  0  0  0  0  0  0  0  0  0
   27.7583    8.5526   53.4731 C   0  0  0  0  0  0  0  0  0  0  0  0
   26.5936    8.1409   54.0802 C   0  0  0  0  0  0  0  0  0  0  0  0
   25.5769    7.3230   53.4214 C   0  0  0  0  0  0  0  0  0  0  0  0
   24.1930    7.8338   53.6654 C   0  0  0  0  0  0  0  0  0  0  0  0
   23.1797    6.7628   53.4367 C   0  0  0  0  0  0  0  0  0  0  0  0
   22.6681    6.1877   54.4106 O   0  0  0  0  0  0  0  0  0  0  0  0
   22.8313    6.4334   52.1588 O   0  0  0  0  0  0  0  0  0  0  0  0
   22.3593    7.1445   51.6028 H   0  0  0  0  0  0  0  0  0  0  0  0
   21.0154    8.7601   54.1471 N   0  0  0  0  0  0  0  0  0  0  0  0
   21.5775    7.8715   54.1191 H   0  0  0  0  0  0  0  0  0  0  0  0
   20.5953    9.0334   52.7922 C   0  0  0  0  0  0  0  0  0  0  0  0
   20.4002    7.7715   52.0197 C   0  0  0  0  0  0  0  0  0  0  0  0
   20.4921    7.7349   50.7673 O   0  0  0  0  0  0  0  0  0  0  0  0
   20.1067    6.5712   52.6518 O   0  0  0  0  0  0  0  0  0  0  0  0
   19.4482    6.4799   53.4117 H   0  0  0  0  0  0  0  0  0  0  0  0
   21.5407    9.9705   52.0845 C   0  0  0  0  0  0  0  0  0  0  0  0
   21.8594   11.1894   52.9179 C   0  0  0  0  0  0  0  0  0  0  0  0
   21.3695   12.4366   52.2802 C   0  0  0  0  0  0  0  0  0  0  0  0
   20.5962   13.3596   52.9730 C   0  0  0  0  0  0  0  0  0  0  0  0
   20.1238   14.5245   52.4099 C   0  0  0  0  0  0  0  0  0  0  0  0
   20.4210   14.8105   51.0918 C   0  0  0  0  0  0  0  0  0  0  0  0
   21.1947   13.9054   50.3687 C   0  0  0  0  0  0  0  0  0  0  0  0
   21.6498   12.7515   50.9632 C   0  0  0  0  0  0  0  0  0  0  0  0
  1  2  1  0  0  0
  2 19  1  0  0  0
 19 21  1  0  0  0
 21 26  1  0  0  0
 26 27  1  0  0  0
 27 28  1  0  0  0
 28 29  2  0  0  0
 29 30  1  0  0  0
 30 31  2  0  0  0
 31 32  1  0  0  0
 32 33  2  0  0  0
 21 22  1  0  0  0
 22 23  2  0  0  0
 22 24  1  0  0  0
  2  3  1  0  0  0
  3  4  2  0  0  0
  3  5  1  0  0  0
  5  6  1  0  0  0
  6  7  1  0  0  0
  7  8  2  0  0  0
  8  9  1  0  0  0
  9 10  2  0  0  0
 10 11  1  0  0  0
 11 12  2  0  0  0
 12 13  1  0  0  0
 13 14  1  0  0  0
 14 15  1  0  0  0
 15 16  2  0  0  0
 15 17  1  0  0  0
 33 28  1  0  0  0
 14  5  1  0  0  0
 12  7  1  0  0  0
 19 20  1  0  0  0
 24 25  1  0  0  0
 17 18  1  0  0  0
M  END
> <minimizedAffinity>
14.07252

> <CNNscore>
0.5021595955

> <CNNaffinity>
6.4198732376

> <CNN_VS>
3.2238008976

> <CNNaffinity_variance>
0.2581995428

$$$$
[H]OC(=O)[C@@]1([H])N(C(=O)[C@@]([H])(N([H])[C@]([H])(C(=O)O[H])C([H])([H])C([H])([H])c2c([H])c([H])c([H])c([H])c2[H])C([H])([H])[H])C([H])([H])c2c([H])c([H])c([H])c([H])c2C1([H])[H]


 33 35  0  0  0  0  0  0  0  0999 V2000
   24.9168    9.1604   54.1061 C   0  0  0  0  0  0  0  0  0  0  0  0
   24.2106   10.1558   55.0402 C   0  0  0  0  0  0  0  0  0  0  0  0
   22.8579    9.6351   55.2570 C   0  0  0  0  0  0  0  0  0  0  0  0
   22.5921    9.2331   56.4431 O   0  0  0  0  0  0  0  0  0  0  0  0
   21.8238    9.5305   54.3028 N   0  0  0  0  0  0  0  0  0  0  0  0
   20.5452    8.9262   54.7444 C   0  0  0  0  0  0  0  0  0  0  0  0
   20.3275    7.7143   53.8703 C   0  0  0  0  0  0  0  0  0  0  0  0
   19.9993    6.4766   54.3545 C   0  0  0  0  0  0  0  0  0  0  0  0
   19.8510    5.4031   53.4613 C   0  0  0  0  0  0  0  0  0  0  0  0
   20.0439    5.6396   52.1169 C   0  0  0  0  0  0  0  0  0  0  0  0
   20.3786    6.9185   51.6529 C   0  0  0  0  0  0  0  0  0  0  0  0
   20.5254    7.9768   52.5206 C   0  0  0  0  0  0  0  0  0  0  0  0
   20.8355    9.3408   52.0964 C   0  0  0  0  0  0  0  0  0  0  0  0
   21.9010    9.9675   52.9376 C   0  0  0  0  0  0  0  0  0  0  0  0
   21.8538   11.4555   52.8390 C   0  0  0  0  0  0  0  0  0  0  0  0
   21.7534   12.1336   53.8739 O   0  0  0  0  0  0  0  0  0  0  0  0
   21.9226   12.0470   51.6108 O   0  0  0  0  0  0  0  0  0  0  0  0
   22.7867   11.9345   51.0833 H   0  0  0  0  0  0  0  0  0  0  0  0
   25.0103   10.1377   56.2602 N   0  0  0  0  0  0  0  0  0  0  0  0
   25.4849   11.0751   56.3091 H   0  0  0  0  0  0  0  0  0  0  0  0
   26.0521    9.1472   56.1176 C   0  0  0  0  0  0  0  0  0  0  0  0
   27.1747    9.3999   57.0680 C   0  0  0  0  0  0  0  0  0  0  0  0
   27.3248    8.7263   58.1177 O   0  0  0  0  0  0  0  0  0  0  0  0
   28.1123   10.3967   56.8356 O   0  0  0  0  0  0  0  0  0  0  0  0
   27.8819   11.3208   56.5006 H   0  0  0  0  0  0  0  0  0  0  0  0
   26.5467    9.0462   54.6971 C   0  0  0  0  0  0  0  0  0  0  0  0
   26.6878    7.6112   54.2473 C   0  0  0  0  0  0  0  0  0  0  0  0
   25.3686    6.9482   54.0975 C   0  0  0  0  0  0  0  0  0  0  0  0
   24.7416    6.8332   52.8631 C   0  0  0  0  0  0  0  0  0  0  0  0
   23.5170    6.2268   52.6907 C   0  0  0  0  0  0  0  0  0  0  0  0
   22.8606    5.6991   53.7855 C   0  0  0  0  0  0  0  0  0  0  0  0
   23.4624    5.7978   55.0380 C   0  0  0  0  0  0  0  0  0  0  0  0
   24.6865    6.4103   55.1734 C   0  0  0  0  0  0  0  0  0  0  0  0
  1  2  1  0  0  0
  2 19  1  0  0  0
 19 21  1  0  0  0
 21 26  1  0  0  0
 26 27  1  0  0  0
 27 28  1  0  0  0
 28 29  2  0  0  0
 29 30  1  0  0  0
 30 31  2  0  0  0
 31 32  1  0  0  0
 32 33  2  0  0  0
 21 22  1  0  0  0
 22 23  2  0  0  0
 22 24  1  0  0  0
  2  3  1  0  0  0
  3  4  2  0  0  0
  3  5  1  0  0  0
  5  6  1  0  0  0
  6  7  1  0  0  0
  7  8  2  0  0  0
  8  9  1  0  0  0
  9 10  2  0  0  0
 10 11  1  0  0  0
 11 12  2  0  0  0
 12 13  1  0  0  0
 13 14  1  0  0  0
 14 15  1  0  0  0
 15 16  2  0  0  0
 15 17  1  0  0  0
 33 28  1  0  0  0
 14  5  1  0  0  0
 12  7  1  0  0  0
 19 20  1  0  0  0
 24 25  1  0  0  0
 17 18  1  0  0  0
M  END
> <minimizedAffinity>
20.17606

> <CNNscore>
0.5016108155

> <CNNaffinity>
6.2074422836

> <CNN_VS>
3.1137201786

> <CNNaffinity_variance>
0.5097638369

$$$$
[H]OC(=O)[C@@]1([H])N(c2nc(C#N)nc([H])c2[H])C([H])([H])[C@@]([H])(S(=O)(=O)c2c([H])c([H])c([H])c([H])c2C(F)(F)F)C1([H])[H]


 30 32  0  0  0  0  0  0  0  0999 V2000
   21.0079    5.6566   53.3817 N   0  0  0  0  0  0  0  0  0  0  0  0
   20.6378    6.9959   52.9772 C   0  0  0  0  0  0  0  0  0  0  0  0
   21.8926    7.3792   52.1450 C   0  0  0  0  0  0  0  0  0  0  0  0
   22.9563    6.9665   53.0749 C   0  0  0  0  0  0  0  0  0  0  0  0
   22.3877    5.6984   53.7404 C   0  0  0  0  0  0  0  0  0  0  0  0
   17.9932    3.6188   53.7892 C   0  0  0  0  0  0  0  0  0  0  0  0
   18.4201    2.3950   53.4306 N   0  0  0  0  0  0  0  0  0  0  0  0
   19.7023    2.1775   53.0417 C   0  0  0  0  0  0  0  0  0  0  0  0
   20.5329    3.2788   53.0368 C   0  0  0  0  0  0  0  0  0  0  0  0
   20.1238    4.5451   53.3989 C   0  0  0  0  0  0  0  0  0  0  0  0
   18.8313    4.6712   53.7725 N   0  0  0  0  0  0  0  0  0  0  0  0
   15.5051    3.9185   54.5078 N   0  0  0  0  0  0  0  0  0  0  0  0
   16.6266    3.7857   54.1908 C   0  0  0  0  0  0  0  0  0  0  0  0
   22.6264    5.7236   55.1909 C   0  0  0  0  0  0  0  0  0  0  0  0
   23.6711    5.2269   55.6573 O   0  0  0  0  0  0  0  0  0  0  0  0
   21.7064    6.2915   56.0443 O   0  0  0  0  0  0  0  0  0  0  0  0
   21.3082    5.8107   56.8468 H   0  0  0  0  0  0  0  0  0  0  0  0
   21.8201    9.1627   51.8496 S   0  0  0  0  0  0  0  0  0  0  0  0
   23.1881    9.5097   51.3404 O   0  0  0  0  0  0  0  0  0  0  0  0
   20.7852    9.3021   50.7884 O   0  0  0  0  0  0  0  0  0  0  0  0
   21.4856   10.0069   53.3243 C   0  0  0  0  0  0  0  0  0  0  0  0
   21.3279    9.2607   54.4586 C   0  0  0  0  0  0  0  0  0  0  0  0
   21.0825    9.8938   55.6576 C   0  0  0  0  0  0  0  0  0  0  0  0
   20.9929   11.2596   55.7414 C   0  0  0  0  0  0  0  0  0  0  0  0
   21.1577   11.9723   54.5807 C   0  0  0  0  0  0  0  0  0  0  0  0
   21.4087   11.3792   53.3345 C   0  0  0  0  0  0  0  0  0  0  0  0
   21.5660   12.2355   52.1590 C   0  0  0  0  0  0  0  0  0  0  0  0
   21.0532   11.7401   50.9822 F   0  0  0  0  0  0  0  0  0  0  0  0
   22.8370   12.7502   52.0013 F   0  0  0  0  0  0  0  0  0  0  0  0
   20.7921   13.3888   52.3764 F   0  0  0  0  0  0  0  0  0  0  0  0
 12 13  3  0  0  0
 13  6  1  0  0  0
  6  7  2  0  0  0
  7  8  1  0  0  0
  8  9  2  0  0  0
  9 10  1  0  0  0
 10  1  1  0  0  0
  1  2  1  0  0  0
  2  3  1  0  0  0
  3 18  1  0  0  0
 18 19  2  0  0  0
 18 20  2  0  0  0
 18 21  1  0  0  0
 21 22  2  0  0  0
 22 23  1  0  0  0
 23 24  2  0  0  0
 24 25  1  0  0  0
 25 26  2  0  0  0
 26 27  1  0  0  0
 27 28  1  0  0  0
 27 29  1  0  0  0
 27 30  1  0  0  0
  3  4  1  0  0  0
  4  5  1  0  0  0
  5 14  1  0  0  0
 14 15  2  0  0  0
 14 16  1  0  0  0
 10 11  2  0  0  0
 11  6  1  0  0  0
  5  1  1  0  0  0
 26 21  1  0  0  0
 16 17  1  0  0  0
M  END
> <minimizedAffinity>
25.70087

> <CNNscore>
0.6198102236

> <CNNaffinity>
6.8143448830

> <CNN_VS>
4.2236003876

> <CNNaffinity_variance>
0.6852034330

$$$$
[H]OC(=O)[C@@]1([H])N(c2nc(C#N)nc([H])c2[H])C([H])([H])[C@@]([H])(S(=O)(=O)c2c([H])c([H])c([H])c([H])c2C(F)(F)F)C1([H])[H]


 30 32  0  0  0  0  0  0  0  0999 V2000
   20.8788    7.0232   53.7005 N   0  0  0  0  0  0  0  0  0  0  0  0
   22.0822    7.4144   54.4027 C   0  0  0  0  0  0  0  0  0  0  0  0
   21.5927    8.7376   55.0536 C   0  0  0  0  0  0  0  0  0  0  0  0
   20.9636    9.3819   53.8894 C   0  0  0  0  0  0  0  0  0  0  0  0
   20.3375    8.2059   53.1152 C   0  0  0  0  0  0  0  0  0  0  0  0
   18.5945    4.1635   53.8021 C   0  0  0  0  0  0  0  0  0  0  0  0
   19.4086    3.1320   53.5161 N   0  0  0  0  0  0  0  0  0  0  0  0
   20.7319    3.3185   53.2782 C   0  0  0  0  0  0  0  0  0  0  0  0
   21.1862    4.6193   53.3471 C   0  0  0  0  0  0  0  0  0  0  0  0
   20.3757    5.6965   53.6380 C   0  0  0  0  0  0  0  0  0  0  0  0
   19.0719    5.4200   53.8611 N   0  0  0  0  0  0  0  0  0  0  0  0
   16.0711    3.6775   54.2417 N   0  0  0  0  0  0  0  0  0  0  0  0
   17.2050    3.9030   54.0441 C   0  0  0  0  0  0  0  0  0  0  0  0
   20.6033    8.3342   51.6749 C   0  0  0  0  0  0  0  0  0  0  0  0
   20.7339    9.4651   51.1655 O   0  0  0  0  0  0  0  0  0  0  0  0
   20.7105    7.2157   50.8782 O   0  0  0  0  0  0  0  0  0  0  0  0
   20.1670    7.0712   50.0311 H   0  0  0  0  0  0  0  0  0  0  0  0
   23.0528    9.6041   55.6786 S   0  0  0  0  0  0  0  0  0  0  0  0
   22.8771   11.0163   55.2032 O   0  0  0  0  0  0  0  0  0  0  0  0
   22.9179    9.4996   57.1577 O   0  0  0  0  0  0  0  0  0  0  0  0
   24.4960    8.9124   55.0168 C   0  0  0  0  0  0  0  0  0  0  0  0
   25.5730    8.7806   55.8480 C   0  0  0  0  0  0  0  0  0  0  0  0
   26.7342    8.2149   55.3682 C   0  0  0  0  0  0  0  0  0  0  0  0
   26.8360    7.7784   54.0721 C   0  0  0  0  0  0  0  0  0  0  0  0
   25.7328    7.9280   53.2704 C   0  0  0  0  0  0  0  0  0  0  0  0
   24.5272    8.4970   53.7070 C   0  0  0  0  0  0  0  0  0  0  0  0
   23.4131    8.6099   52.7658 C   0  0  0  0  0  0  0  0  0  0  0  0
   22.6252    9.7300   52.8995 F   0  0  0  0  0  0  0  0  0  0  0  0
   22.6664    7.4567   52.6337 F   0  0  0  0  0  0  0  0  0  0  0  0
   23.9653    8.7673   51.4827 F   0  0  0  0  0  0  0  0  0  0  0  0
 12 13  3  0  0  0
 13  6  1  0  0  0
  6  7  2  0  0  0
  7  8  1  0  0  0
  8  9  2  0  0  0
  9 10  1  0  0  0
 10  1  1  0  0  0
  1  2  1  0  0  0
  2  3  1  0  0  0
  3 18  1  0  0  0
 18 19  2  0  0  0
 18 20  2  0  0  0
 18 21  1  0  0  0
 21 22  2  0  0  0
 22 23  1  0  0  0
 23 24  2  0  0  0
 24 25  1  0  0  0
 25 26  2  0  0  0
 26 27  1  0  0  0
 27 28  1  0  0  0
 27 29  1  0  0  0
 27 30  1  0  0  0
  3  4  1  0  0  0
  4  5  1  0  0  0
  5 14  1  0  0  0
 14 15  2  0  0  0
 14 16  1  0  0  0
 10 11  2  0  0  0
 11  6  1  0  0  0
  5  1  1  0  0  0
 26 21  1  0  0  0
 16 17  1  0  0  0
M  END
> <minimizedAffinity>
19.21452

> <CNNscore>
0.5985112786

> <CNNaffinity>
6.6533913612

> <CNN_VS>
3.9821298122

> <CNNaffinity_variance>
0.5991004109

$$$$
[H]OC(=O)[C@@]1([H])N(c2nc(C#N)nc([H])c2[H])C([H])([H])[C@@]([H])(S(=O)(=O)c2c([H])c([H])c([H])c([H])c2C(F)(F)F)C1([H])[H]


 30 32  0  0  0  0  0  0  0  0999 V2000
   20.9877    7.0605   53.6487 N   0  0  0  0  0  0  0  0  0  0  0  0
   22.2347    7.3151   54.3375 C   0  0  0  0  0  0  0  0  0  0  0  0
   21.8769    8.6470   55.0530 C   0  0  0  0  0  0  0  0  0  0  0  0
   21.2838    9.3927   53.9311 C   0  0  0  0  0  0  0  0  0  0  0  0
   20.5410    8.3098   53.1250 C   0  0  0  0  0  0  0  0  0  0  0  0
   18.4781    4.3964   53.7541 C   0  0  0  0  0  0  0  0  0  0  0  0
   19.1766    3.3239   53.3413 N   0  0  0  0  0  0  0  0  0  0  0  0
   20.4899    3.4177   53.0113 C   0  0  0  0  0  0  0  0  0  0  0  0
   21.0589    4.6693   53.1243 C   0  0  0  0  0  0  0  0  0  0  0  0
   20.3683    5.7866   53.5444 C   0  0  0  0  0  0  0  0  0  0  0  0
   19.0655    5.6028   53.8526 N   0  0  0  0  0  0  0  0  0  0  0  0
   15.9634    4.0926   54.3710 N   0  0  0  0  0  0  0  0  0  0  0  0
   17.0930    4.2341   54.0888 C   0  0  0  0  0  0  0  0  0  0  0  0
   20.7882    8.4754   51.6852 C   0  0  0  0  0  0  0  0  0  0  0  0
   20.9584    9.6165   51.2113 O   0  0  0  0  0  0  0  0  0  0  0  0
   20.8343    7.3811   50.8500 O   0  0  0  0  0  0  0  0  0  0  0  0
   20.2711    7.2884   50.0085 H   0  0  0  0  0  0  0  0  0  0  0  0
   23.4200    9.3554   55.6778 S   0  0  0  0  0  0  0  0  0  0  0  0
   23.2750   10.8293   55.4372 O   0  0  0  0  0  0  0  0  0  0  0  0
   23.3946    9.0289   57.1303 O   0  0  0  0  0  0  0  0  0  0  0  0
   24.7738    8.7243   54.8014 C   0  0  0  0  0  0  0  0  0  0  0  0
   24.5194    8.0766   53.6250 C   0  0  0  0  0  0  0  0  0  0  0  0
   25.5695    7.5784   52.8848 C   0  0  0  0  0  0  0  0  0  0  0  0
   26.8688    7.7176   53.3008 C   0  0  0  0  0  0  0  0  0  0  0  0
   27.0818    8.3742   54.4864 C   0  0  0  0  0  0  0  0  0  0  0  0
   26.0506    8.9001   55.2789 C   0  0  0  0  0  0  0  0  0  0  0  0
   26.3913    9.5807   56.5280 C   0  0  0  0  0  0  0  0  0  0  0  0
   26.3021    8.8192   57.6706 F   0  0  0  0  0  0  0  0  0  0  0  0
   25.7994   10.8189   56.6760 F   0  0  0  0  0  0  0  0  0  0  0  0
   27.7594    9.8989   56.4701 F   0  0  0  0  0  0  0  0  0  0  0  0
 12 13  3  0  0  0
 13  6  1  0  0  0
  6  7  2  0  0  0
  7  8  1  0  0  0
  8  9  2  0  0  0
  9 10  1  0  0  0
 10  1  1  0  0  0
  1  2  1  0  0  0
  2  3  1  0  0  0
  3 18  1  0  0  0
 18 19  2  0  0  0
 18 20  2  0  0  0
 18 21  1  0  0  0
 21 22  2  0  0  0
 22 23  1  0  0  0
 23 24  2  0  0  0
 24 25  1  0  0  0
 25 26  2  0  0  0
 26 27  1  0  0  0
 27 28  1  0  0  0
 27 29  1  0  0  0
 27 30  1  0  0  0
  3  4  1  0  0  0
  4  5  1  0  0  0
  5 14  1  0  0  0
 14 15  2  0  0  0
 14 16  1  0  0  0
 10 11  2  0  0  0
 11  6  1  0  0  0
  5  1  1  0  0  0
 26 21  1  0  0  0
 16 17  1  0  0  0
M  END
> <minimizedAffinity>
19.62228

> <CNNscore>
0.5831541419

> <CNNaffinity>
6.6190810204

> <CNN_VS>
3.8599445820

> <CNNaffinity_variance>
0.6513350010

$$$$
[H]OC(=O)[C@@]1([H])N(c2nc(C#N)nc([H])c2[H])C([H])([H])[C@@]([H])(S(=O)(=O)c2c([H])c([H])c([H])c([H])c2C(F)(F)F)C1([H])[H]


 30 32  0  0  0  0  0  0  0  0999 V2000
   24.7588    8.0920   54.9259 N   0  0  0  0  0  0  0  0  0  0  0  0
   23.7177    9.0287   54.5611 C   0  0  0  0  0  0  0  0  0  0  0  0
   22.5811    8.5440   55.5031 C   0  0  0  0  0  0  0  0  0  0  0  0
   22.6359    7.0949   55.2510 C   0  0  0  0  0  0  0  0  0  0  0  0
   24.1388    6.8144   55.0586 C   0  0  0  0  0  0  0  0  0  0  0  0
   27.8602    9.3561   56.4056 C   0  0  0  0  0  0  0  0  0  0  0  0
   28.7668    9.0917   55.4481 N   0  0  0  0  0  0  0  0  0  0  0  0
   28.4125    8.4930   54.2826 C   0  0  0  0  0  0  0  0  0  0  0  0
   27.0775    8.1751   54.1419 C   0  0  0  0  0  0  0  0  0  0  0  0
   26.1256    8.4337   55.1056 C   0  0  0  0  0  0  0  0  0  0  0  0
   26.5657    9.0321   56.2345 N   0  0  0  0  0  0  0  0  0  0  0  0
   28.6593   10.5174   58.5987 N   0  0  0  0  0  0  0  0  0  0  0  0
   28.2957    9.9907   57.6158 C   0  0  0  0  0  0  0  0  0  0  0  0
   24.3561    5.9237   53.9092 C   0  0  0  0  0  0  0  0  0  0  0  0
   24.1059    4.7061   54.0107 O   0  0  0  0  0  0  0  0  0  0  0  0
   24.8345    6.4200   52.7167 O   0  0  0  0  0  0  0  0  0  0  0  0
   25.6518    6.0503   52.2381 H   0  0  0  0  0  0  0  0  0  0  0  0
   21.0494    9.3328   54.9510 S   0  0  0  0  0  0  0  0  0  0  0  0
   19.9724    8.6351   55.7284 O   0  0  0  0  0  0  0  0  0  0  0  0
   21.2087   10.7498   55.3797 O   0  0  0  0  0  0  0  0  0  0  0  0
   20.8257    9.0954   53.2502 C   0  0  0  0  0  0  0  0  0  0  0  0
   20.3518    7.8814   52.8379 C   0  0  0  0  0  0  0  0  0  0  0  0
   20.1382    7.6577   51.4952 C   0  0  0  0  0  0  0  0  0  0  0  0
   20.3898    8.6273   50.5585 C   0  0  0  0  0  0  0  0  0  0  0  0
   20.8639    9.8318   51.0130 C   0  0  0  0  0  0  0  0  0  0  0  0
   21.0995   10.1124   52.3671 C   0  0  0  0  0  0  0  0  0  0  0  0
   21.6088   11.4317   52.7410 C   0  0  0  0  0  0  0  0  0  0  0  0
   22.8135   11.4442   53.4057 F   0  0  0  0  0  0  0  0  0  0  0  0
   20.6718   12.2500   53.3391 F   0  0  0  0  0  0  0  0  0  0  0  0
   21.9015   12.1188   51.5500 F   0  0  0  0  0  0  0  0  0  0  0  0
 12 13  3  0  0  0
 13  6  1  0  0  0
  6  7  2  0  0  0
  7  8  1  0  0  0
  8  9  2  0  0  0
  9 10  1  0  0  0
 10  1  1  0  0  0
  1  2  1  0  0  0
  2  3  1  0  0  0
  3 18  1  0  0  0
 18 19  2  0  0  0
 18 20  2  0  0  0
 18 21  1  0  0  0
 21 22  2  0  0  0
 22 23  1  0  0  0
 23 24  2  0  0  0
 24 25  1  0  0  0
 25 26  2  0  0  0
 26 27  1  0  0  0
 27 28  1  0  0  0
 27 29  1  0  0  0
 27 30  1  0  0  0
  3  4  1  0  0  0
  4  5  1  0  0  0
  5 14  1  0  0  0
 14 15  2  0  0  0
 14 16  1  0  0  0
 10 11  2  0  0  0
 11  6  1  0  0  0
  5  1  1  0  0  0
 26 21  1  0  0  0
 16 17  1  0  0  0
M  END
> <minimizedAffinity>
9.71082

> <CNNscore>
0.5573896766

> <CNNaffinity>
6.3887853622

> <CNN_VS>
3.5610430241

> <CNNaffinity_variance>
0.3653389812

$$$$
[H]OC(=O)[C@@]1([H])N(c2nc(C#N)nc([H])c2[H])C([H])([H])[C@@]([H])(S(=O)(=O)c2c([H])c([H])c([H])c([H])c2C(F)(F)F)C1([H])[H]


 30 32  0  0  0  0  0  0  0  0999 V2000
   27.1335    8.7311   52.4863 N   0  0  0  0  0  0  0  0  0  0  0  0
   25.9790    7.8654   52.3761 C   0  0  0  0  0  0  0  0  0  0  0  0
   25.1523    8.3677   53.5920 C   0  0  0  0  0  0  0  0  0  0  0  0
   26.1954    8.3723   54.6305 C   0  0  0  0  0  0  0  0  0  0  0  0
   27.4642    8.8066   53.8717 C   0  0  0  0  0  0  0  0  0  0  0  0
   28.5001    9.3519   49.1466 C   0  0  0  0  0  0  0  0  0  0  0  0
   29.0217   10.5851   49.2716 N   0  0  0  0  0  0  0  0  0  0  0  0
   28.9532   11.2681   50.4426 C   0  0  0  0  0  0  0  0  0  0  0  0
   28.3213   10.6255   51.4870 C   0  0  0  0  0  0  0  0  0  0  0  0
   27.7773    9.3621   51.3887 C   0  0  0  0  0  0  0  0  0  0  0  0
   27.8904    8.7548   50.1868 N   0  0  0  0  0  0  0  0  0  0  0  0
   28.6929    8.1212   46.8564 N   0  0  0  0  0  0  0  0  0  0  0  0
   28.6039    8.6806   47.8834 C   0  0  0  0  0  0  0  0  0  0  0  0
   28.6100    7.9701   54.2578 C   0  0  0  0  0  0  0  0  0  0  0  0
   29.3790    8.3495   55.1635 O   0  0  0  0  0  0  0  0  0  0  0  0
   28.8453    6.7676   53.6287 O   0  0  0  0  0  0  0  0  0  0  0  0
   29.7321    6.5195   53.1975 H   0  0  0  0  0  0  0  0  0  0  0  0
   23.8296    7.1670   53.8783 S   0  0  0  0  0  0  0  0  0  0  0  0
   24.3142    5.9152   53.2080 O   0  0  0  0  0  0  0  0  0  0  0  0
   23.7996    7.0228   55.3599 O   0  0  0  0  0  0  0  0  0  0  0  0
   22.3518    7.7119   53.1582 C   0  0  0  0  0  0  0  0  0  0  0  0
   21.9942    7.1658   51.9573 C   0  0  0  0  0  0  0  0  0  0  0  0
   20.8150    7.5548   51.3601 C   0  0  0  0  0  0  0  0  0  0  0  0
   19.9875    8.4796   51.9437 C   0  0  0  0  0  0  0  0  0  0  0  0
   20.3818    9.0034   53.1488 C   0  0  0  0  0  0  0  0  0  0  0  0
   21.5711    8.6436   53.7999 C   0  0  0  0  0  0  0  0  0  0  0  0
   21.8954    9.2672   55.0827 C   0  0  0  0  0  0  0  0  0  0  0  0
   23.1504    9.8230   55.1802 F   0  0  0  0  0  0  0  0  0  0  0  0
   21.5772    8.4956   56.1821 F   0  0  0  0  0  0  0  0  0  0  0  0
   21.0484   10.3792   55.2320 F   0  0  0  0  0  0  0  0  0  0  0  0
 12 13  3  0  0  0
 13  6  1  0  0  0
  6  7  2  0  0  0
  7  8  1  0  0  0
  8  9  2  0  0  0
  9 10  1  0  0  0
 10  1  1  0  0  0
  1  2  1  0  0  0
  2  3  1  0  0  0
  3 18  1  0  0  0
 18 19  2  0  0  0
 18 20  2  0  0  0
 18 21  1  0  0  0
 21 22  2  0  0  0
 22 23  1  0  0  0
 23 24  2  0  0  0
 24 25  1  0  0  0
 25 26  2  0  0  0
 26 27  1  0  0  0
 27 28  1  0  0  0
 27 29  1  0  0  0
 27 30  1  0  0  0
  3  4  1  0  0  0
  4  5  1  0  0  0
  5 14  1  0  0  0
 14 15  2  0  0  0
 14 16  1  0  0  0
 10 11  2  0  0  0
 11  6  1  0  0  0
  5  1  1  0  0  0
 26 21  1  0  0  0
 16 17  1  0  0  0
M  END
> <minimizedAffinity>
17.67074

> <CNNscore>
0.5121498108

> <CNNaffinity>
6.0959477425

> <CNN_VS>
3.1220383644

> <CNNaffinity_variance>
0.3231221735

$$$$
[H]OC(=O)[C@@]1([H])N(c2nc(C#N)nc([H])c2[H])C([H])([H])[C@@]([H])(S(=O)(=O)c2c([H])c([H])c([H])c([H])c2C(F)(F)F)C1([H])[H]


 30 32  0  0  0  0  0  0  0  0999 V2000
   24.6704    7.4227   54.1462 N   0  0  0  0  0  0  0  0  0  0  0  0
   23.5483    8.2085   53.6795 C   0  0  0  0  0  0  0  0  0  0  0  0
   22.4100    7.5781   54.5287 C   0  0  0  0  0  0  0  0  0  0  0  0
   22.6808    6.1488   54.3047 C   0  0  0  0  0  0  0  0  0  0  0  0
   24.2187    6.0734   54.2454 C   0  0  0  0  0  0  0  0  0  0  0  0
   27.5232    8.8282   55.9607 C   0  0  0  0  0  0  0  0  0  0  0  0
   28.4468    8.9588   54.9920 N   0  0  0  0  0  0  0  0  0  0  0  0
   28.1852    8.5974   53.7101 C   0  0  0  0  0  0  0  0  0  0  0  0
   26.9252    8.0924   53.4641 C   0  0  0  0  0  0  0  0  0  0  0  0
   25.9581    7.9468   54.4364 C   0  0  0  0  0  0  0  0  0  0  0  0
   26.3035    8.3315   55.6849 N   0  0  0  0  0  0  0  0  0  0  0  0
   28.1418    9.5446   58.3899 N   0  0  0  0  0  0  0  0  0  0  0  0
   27.8591    9.2276   57.2966 C   0  0  0  0  0  0  0  0  0  0  0  0
   24.6524    5.2159   53.1327 C   0  0  0  0  0  0  0  0  0  0  0  0
   24.9416    4.0214   53.3450 O   0  0  0  0  0  0  0  0  0  0  0  0
   24.7434    5.7180   51.8533 O   0  0  0  0  0  0  0  0  0  0  0  0
   25.5802    5.6535   51.2792 H   0  0  0  0  0  0  0  0  0  0  0  0
   20.8397    8.1503   53.8359 S   0  0  0  0  0  0  0  0  0  0  0  0
   20.3946    7.0253   52.9485 O   0  0  0  0  0  0  0  0  0  0  0  0
   19.9598    8.2928   55.0285 O   0  0  0  0  0  0  0  0  0  0  0  0
   21.0766    9.5973   52.9144 C   0  0  0  0  0  0  0  0  0  0  0  0
   20.8155    9.5434   51.5738 C   0  0  0  0  0  0  0  0  0  0  0  0
   20.9696   10.6779   50.8071 C   0  0  0  0  0  0  0  0  0  0  0  0
   21.3795   11.8648   51.3584 C   0  0  0  0  0  0  0  0  0  0  0  0
   21.6307   11.8774   52.7071 C   0  0  0  0  0  0  0  0  0  0  0  0
   21.4906   10.7525   53.5335 C   0  0  0  0  0  0  0  0  0  0  0  0
   21.7878   10.8778   54.9602 C   0  0  0  0  0  0  0  0  0  0  0  0
   22.5278    9.8570   55.5114 F   0  0  0  0  0  0  0  0  0  0  0  0
   20.6971   11.2129   55.7369 F   0  0  0  0  0  0  0  0  0  0  0  0
   22.6296   11.9930   55.1147 F   0  0  0  0  0  0  0  0  0  0  0  0
 12 13  3  0  0  0
 13  6  1  0  0  0
  6  7  2  0  0  0
  7  8  1  0  0  0
  8  9  2  0  0  0
  9 10  1  0  0  0
 10  1  1  0  0  0
  1  2  1  0  0  0
  2  3  1  0  0  0
  3 18  1  0  0  0
 18 19  2  0  0  0
 18 20  2  0  0  0
 18 21  1  0  0  0
 21 22  2  0  0  0
 22 23  1  0  0  0
 23 24  2  0  0  0
 24 25  1  0  0  0
 25 26  2  0  0  0
 26 27  1  0  0  0
 27 28  1  0  0  0
 27 29  1  0  0  0
 27 30  1  0  0  0
  3  4  1  0  0  0
  4  5  1  0  0  0
  5 14  1  0  0  0
 14 15  2  0  0  0
 14 16  1  0  0  0
 10 11  2  0  0  0
 11  6  1  0  0  0
  5  1  1  0  0  0
 26 21  1  0  0  0
 16 17  1  0  0  0
M  END
> <minimizedAffinity>
10.49921

> <CNNscore>
0.4822394848

> <CNNaffinity>
6.1999197006

> <CNN_VS>
2.9898459911

> <CNNaffinity_variance>
0.1332955360

$$$$
[H]OC(=O)[C@@]1([H])N(c2nc(C#N)nc([H])c2[H])C([H])([H])[C@@]([H])(S(=O)(=O)c2c([H])c([H])c([H])c([H])c2C(F)(F)F)C1([H])[H]


 30 32  0  0  0  0  0  0  0  0999 V2000
   21.9164    9.0040   53.7653 N   0  0  0  0  0  0  0  0  0  0  0  0
   23.2573    8.8479   54.2866 C   0  0  0  0  0  0  0  0  0  0  0  0
   23.0754    9.4939   55.6879 C   0  0  0  0  0  0  0  0  0  0  0  0
   22.3797   10.7355   55.3125 C   0  0  0  0  0  0  0  0  0  0  0  0
   21.4748   10.3071   54.1412 C   0  0  0  0  0  0  0  0  0  0  0  0
   20.1635    5.9111   52.8890 C   0  0  0  0  0  0  0  0  0  0  0  0
   19.8675    6.1035   51.5914 N   0  0  0  0  0  0  0  0  0  0  0  0
   20.2228    7.2429   50.9448 C   0  0  0  0  0  0  0  0  0  0  0  0
   20.9001    8.1828   51.6938 C   0  0  0  0  0  0  0  0  0  0  0  0
   21.2174    8.0136   53.0252 C   0  0  0  0  0  0  0  0  0  0  0  0
   20.8257    6.8498   53.5894 N   0  0  0  0  0  0  0  0  0  0  0  0
   19.4387    3.6875   54.0412 N   0  0  0  0  0  0  0  0  0  0  0  0
   19.7614    4.6860   53.5171 C   0  0  0  0  0  0  0  0  0  0  0  0
   21.5345   11.2940   53.0530 C   0  0  0  0  0  0  0  0  0  0  0  0
   21.6318   10.9098   51.8704 O   0  0  0  0  0  0  0  0  0  0  0  0
   21.4840   12.6433   53.3251 O   0  0  0  0  0  0  0  0  0  0  0  0
   22.1767   13.3120   52.9981 H   0  0  0  0  0  0  0  0  0  0  0  0
   24.7262    9.7526   56.3814 S   0  0  0  0  0  0  0  0  0  0  0  0
   24.8912   11.2437   56.3989 O   0  0  0  0  0  0  0  0  0  0  0  0
   24.6216    9.1935   57.7574 O   0  0  0  0  0  0  0  0  0  0  0  0
   25.9276    9.0174   55.3738 C   0  0  0  0  0  0  0  0  0  0  0  0
   25.5339    8.5698   54.1438 C   0  0  0  0  0  0  0  0  0  0  0  0
   26.4625    7.9985   53.3012 C   0  0  0  0  0  0  0  0  0  0  0  0
   27.7776    7.8680   53.6677 C   0  0  0  0  0  0  0  0  0  0  0  0
   28.1324    8.3300   54.9097 C   0  0  0  0  0  0  0  0  0  0  0  0
   27.2285    8.9189   55.8064 C   0  0  0  0  0  0  0  0  0  0  0  0
   27.7149    9.3755   57.1082 C   0  0  0  0  0  0  0  0  0  0  0  0
   27.0702    8.8547   58.2066 F   0  0  0  0  0  0  0  0  0  0  0  0
   27.8852   10.7421   57.1998 F   0  0  0  0  0  0  0  0  0  0  0  0
   29.0264    8.8916   57.2567 F   0  0  0  0  0  0  0  0  0  0  0  0
 12 13  3  0  0  0
 13  6  1  0  0  0
  6  7  2  0  0  0
  7  8  1  0  0  0
  8  9  2  0  0  0
  9 10  1  0  0  0
 10  1  1  0  0  0
  1  2  1  0  0  0
  2  3  1  0  0  0
  3 18  1  0  0  0
 18 19  2  0  0  0
 18 20  2  0  0  0
 18 21  1  0  0  0
 21 22  2  0  0  0
 22 23  1  0  0  0
 23 24  2  0  0  0
 24 25  1  0  0  0
 25 26  2  0  0  0
 26 27  1  0  0  0
 27 28  1  0  0  0
 27 29  1  0  0  0
 27 30  1  0  0  0
  3  4  1  0  0  0
  4  5  1  0  0  0
  5 14  1  0  0  0
 14 15  2  0  0  0
 14 16  1  0  0  0
 10 11  2  0  0  0
 11  6  1  0  0  0
  5  1  1  0  0  0
 26 21  1  0  0  0
 16 17  1  0  0  0
M  END
> <minimizedAffinity>
23.18256

> <CNNscore>
0.4748996496

> <CNNaffinity>
5.9198989868

> <CNN_VS>
2.8113579750

> <CNNaffinity_variance>
0.2575792670

$$$$
[H]OC(=O)[C@@]1([H])N(c2nc(C#N)nc([H])c2[H])C([H])([H])[C@@]([H])(S(=O)(=O)c2c([H])c([H])c([H])c([H])c2C(F)(F)F)C1([H])[H]


 30 32  0  0  0  0  0  0  0  0999 V2000
   21.4087    6.3440   53.2018 N   0  0  0  0  0  0  0  0  0  0  0  0
   22.8460    6.2492   53.0626 C   0  0  0  0  0  0  0  0  0  0  0  0
   23.2830    7.3806   54.0338 C   0  0  0  0  0  0  0  0  0  0  0  0
   22.3912    8.4634   53.5882 C   0  0  0  0  0  0  0  0  0  0  0  0
   21.0850    7.7330   53.2214 C   0  0  0  0  0  0  0  0  0  0  0  0
   18.4090    4.3202   53.7607 C   0  0  0  0  0  0  0  0  0  0  0  0
   18.8412    3.0780   53.4804 N   0  0  0  0  0  0  0  0  0  0  0  0
   20.1224    2.8427   53.0986 C   0  0  0  0  0  0  0  0  0  0  0  0
   20.9463    3.9461   53.0164 C   0  0  0  0  0  0  0  0  0  0  0  0
   20.5315    5.2310   53.2974 C   0  0  0  0  0  0  0  0  0  0  0  0
   19.2405    5.3740   53.6700 N   0  0  0  0  0  0  0  0  0  0  0  0
   15.9311    4.6622   54.4955 N   0  0  0  0  0  0  0  0  0  0  0  0
   17.0437    4.5052   54.1591 C   0  0  0  0  0  0  0  0  0  0  0  0
   20.5489    8.2384   51.9491 C   0  0  0  0  0  0  0  0  0  0  0  0
   20.9663    9.3179   51.4841 O   0  0  0  0  0  0  0  0  0  0  0  0
   19.5874    7.5312   51.2617 O   0  0  0  0  0  0  0  0  0  0  0  0
   18.7004    7.9279   50.9622 H   0  0  0  0  0  0  0  0  0  0  0  0
   25.0388    7.6993   53.7357 S   0  0  0  0  0  0  0  0  0  0  0  0
   25.6528    6.3334   53.6438 O   0  0  0  0  0  0  0  0  0  0  0  0
   25.0515    8.3989   52.4214 O   0  0  0  0  0  0  0  0  0  0  0  0
   25.7243    8.5892   55.0538 C   0  0  0  0  0  0  0  0  0  0  0  0
   24.8652    9.1054   55.9832 C   0  0  0  0  0  0  0  0  0  0  0  0
   25.3700    9.8013   57.0601 C   0  0  0  0  0  0  0  0  0  0  0  0
   26.7186    9.9889   57.2233 C   0  0  0  0  0  0  0  0  0  0  0  0
   27.5471    9.4547   56.2692 C   0  0  0  0  0  0  0  0  0  0  0  0
   27.0869    8.7387   55.1540 C   0  0  0  0  0  0  0  0  0  0  0  0
   28.0597    8.2140   54.1958 C   0  0  0  0  0  0  0  0  0  0  0  0
   27.9739    8.7154   52.9174 F   0  0  0  0  0  0  0  0  0  0  0  0
   28.1836    6.8394   54.2124 F   0  0  0  0  0  0  0  0  0  0  0  0
   29.3312    8.6424   54.6152 F   0  0  0  0  0  0  0  0  0  0  0  0
 12 13  3  0  0  0
 13  6  1  0  0  0
  6  7  2  0  0  0
  7  8  1  0  0  0
  8  9  2  0  0  0
  9 10  1  0  0  0
 10  1  1  0  0  0
  1  2  1  0  0  0
  2  3  1  0  0  0
  3 18  1  0  0  0
 18 19  2  0  0  0
 18 20  2  0  0  0
 18 21  1  0  0  0
 21 22  2  0  0  0
 22 23  1  0  0  0
 23 24  2  0  0  0
 24 25  1  0  0  0
 25 26  2  0  0  0
 26 27  1  0  0  0
 27 28  1  0  0  0
 27 29  1  0  0  0
 27 30  1  0  0  0
  3  4  1  0  0  0
  4  5  1  0  0  0
  5 14  1  0  0  0
 14 15  2  0  0  0
 14 16  1  0  0  0
 10 11  2  0  0  0
 11  6  1  0  0  0
  5  1  1  0  0  0
 26 21  1  0  0  0
 16 17  1  0  0  0
M  END
> <minimizedAffinity>
20.40809

> <CNNscore>
0.4734264016

> <CNNaffinity>
6.2801365852

> <CNN_VS>
2.9731824398

> <CNNaffinity_variance>
0.5757272840

$$$$
[H]OC(=O)[C@@]1([H])N(c2nc(C#N)nc([H])c2[H])C([H])([H])[C@@]([H])(S(=O)(=O)c2c([H])c([H])c([H])c([H])c2C(F)(F)F)C1([H])[H]


 30 32  0  0  0  0  0  0  0  0999 V2000
   21.4832    7.1927   53.2449 N   0  0  0  0  0  0  0  0  0  0  0  0
   22.8863    6.8396   53.2125 C   0  0  0  0  0  0  0  0  0  0  0  0
   23.4627    7.9538   54.1292 C   0  0  0  0  0  0  0  0  0  0  0  0
   22.8038    9.1346   53.5477 C   0  0  0  0  0  0  0  0  0  0  0  0
   21.4110    8.6137   53.1439 C   0  0  0  0  0  0  0  0  0  0  0  0
   19.6024    4.0514   53.2752 C   0  0  0  0  0  0  0  0  0  0  0  0
   18.3578    4.4618   53.5772 N   0  0  0  0  0  0  0  0  0  0  0  0
   18.0746    5.7731   53.7838 C   0  0  0  0  0  0  0  0  0  0  0  0
   19.1322    6.6510   53.6661 C   0  0  0  0  0  0  0  0  0  0  0  0
   20.4182    6.2598   53.3578 C   0  0  0  0  0  0  0  0  0  0  0  0
   20.6107    4.9358   53.1683 N   0  0  0  0  0  0  0  0  0  0  0  0
   20.0433    1.5085   52.9061 N   0  0  0  0  0  0  0  0  0  0  0  0
   19.8393    2.6521   53.0680 C   0  0  0  0  0  0  0  0  0  0  0  0
   21.0451    9.0986   51.8051 C   0  0  0  0  0  0  0  0  0  0  0  0
   21.2148   10.2988   51.5111 O   0  0  0  0  0  0  0  0  0  0  0  0
   20.5149    8.2399   50.8677 O   0  0  0  0  0  0  0  0  0  0  0  0
   19.6397    8.4081   50.3784 H   0  0  0  0  0  0  0  0  0  0  0  0
   25.2610    7.9386   53.9315 S   0  0  0  0  0  0  0  0  0  0  0  0
   25.6222    6.4824   53.9392 O   0  0  0  0  0  0  0  0  0  0  0  0
   25.4731    8.5521   52.5915 O   0  0  0  0  0  0  0  0  0  0  0  0
   26.0216    8.7630   55.2511 C   0  0  0  0  0  0  0  0  0  0  0  0
   25.2174    9.2312   56.2523 C   0  0  0  0  0  0  0  0  0  0  0  0
   25.7836    9.8735   57.3319 C   0  0  0  0  0  0  0  0  0  0  0  0
   27.1395   10.0547   57.4273 C   0  0  0  0  0  0  0  0  0  0  0  0
   27.9117    9.5698   56.4022 C   0  0  0  0  0  0  0  0  0  0  0  0
   27.3879    8.9093   55.2809 C   0  0  0  0  0  0  0  0  0  0  0  0
   28.3039    8.4343   54.2441 C   0  0  0  0  0  0  0  0  0  0  0  0
   28.9260    9.4098   53.4994 F   0  0  0  0  0  0  0  0  0  0  0  0
   27.7910    7.4222   53.4581 F   0  0  0  0  0  0  0  0  0  0  0  0
   29.3790    7.8037   54.8943 F   0  0  0  0  0  0  0  0  0  0  0  0
 12 13  3  0  0  0
 13  6  1  0  0  0
  6  7  2  0  0  0
  7  8  1  0  0  0
  8  9  2  0  0  0
  9 10  1  0  0  0
 10  1  1  0  0  0
  1  2  1  0  0  0
  2  3  1  0  0  0
  3 18  1  0  0  0
 18 19  2  0  0  0
 18 20  2  0  0  0
 18 21  1  0  0  0
 21 22  2  0  0  0
 22 23  1  0  0  0
 23 24  2  0  0  0
 24 25  1  0  0  0
 25 26  2  0  0  0
 26 27  1  0  0  0
 27 28  1  0  0  0
 27 29  1  0  0  0
 27 30  1  0  0  0
  3  4  1  0  0  0
  4  5  1  0  0  0
  5 14  1  0  0  0
 14 15  2  0  0  0
 14 16  1  0  0  0
 10 11  2  0  0  0
 11  6  1  0  0  0
  5  1  1  0  0  0
 26 21  1  0  0  0
 16 17  1  0  0  0
M  END
> <minimizedAffinity>
22.51982

> <CNNscore>
0.4400586486

> <CNNaffinity>
6.2166347504

> <CNN_VS>
2.7356839180

> <CNNaffinity_variance>
0.5830084682

$$$$
[H]c1c([H])c([H])c(C([H])([H])n2c([H])nc(-c3c([H])c([H])c(F)c([H])c3[H])c2-c2nn3c([H])c(N([H])C(=O)C(C([H])([H])[H])(C([H])([H])[H])C([H])([H])[H])nc3c([H])c2[H])c([H])c1[H]


 36 40  0  0  0  0  0  0  0  0999 V2000
   27.2632    8.8898   54.0152 C   0  0  0  0  0  0  0  0  0  0  0  0
   28.2025    9.2490   53.0726 C   0  0  0  0  0  0  0  0  0  0  0  0
   29.3073    9.6345   53.7762 N   0  0  0  0  0  0  0  0  0  0  0  0
   29.0928    9.5307   55.0710 C   0  0  0  0  0  0  0  0  0  0  0  0
   27.8146    9.0654   55.2098 N   0  0  0  0  0  0  0  0  0  0  0  0
   22.3137    5.6818   53.5715 C   0  0  0  0  0  0  0  0  0  0  0  0
   23.5652    5.6635   54.1436 C   0  0  0  0  0  0  0  0  0  0  0  0
   24.2259    6.8112   53.8031 N   0  0  0  0  0  0  0  0  0  0  0  0
   25.4324    7.2398   54.1060 N   0  0  0  0  0  0  0  0  0  0  0  0
   25.9254    8.4128   53.6753 C   0  0  0  0  0  0  0  0  0  0  0  0
   25.0903    9.1648   52.8828 C   0  0  0  0  0  0  0  0  0  0  0  0
   23.8102    8.7313   52.5498 C   0  0  0  0  0  0  0  0  0  0  0  0
   23.3952    7.5246   53.0340 C   0  0  0  0  0  0  0  0  0  0  0  0
   22.2478    6.8465   52.8953 N   0  0  0  0  0  0  0  0  0  0  0  0
   19.9382    5.0283   53.6355 C   0  0  0  0  0  0  0  0  0  0  0  0
   19.6175    6.2584   53.5038 O   0  0  0  0  0  0  0  0  0  0  0  0
   21.3152    4.6947   53.6729 N   0  0  0  0  0  0  0  0  0  0  0  0
   21.5839    3.7023   53.7787 H   0  0  0  0  0  0  0  0  0  0  0  0
   18.9811    3.3657   55.0825 C   0  0  0  0  0  0  0  0  0  0  0  0
   18.8520    4.0520   53.7387 C   0  0  0  0  0  0  0  0  0  0  0  0
   17.5264    4.7500   53.6941 C   0  0  0  0  0  0  0  0  0  0  0  0
   18.9488    2.9770   52.6786 C   0  0  0  0  0  0  0  0  0  0  0  0
   28.1577    9.2711   51.6239 C   0  0  0  0  0  0  0  0  0  0  0  0
   28.1024   10.4736   50.9604 C   0  0  0  0  0  0  0  0  0  0  0  0
   28.0636   10.5457   49.5695 C   0  0  0  0  0  0  0  0  0  0  0  0
   28.0803    9.3900   48.8149 C   0  0  0  0  0  0  0  0  0  0  0  0
   28.0421    9.4639   47.4555 F   0  0  0  0  0  0  0  0  0  0  0  0
   28.1355    8.1838   49.4709 C   0  0  0  0  0  0  0  0  0  0  0  0
   28.1735    8.1311   50.8581 C   0  0  0  0  0  0  0  0  0  0  0  0
   27.1853    8.8112   56.4957 C   0  0  0  0  0  0  0  0  0  0  0  0
   27.8689    9.5184   57.5924 C   0  0  0  0  0  0  0  0  0  0  0  0
   28.4999    8.8635   58.6180 C   0  0  0  0  0  0  0  0  0  0  0  0
   29.1433    9.5028   59.6437 C   0  0  0  0  0  0  0  0  0  0  0  0
   29.1561   10.8844   59.6432 C   0  0  0  0  0  0  0  0  0  0  0  0
   28.5269   11.5710   58.6206 C   0  0  0  0  0  0  0  0  0  0  0  0
   27.8899   10.9101   57.6055 C   0  0  0  0  0  0  0  0  0  0  0  0
 19 20  1  0  0  0
 20 21  1  0  0  0
 20 22  1  0  0  0
 20 15  1  0  0  0
 15 16  2  0  0  0
 15 17  1  0  0  0
 17  6  1  0  0  0
  6  7  2  0  0  0
  7  8  1  0  0  0
  8  9  1  0  0  0
  9 10  2  0  0  0
 10  1  1  0  0  0
  1  2  2  0  0  0
  2 23  1  0  0  0
 23 24  2  0  0  0
 24 25  1  0  0  0
 25 26  2  0  0  0
 26 27  1  0  0  0
 26 28  1  0  0  0
 28 29  2  0  0  0
  2  3  1  0  0  0
  3  4  2  0  0  0
  4  5  1  0  0  0
  5 30  1  0  0  0
 30 31  1  0  0  0
 31 32  2  0  0  0
 32 33  1  0  0  0
 33 34  2  0  0  0
 34 35  1  0  0  0
 35 36  2  0  0  0
 10 11  1  0  0  0
 11 12  2  0  0  0
 12 13  1  0  0  0
 13 14  2  0  0  0
 14  6  1  0  0  0
 13  8  1  0  0  0
  5  1  1  0  0  0
 36 31  1  0  0  0
 29 23  1  0  0  0
 17 18  1  0  0  0
M  END
> <minimizedAffinity>
41.21738

> <CNNscore>
0.4646940827

> <CNNaffinity>
6.5236330032

> <CNN_VS>
3.0314936638

> <CNNaffinity_variance>
0.2214550674

$$$$
[H]c1c([H])c([H])c(C([H])([H])n2c([H])nc(-c3c([H])c([H])c(F)c([H])c3[H])c2-c2nn3c([H])c(N([H])C(=O)C(C([H])([H])[H])(C([H])([H])[H])C([H])([H])[H])nc3c([H])c2[H])c([H])c1[H]


 36 40  0  0  0  0  0  0  0  0999 V2000
   21.2945    7.3469   53.0638 C   0  0  0  0  0  0  0  0  0  0  0  0
   20.6231    8.4471   52.5751 C   0  0  0  0  0  0  0  0  0  0  0  0
   19.3560    8.0183   52.3013 N   0  0  0  0  0  0  0  0  0  0  0  0
   19.2249    6.7410   52.5918 C   0  0  0  0  0  0  0  0  0  0  0  0
   20.4399    6.3312   53.0667 N   0  0  0  0  0  0  0  0  0  0  0  0
   26.4467    8.8102   55.5738 C   0  0  0  0  0  0  0  0  0  0  0  0
   25.1333    9.2125   55.4894 C   0  0  0  0  0  0  0  0  0  0  0  0
   24.4551    8.3473   54.6763 N   0  0  0  0  0  0  0  0  0  0  0  0
   23.1953    8.3197   54.2979 N   0  0  0  0  0  0  0  0  0  0  0  0
   22.6939    7.3793   53.4802 C   0  0  0  0  0  0  0  0  0  0  0  0
   23.5800    6.4219   53.0451 C   0  0  0  0  0  0  0  0  0  0  0  0
   24.9169    6.4315   53.4327 C   0  0  0  0  0  0  0  0  0  0  0  0
   25.3361    7.4272   54.2666 C   0  0  0  0  0  0  0  0  0  0  0  0
   26.5311    7.7054   54.8054 N   0  0  0  0  0  0  0  0  0  0  0  0
   27.4900    9.4082   57.7250 C   0  0  0  0  0  0  0  0  0  0  0  0
   26.5305    8.8200   58.3305 O   0  0  0  0  0  0  0  0  0  0  0  0
   27.4805    9.4218   56.3078 N   0  0  0  0  0  0  0  0  0  0  0  0
   28.2527    9.8948   55.8096 H   0  0  0  0  0  0  0  0  0  0  0  0
   27.8425   10.8121   59.6431 C   0  0  0  0  0  0  0  0  0  0  0  0
   28.5319   10.0271   58.5467 C   0  0  0  0  0  0  0  0  0  0  0  0
   29.3778    8.9692   59.1884 C   0  0  0  0  0  0  0  0  0  0  0  0
   29.3727   11.0073   57.7586 C   0  0  0  0  0  0  0  0  0  0  0  0
   21.0481    9.8131   52.3417 C   0  0  0  0  0  0  0  0  0  0  0  0
   21.0427   10.3216   51.0648 C   0  0  0  0  0  0  0  0  0  0  0  0
   21.4370   11.6298   50.7917 C   0  0  0  0  0  0  0  0  0  0  0  0
   21.8487   12.4577   51.8166 C   0  0  0  0  0  0  0  0  0  0  0  0
   22.2336   13.7359   51.5463 F   0  0  0  0  0  0  0  0  0  0  0  0
   21.8569   11.9567   53.0961 C   0  0  0  0  0  0  0  0  0  0  0  0
   21.4606   10.6501   53.3496 C   0  0  0  0  0  0  0  0  0  0  0  0
   20.7173    4.9723   53.5030 C   0  0  0  0  0  0  0  0  0  0  0  0
   19.5080    4.1311   53.4863 C   0  0  0  0  0  0  0  0  0  0  0  0
   18.3795    4.4401   54.2003 C   0  0  0  0  0  0  0  0  0  0  0  0
   17.2452    3.6732   54.1948 C   0  0  0  0  0  0  0  0  0  0  0  0
   17.2397    2.5249   53.4265 C   0  0  0  0  0  0  0  0  0  0  0  0
   18.3651    2.1889   52.6960 C   0  0  0  0  0  0  0  0  0  0  0  0
   19.4879    2.9712   52.7171 C   0  0  0  0  0  0  0  0  0  0  0  0
 19 20  1  0  0  0
 20 21  1  0  0  0
 20 22  1  0  0  0
 20 15  1  0  0  0
 15 16  2  0  0  0
 15 17  1  0  0  0
 17  6  1  0  0  0
  6  7  2  0  0  0
  7  8  1  0  0  0
  8  9  1  0  0  0
  9 10  2  0  0  0
 10  1  1  0  0  0
  1  2  2  0  0  0
  2 23  1  0  0  0
 23 24  2  0  0  0
 24 25  1  0  0  0
 25 26  2  0  0  0
 26 27  1  0  0  0
 26 28  1  0  0  0
 28 29  2  0  0  0
  2  3  1  0  0  0
  3  4  2  0  0  0
  4  5  1  0  0  0
  5 30  1  0  0  0
 30 31  1  0  0  0
 31 32  2  0  0  0
 32 33  1  0  0  0
 33 34  2  0  0  0
 34 35  1  0  0  0
 35 36  2  0  0  0
 10 11  1  0  0  0
 11 12  2  0  0  0
 12 13  1  0  0  0
 13 14  2  0  0  0
 14  6  1  0  0  0
 13  8  1  0  0  0
  5  1  1  0  0  0
 36 31  1  0  0  0
 29 23  1  0  0  0
 17 18  1  0  0  0
M  END
> <minimizedAffinity>
30.08469

> <CNNscore>
0.4540983737

> <CNNaffinity>
6.9073057175

> <CNN_VS>
3.1365962029

> <CNNaffinity_variance>
0.4409366548

$$$$
[H]c1c([H])c([H])c(C([H])([H])n2c([H])nc(-c3c([H])c([H])c(F)c([H])c3[H])c2-c2nn3c([H])c(N([H])C(=O)C(C([H])([H])[H])(C([H])([H])[H])C([H])([H])[H])nc3c([H])c2[H])c([H])c1[H]


 36 40  0  0  0  0  0  0  0  0999 V2000
   27.2448    9.1978   53.1775 C   0  0  0  0  0  0  0  0  0  0  0  0
   28.2577    9.5691   54.0355 C   0  0  0  0  0  0  0  0  0  0  0  0
   29.3432    9.8159   53.2449 N   0  0  0  0  0  0  0  0  0  0  0  0
   29.0491    9.6178   51.9770 C   0  0  0  0  0  0  0  0  0  0  0  0
   27.7376    9.2323   51.9455 N   0  0  0  0  0  0  0  0  0  0  0  0
   21.8049    6.9117   53.5868 C   0  0  0  0  0  0  0  0  0  0  0  0
   22.9088    6.9330   52.7651 C   0  0  0  0  0  0  0  0  0  0  0  0
   23.8702    7.7219   53.3335 N   0  0  0  0  0  0  0  0  0  0  0  0
   25.0800    8.0430   52.9279 N   0  0  0  0  0  0  0  0  0  0  0  0
   25.9005    8.8451   53.6263 C   0  0  0  0  0  0  0  0  0  0  0  0
   25.4060    9.3281   54.8150 C   0  0  0  0  0  0  0  0  0  0  0  0
   24.1294    9.0016   55.2636 C   0  0  0  0  0  0  0  0  0  0  0  0
   23.3669    8.1790   54.4860 C   0  0  0  0  0  0  0  0  0  0  0  0
   22.1276    7.6926   54.6375 N   0  0  0  0  0  0  0  0  0  0  0  0
   20.5172    4.8117   53.5111 C   0  0  0  0  0  0  0  0  0  0  0  0
   21.5762    4.1747   53.8369 O   0  0  0  0  0  0  0  0  0  0  0  0
   20.5972    6.2202   53.3747 N   0  0  0  0  0  0  0  0  0  0  0  0
   19.7457    6.7437   53.1120 H   0  0  0  0  0  0  0  0  0  0  0  0
   18.1458    5.0114   53.1783 C   0  0  0  0  0  0  0  0  0  0  0  0
   19.2951    4.0330   53.3021 C   0  0  0  0  0  0  0  0  0  0  0  0
   19.3910    3.2579   52.0228 C   0  0  0  0  0  0  0  0  0  0  0  0
   18.9866    3.1299   54.4761 C   0  0  0  0  0  0  0  0  0  0  0  0
   28.3018    9.7008   55.4783 C   0  0  0  0  0  0  0  0  0  0  0  0
   28.0722    8.6024   56.2720 C   0  0  0  0  0  0  0  0  0  0  0  0
   28.1094    8.6783   57.6627 C   0  0  0  0  0  0  0  0  0  0  0  0
   28.3828    9.8803   58.2840 C   0  0  0  0  0  0  0  0  0  0  0  0
   28.4183    9.9512   59.6437 F   0  0  0  0  0  0  0  0  0  0  0  0
   28.6135   10.9832   57.4974 C   0  0  0  0  0  0  0  0  0  0  0  0
   28.5722   10.8887   56.1126 C   0  0  0  0  0  0  0  0  0  0  0  0
   27.0207    8.9152   50.7209 C   0  0  0  0  0  0  0  0  0  0  0  0
   27.7053    9.4457   49.5292 C   0  0  0  0  0  0  0  0  0  0  0  0
   28.1389    8.6449   48.5047 C   0  0  0  0  0  0  0  0  0  0  0  0
   28.7736    9.1194   47.3881 C   0  0  0  0  0  0  0  0  0  0  0  0
   28.9880   10.4807   47.2904 C   0  0  0  0  0  0  0  0  0  0  0  0
   28.5609   11.3123   48.3098 C   0  0  0  0  0  0  0  0  0  0  0  0
   27.9285   10.8150   49.4170 C   0  0  0  0  0  0  0  0  0  0  0  0
 19 20  1  0  0  0
 20 21  1  0  0  0
 20 22  1  0  0  0
 20 15  1  0  0  0
 15 16  2  0  0  0
 15 17  1  0  0  0
 17  6  1  0  0  0
  6  7  2  0  0  0
  7  8  1  0  0  0
  8  9  1  0  0  0
  9 10  2  0  0  0
 10  1  1  0  0  0
  1  2  2  0  0  0
  2 23  1  0  0  0
 23 24  2  0  0  0
 24 25  1  0  0  0
 25 26  2  0  0  0
 26 27  1  0  0  0
 26 28  1  0  0  0
 28 29  2  0  0  0
  2  3  1  0  0  0
  3  4  2  0  0  0
  4  5  1  0  0  0
  5 30  1  0  0  0
 30 31  1  0  0  0
 31 32  2  0  0  0
 32 33  1  0  0  0
 33 34  2  0  0  0
 34 35  1  0  0  0
 35 36  2  0  0  0
 10 11  1  0  0  0
 11 12  2  0  0  0
 12 13  1  0  0  0
 13 14  2  0  0  0
 14  6  1  0  0  0
 13  8  1  0  0  0
  5  1  1  0  0  0
 36 31  1  0  0  0
 29 23  1  0  0  0
 17 18  1  0  0  0
M  END
> <minimizedAffinity>
50.94950

> <CNNscore>
0.4052667022

> <CNNaffinity>
6.4252381325

> <CNN_VS>
2.6039350033

> <CNNaffinity_variance>
0.4039417207

$$$$
[H]c1c([H])c([H])c(C([H])([H])n2c([H])nc(-c3c([H])c([H])c(F)c([H])c3[H])c2-c2nn3c([H])c(N([H])C(=O)C(C([H])([H])[H])(C([H])([H])[H])C([H])([H])[H])nc3c([H])c2[H])c([H])c1[H]


 36 40  0  0  0  0  0  0  0  0999 V2000
   24.8985    8.8064   55.1800 C   0  0  0  0  0  0  0  0  0  0  0  0
   26.2655    8.6380   55.1261 C   0  0  0  0  0  0  0  0  0  0  0  0
   26.7906    9.5910   55.9511 N   0  0  0  0  0  0  0  0  0  0  0  0
   25.8336   10.3152   56.4923 C   0  0  0  0  0  0  0  0  0  0  0  0
   24.6569    9.8180   56.0048 N   0  0  0  0  0  0  0  0  0  0  0  0
   20.5514    5.0912   53.6682 C   0  0  0  0  0  0  0  0  0  0  0  0
   21.1592    5.6523   54.7681 C   0  0  0  0  0  0  0  0  0  0  0  0
   22.1662    6.4759   54.3470 N   0  0  0  0  0  0  0  0  0  0  0  0
   23.0173    7.2197   55.0206 N   0  0  0  0  0  0  0  0  0  0  0  0
   23.9568    7.9780   54.4318 C   0  0  0  0  0  0  0  0  0  0  0  0
   23.9899    7.9406   53.0576 C   0  0  0  0  0  0  0  0  0  0  0  0
   23.0994    7.1612   52.3247 C   0  0  0  0  0  0  0  0  0  0  0  0
   22.1785    6.4230   53.0100 C   0  0  0  0  0  0  0  0  0  0  0  0
   21.2093    5.5919   52.6031 N   0  0  0  0  0  0  0  0  0  0  0  0
   18.1414    4.6226   53.8834 C   0  0  0  0  0  0  0  0  0  0  0  0
   17.9393    5.8667   54.0950 O   0  0  0  0  0  0  0  0  0  0  0  0
   19.4716    4.1881   53.6587 N   0  0  0  0  0  0  0  0  0  0  0  0
   19.6444    3.1838   53.4862 H   0  0  0  0  0  0  0  0  0  0  0  0
   15.7863    4.5426   53.4132 C   0  0  0  0  0  0  0  0  0  0  0  0
   16.9762    3.7361   53.8896 C   0  0  0  0  0  0  0  0  0  0  0  0
   17.1871    2.6017   52.9330 C   0  0  0  0  0  0  0  0  0  0  0  0
   16.6476    3.2361   55.2792 C   0  0  0  0  0  0  0  0  0  0  0  0
   27.0956    7.7040   54.3914 C   0  0  0  0  0  0  0  0  0  0  0  0
   26.5100    6.6955   53.6640 C   0  0  0  0  0  0  0  0  0  0  0  0
   27.2656    5.7775   52.9375 C   0  0  0  0  0  0  0  0  0  0  0  0
   28.6433    5.8633   52.9330 C   0  0  0  0  0  0  0  0  0  0  0  0
   29.3790    4.9644   52.2220 F   0  0  0  0  0  0  0  0  0  0  0  0
   29.2363    6.8689   53.6579 C   0  0  0  0  0  0  0  0  0  0  0  0
   28.4672    7.7750   54.3761 C   0  0  0  0  0  0  0  0  0  0  0  0
   23.3501   10.3461   56.3617 C   0  0  0  0  0  0  0  0  0  0  0  0
   22.3590   10.1311   55.2932 C   0  0  0  0  0  0  0  0  0  0  0  0
   22.4253   10.7673   54.0808 C   0  0  0  0  0  0  0  0  0  0  0  0
   21.5163   10.5780   53.0746 C   0  0  0  0  0  0  0  0  0  0  0  0
   20.4753    9.6968   53.2953 C   0  0  0  0  0  0  0  0  0  0  0  0
   20.3838    9.0412   54.5097 C   0  0  0  0  0  0  0  0  0  0  0  0
   21.3046    9.2465   55.5011 C   0  0  0  0  0  0  0  0  0  0  0  0
 19 20  1  0  0  0
 20 21  1  0  0  0
 20 22  1  0  0  0
 20 15  1  0  0  0
 15 16  2  0  0  0
 15 17  1  0  0  0
 17  6  1  0  0  0
  6  7  2  0  0  0
  7  8  1  0  0  0
  8  9  1  0  0  0
  9 10  2  0  0  0
 10  1  1  0  0  0
  1  2  2  0  0  0
  2 23  1  0  0  0
 23 24  2  0  0  0
 24 25  1  0  0  0
 25 26  2  0  0  0
 26 27  1  0  0  0
 26 28  1  0  0  0
 28 29  2  0  0  0
  2  3  1  0  0  0
  3  4  2  0  0  0
  4  5  1  0  0  0
  5 30  1  0  0  0
 30 31  1  0  0  0
 31 32  2  0  0  0
 32 33  1  0  0  0
 33 34  2  0  0  0
 34 35  1  0  0  0
 35 36  2  0  0  0
 10 11  1  0  0  0
 11 12  2  0  0  0
 12 13  1  0  0  0
 13 14  2  0  0  0
 14  6  1  0  0  0
 13  8  1  0  0  0
  5  1  1  0  0  0
 36 31  1  0  0  0
 29 23  1  0  0  0
 17 18  1  0  0  0
M  END
> <minimizedAffinity>
46.89330

> <CNNscore>
0.3544941247

> <CNNaffinity>
6.7926225662

> <CNN_VS>
2.4079446793

> <CNNaffinity_variance>
0.4158407152

$$$$
[H]c1c([H])c([H])c(C([H])([H])n2c([H])nc(-c3c([H])c([H])c(F)c([H])c3[H])c2-c2nn3c([H])c(N([H])C(=O)C(C([H])([H])[H])(C([H])([H])[H])C([H])([H])[H])nc3c([H])c2[H])c([H])c1[H]


 36 40  0  0  0  0  0  0  0  0999 V2000
   27.0779    8.4479   54.9785 C   0  0  0  0  0  0  0  0  0  0  0  0
   28.0247    9.0215   55.7999 C   0  0  0  0  0  0  0  0  0  0  0  0
   29.1881    8.3515   55.5512 N   0  0  0  0  0  0  0  0  0  0  0  0
   29.0017    7.4194   54.6403 C   0  0  0  0  0  0  0  0  0  0  0  0
   27.6819    7.4875   54.2895 N   0  0  0  0  0  0  0  0  0  0  0  0
   21.5006    9.5013   53.3143 C   0  0  0  0  0  0  0  0  0  0  0  0
   22.6714    8.9312   52.8691 C   0  0  0  0  0  0  0  0  0  0  0  0
   23.6237    9.0548   53.8426 N   0  0  0  0  0  0  0  0  0  0  0  0
   24.8813    8.6699   53.8795 N   0  0  0  0  0  0  0  0  0  0  0  0
   25.6832    8.8791   54.9366 C   0  0  0  0  0  0  0  0  0  0  0  0
   25.1156    9.5309   56.0061 C   0  0  0  0  0  0  0  0  0  0  0  0
   23.7874    9.9470   55.9890 C   0  0  0  0  0  0  0  0  0  0  0  0
   23.0490    9.6905   54.8703 C   0  0  0  0  0  0  0  0  0  0  0  0
   21.7750    9.9582   54.5528 N   0  0  0  0  0  0  0  0  0  0  0  0
   20.0103    8.7808   51.4884 C   0  0  0  0  0  0  0  0  0  0  0  0
   20.9130    7.9628   51.1019 O   0  0  0  0  0  0  0  0  0  0  0  0
   20.2772    9.5869   52.6232 N   0  0  0  0  0  0  0  0  0  0  0  0
   19.5527   10.2509   52.9432 H   0  0  0  0  0  0  0  0  0  0  0  0
   18.5581   10.2506   50.2616 C   0  0  0  0  0  0  0  0  0  0  0  0
   18.7620    8.8231   50.7244 C   0  0  0  0  0  0  0  0  0  0  0  0
   18.8703    7.9482   49.5123 C   0  0  0  0  0  0  0  0  0  0  0  0
   17.5631    8.4536   51.5699 C   0  0  0  0  0  0  0  0  0  0  0  0
   27.9395   10.0966   56.7685 C   0  0  0  0  0  0  0  0  0  0  0  0
   28.3161    9.8738   58.0714 C   0  0  0  0  0  0  0  0  0  0  0  0
   28.2572   10.8770   59.0365 C   0  0  0  0  0  0  0  0  0  0  0  0
   27.8114   12.1388   58.6981 C   0  0  0  0  0  0  0  0  0  0  0  0
   27.7549   13.1173   59.6438 F   0  0  0  0  0  0  0  0  0  0  0  0
   27.4330   12.3696   57.3973 C   0  0  0  0  0  0  0  0  0  0  0  0
   27.4983   11.3574   56.4488 C   0  0  0  0  0  0  0  0  0  0  0  0
   27.0656    6.6179   53.3005 C   0  0  0  0  0  0  0  0  0  0  0  0
   25.6615    6.3178   53.6302 C   0  0  0  0  0  0  0  0  0  0  0  0
   25.2063    6.2224   54.9196 C   0  0  0  0  0  0  0  0  0  0  0  0
   23.9052    5.9479   55.2459 C   0  0  0  0  0  0  0  0  0  0  0  0
   23.0028    5.7568   54.2174 C   0  0  0  0  0  0  0  0  0  0  0  0
   23.4349    5.8470   52.9066 C   0  0  0  0  0  0  0  0  0  0  0  0
   24.7410    6.1226   52.6045 C   0  0  0  0  0  0  0  0  0  0  0  0
 19 20  1  0  0  0
 20 21  1  0  0  0
 20 22  1  0  0  0
 20 15  1  0  0  0
 15 16  2  0  0  0
 15 17  1  0  0  0
 17  6  1  0  0  0
  6  7  2  0  0  0
  7  8  1  0  0  0
  8  9  1  0  0  0
  9 10  2  0  0  0
 10  1  1  0  0  0
  1  2  2  0  0  0
  2 23  1  0  0  0
 23 24  2  0  0  0
 24 25  1  0  0  0
 25 26  2  0  0  0
 26 27  1  0  0  0
 26 28  1  0  0  0
 28 29  2  0  0  0
  2  3  1  0  0  0
  3  4  2  0  0  0
  4  5  1  0  0  0
  5 30  1  0  0  0
 30 31  1  0  0  0
 31 32  2  0  0  0
 32 33  1  0  0  0
 33 34  2  0  0  0
 34 35  1  0  0  0
 35 36  2  0  0  0
 10 11  1  0  0  0
 11 12  2  0  0  0
 12 13  1  0  0  0
 13 14  2  0  0  0
 14  6  1  0  0  0
 13  8  1  0  0  0
  5  1  1  0  0  0
 36 31  1  0  0  0
 29 23  1  0  0  0
 17 18  1  0  0  0
M  END
> <minimizedAffinity>
58.04581

> <CNNscore>
0.3301955163

> <CNNaffinity>
6.0354518890

> <CNN_VS>
1.9928791523

> <CNNaffinity_variance>
1.0387719870

$$$$
[H]c1c([H])c([H])c(C([H])([H])n2c([H])nc(-c3c([H])c([H])c(F)c([H])c3[H])c2-c2nn3c([H])c(N([H])C(=O)C(C([H])([H])[H])(C([H])([H])[H])C([H])([H])[H])nc3c([H])c2[H])c([H])c1[H]


 36 40  0  0  0  0  0  0  0  0999 V2000
   21.0039    8.1524   52.6499 C   0  0  0  0  0  0  0  0  0  0  0  0
   20.6654    9.0084   51.6239 C   0  0  0  0  0  0  0  0  0  0  0  0
   19.9210    8.2675   50.7514 N   0  0  0  0  0  0  0  0  0  0  0  0
   19.7922    7.0309   51.1846 C   0  0  0  0  0  0  0  0  0  0  0  0
   20.4715    6.9692   52.3696 N   0  0  0  0  0  0  0  0  0  0  0  0
   25.4951    9.3732   56.3002 C   0  0  0  0  0  0  0  0  0  0  0  0
   25.2289    8.9040   55.0341 C   0  0  0  0  0  0  0  0  0  0  0  0
   23.8749    8.8797   54.8451 N   0  0  0  0  0  0  0  0  0  0  0  0
   23.1502    8.5131   53.8099 N   0  0  0  0  0  0  0  0  0  0  0  0
   21.8076    8.5556   53.8007 C   0  0  0  0  0  0  0  0  0  0  0  0
   21.2094    9.0114   54.9520 C   0  0  0  0  0  0  0  0  0  0  0  0
   21.9562    9.4046   56.0589 C   0  0  0  0  0  0  0  0  0  0  0  0
   23.3162    9.3265   55.9759 C   0  0  0  0  0  0  0  0  0  0  0  0
   24.2889    9.6224   56.8488 N   0  0  0  0  0  0  0  0  0  0  0  0
   27.1906   10.8297   57.3383 C   0  0  0  0  0  0  0  0  0  0  0  0
   26.3996   11.8223   57.1890 O   0  0  0  0  0  0  0  0  0  0  0  0
   26.7583    9.5551   56.8942 N   0  0  0  0  0  0  0  0  0  0  0  0
   27.3913    8.7465   57.0113 H   0  0  0  0  0  0  0  0  0  0  0  0
   29.3747   11.7389   56.9175 C   0  0  0  0  0  0  0  0  0  0  0  0
   28.4909   11.0869   57.9602 C   0  0  0  0  0  0  0  0  0  0  0  0
   28.3343   12.0412   59.1053 C   0  0  0  0  0  0  0  0  0  0  0  0
   29.1790    9.8105   58.3919 C   0  0  0  0  0  0  0  0  0  0  0  0
   20.9722   10.4058   51.3908 C   0  0  0  0  0  0  0  0  0  0  0  0
   21.6334   11.1300   52.3539 C   0  0  0  0  0  0  0  0  0  0  0  0
   21.9551   12.4736   52.1733 C   0  0  0  0  0  0  0  0  0  0  0  0
   21.6103   13.1173   51.0018 C   0  0  0  0  0  0  0  0  0  0  0  0
   21.9260   14.4307   50.8284 F   0  0  0  0  0  0  0  0  0  0  0  0
   20.9490   12.4000   50.0340 C   0  0  0  0  0  0  0  0  0  0  0  0
   20.6366   11.0614   50.2315 C   0  0  0  0  0  0  0  0  0  0  0  0
   20.5731    5.7647   53.1778 C   0  0  0  0  0  0  0  0  0  0  0  0
   21.9105    5.6153   53.7770 C   0  0  0  0  0  0  0  0  0  0  0  0
   23.0635    5.6523   53.0367 C   0  0  0  0  0  0  0  0  0  0  0  0
   24.3152    5.5189   53.5756 C   0  0  0  0  0  0  0  0  0  0  0  0
   24.4197    5.3369   54.9411 C   0  0  0  0  0  0  0  0  0  0  0  0
   23.2725    5.2954   55.7125 C   0  0  0  0  0  0  0  0  0  0  0  0
   22.0316    5.4311   55.1514 C   0  0  0  0  0  0  0  0  0  0  0  0
 19 20  1  0  0  0
 20 21  1  0  0  0
 20 22  1  0  0  0
 20 15  1  0  0  0
 15 16  2  0  0  0
 15 17  1  0  0  0
 17  6  1  0  0  0
  6  7  2  0  0  0
  7  8  1  0  0  0
  8  9  1  0  0  0
  9 10  2  0  0  0
 10  1  1  0  0  0
  1  2  2  0  0  0
  2 23  1  0  0  0
 23 24  2  0  0  0
 24 25  1  0  0  0
 25 26  2  0  0  0
 26 27  1  0  0  0
 26 28  1  0  0  0
 28 29  2  0  0  0
  2  3  1  0  0  0
  3  4  2  0  0  0
  4  5  1  0  0  0
  5 30  1  0  0  0
 30 31  1  0  0  0
 31 32  2  0  0  0
 32 33  1  0  0  0
 33 34  2  0  0  0
 34 35  1  0  0  0
 35 36  2  0  0  0
 10 11  1  0  0  0
 11 12  2  0  0  0
 12 13  1  0  0  0
 13 14  2  0  0  0
 14  6  1  0  0  0
 13  8  1  0  0  0
  5  1  1  0  0  0
 36 31  1  0  0  0
 29 23  1  0  0  0
 17 18  1  0  0  0
M  END
> <minimizedAffinity>
39.60133

> <CNNscore>
0.3239211142

> <CNNaffinity>
6.4363632202

> <CNN_VS>
2.0848739147

> <CNNaffinity_variance>
0.8023027182

$$$$
[H]c1c([H])c([H])c(C([H])([H])n2c([H])nc(-c3c([H])c([H])c(F)c([H])c3[H])c2-c2nn3c([H])c(N([H])C(=O)C(C([H])([H])[H])(C([H])([H])[H])C([H])([H])[H])nc3c([H])c2[H])c([H])c1[H]


 36 40  0  0  0  0  0  0  0  0999 V2000
   24.8615    8.8729   54.6920 C   0  0  0  0  0  0  0  0  0  0  0  0
   26.1597    8.8314   54.2303 C   0  0  0  0  0  0  0  0  0  0  0  0
   26.9518    8.9033   55.3401 N   0  0  0  0  0  0  0  0  0  0  0  0
   26.2178    8.9849   56.4301 C   0  0  0  0  0  0  0  0  0  0  0  0
   24.9152    8.9653   56.0151 N   0  0  0  0  0  0  0  0  0  0  0  0
   20.6208   10.1954   50.7865 C   0  0  0  0  0  0  0  0  0  0  0  0
   21.7307   10.7313   51.3989 C   0  0  0  0  0  0  0  0  0  0  0  0
   22.2636    9.7996   52.2462 N   0  0  0  0  0  0  0  0  0  0  0  0
   23.3124    9.8478   53.0391 N   0  0  0  0  0  0  0  0  0  0  0  0
   23.6948    8.8202   53.8151 C   0  0  0  0  0  0  0  0  0  0  0  0
   22.9204    7.6863   53.7415 C   0  0  0  0  0  0  0  0  0  0  0  0
   21.8067    7.6131   52.9097 C   0  0  0  0  0  0  0  0  0  0  0  0
   21.4947    8.7081   52.1572 C   0  0  0  0  0  0  0  0  0  0  0  0
   20.5091    8.9461   51.2811 N   0  0  0  0  0  0  0  0  0  0  0  0
   18.5608   10.2290   49.4340 C   0  0  0  0  0  0  0  0  0  0  0  0
   18.2304    9.1059   49.9466 O   0  0  0  0  0  0  0  0  0  0  0  0
   19.7825   10.8194   49.8434 N   0  0  0  0  0  0  0  0  0  0  0  0
   20.0576   11.7279   49.4344 H   0  0  0  0  0  0  0  0  0  0  0  0
   17.6314    9.9227   47.2393 C   0  0  0  0  0  0  0  0  0  0  0  0
   17.6466   10.8232   48.4569 C   0  0  0  0  0  0  0  0  0  0  0  0
   16.2577   10.8770   49.0176 C   0  0  0  0  0  0  0  0  0  0  0  0
   18.1121   12.1870   47.9962 C   0  0  0  0  0  0  0  0  0  0  0  0
   26.7061    8.7423   52.8907 C   0  0  0  0  0  0  0  0  0  0  0  0
   27.6677    7.8024   52.6062 C   0  0  0  0  0  0  0  0  0  0  0  0
   28.2185    7.6749   51.3327 C   0  0  0  0  0  0  0  0  0  0  0  0
   27.8023    8.5051   50.3114 C   0  0  0  0  0  0  0  0  0  0  0  0
   28.3428    8.3781   49.0677 F   0  0  0  0  0  0  0  0  0  0  0  0
   26.8412    9.4475   50.5879 C   0  0  0  0  0  0  0  0  0  0  0  0
   26.3035    9.5602   51.8633 C   0  0  0  0  0  0  0  0  0  0  0  0
   23.7802    9.0363   56.9211 C   0  0  0  0  0  0  0  0  0  0  0  0
   22.5475    9.4489   56.2278 C   0  0  0  0  0  0  0  0  0  0  0  0
   21.4964    8.5958   56.0126 C   0  0  0  0  0  0  0  0  0  0  0  0
   20.3418    8.9614   55.3738 C   0  0  0  0  0  0  0  0  0  0  0  0
   20.2321   10.2623   54.9218 C   0  0  0  0  0  0  0  0  0  0  0  0
   21.2777   11.1445   55.1253 C   0  0  0  0  0  0  0  0  0  0  0  0
   22.4227   10.7563   55.7667 C   0  0  0  0  0  0  0  0  0  0  0  0
 19 20  1  0  0  0
 20 21  1  0  0  0
 20 22  1  0  0  0
 20 15  1  0  0  0
 15 16  2  0  0  0
 15 17  1  0  0  0
 17  6  1  0  0  0
  6  7  2  0  0  0
  7  8  1  0  0  0
  8  9  1  0  0  0
  9 10  2  0  0  0
 10  1  1  0  0  0
  1  2  2  0  0  0
  2 23  1  0  0  0
 23 24  2  0  0  0
 24 25  1  0  0  0
 25 26  2  0  0  0
 26 27  1  0  0  0
 26 28  1  0  0  0
 28 29  2  0  0  0
  2  3  1  0  0  0
  3  4  2  0  0  0
  4  5  1  0  0  0
  5 30  1  0  0  0
 30 31  1  0  0  0
 31 32  2  0  0  0
 32 33  1  0  0  0
 33 34  2  0  0  0
 34 35  1  0  0  0
 35 36  2  0  0  0
 10 11  1  0  0  0
 11 12  2  0  0  0
 12 13  1  0  0  0
 13 14  2  0  0  0
 14  6  1  0  0  0
 13  8  1  0  0  0
  5  1  1  0  0  0
 36 31  1  0  0  0
 29 23  1  0  0  0
 17 18  1  0  0  0
M  END
> <minimizedAffinity>
87.98314

> <CNNscore>
0.2736255229

> <CNNaffinity>
5.7619857788

> <CNN_VS>
1.5766264200

> <CNNaffinity_variance>
0.9541966319

$$$$
[H]c1c([H])c([H])c(C([H])([H])n2c([H])nc(-c3c([H])c([H])c(F)c([H])c3[H])c2-c2nn3c([H])c(N([H])C(=O)C(C([H])([H])[H])(C([H])([H])[H])C([H])([H])[H])nc3c([H])c2[H])c([H])c1[H]


 36 40  0  0  0  0  0  0  0  0999 V2000
   25.0993    7.8668   53.8747 C   0  0  0  0  0  0  0  0  0  0  0  0
   26.4198    8.0069   53.5050 C   0  0  0  0  0  0  0  0  0  0  0  0
   27.1174    7.1198   54.2735 N   0  0  0  0  0  0  0  0  0  0  0  0
   26.3065    6.4614   55.0749 C   0  0  0  0  0  0  0  0  0  0  0  0
   25.0496    6.9347   54.8185 N   0  0  0  0  0  0  0  0  0  0  0  0
   20.3129    9.5486   50.8335 C   0  0  0  0  0  0  0  0  0  0  0  0
   21.0863    8.4434   51.1062 C   0  0  0  0  0  0  0  0  0  0  0  0
   22.1046    8.8093   51.9423 N   0  0  0  0  0  0  0  0  0  0  0  0
   23.0857    8.1105   52.4715 N   0  0  0  0  0  0  0  0  0  0  0  0
   24.0128    8.6439   53.2843 C   0  0  0  0  0  0  0  0  0  0  0  0
   23.8868    9.9882   53.5446 C   0  0  0  0  0  0  0  0  0  0  0  0
   22.8568   10.7469   52.9958 C   0  0  0  0  0  0  0  0  0  0  0  0
   21.9609   10.1181   52.1806 C   0  0  0  0  0  0  0  0  0  0  0  0
   20.8856   10.5613   51.5150 N   0  0  0  0  0  0  0  0  0  0  0  0
   18.9387   10.6966   49.1402 C   0  0  0  0  0  0  0  0  0  0  0  0
   19.8059   11.6346   49.1020 O   0  0  0  0  0  0  0  0  0  0  0  0
   19.1671    9.6074   50.0178 N   0  0  0  0  0  0  0  0  0  0  0  0
   18.4714    8.8441   50.0550 H   0  0  0  0  0  0  0  0  0  0  0  0
   17.6996   12.2573   47.7974 C   0  0  0  0  0  0  0  0  0  0  0  0
   17.7682   10.8199   48.2692 C   0  0  0  0  0  0  0  0  0  0  0  0
   17.9259    9.9387   47.0671 C   0  0  0  0  0  0  0  0  0  0  0  0
   16.4777   10.5303   49.0038 C   0  0  0  0  0  0  0  0  0  0  0  0
   27.0655    8.8718   52.5374 C   0  0  0  0  0  0  0  0  0  0  0  0
   28.0206    9.7686   52.9530 C   0  0  0  0  0  0  0  0  0  0  0  0
   28.6726   10.6163   52.0598 C   0  0  0  0  0  0  0  0  0  0  0  0
   28.3673   10.5724   50.7143 C   0  0  0  0  0  0  0  0  0  0  0  0
   29.0063   11.4024   49.8439 F   0  0  0  0  0  0  0  0  0  0  0  0
   27.4134    9.6784   50.2910 C   0  0  0  0  0  0  0  0  0  0  0  0
   26.7738    8.8412   51.1956 C   0  0  0  0  0  0  0  0  0  0  0  0
   23.8560    6.4610   55.5004 C   0  0  0  0  0  0  0  0  0  0  0  0
   22.7174    7.3777   55.3178 C   0  0  0  0  0  0  0  0  0  0  0  0
   21.6189    7.0553   54.5641 C   0  0  0  0  0  0  0  0  0  0  0  0
   20.5498    7.8920   54.3856 C   0  0  0  0  0  0  0  0  0  0  0  0
   20.5820    9.1291   54.9998 C   0  0  0  0  0  0  0  0  0  0  0  0
   21.6784    9.4807   55.7662 C   0  0  0  0  0  0  0  0  0  0  0  0
   22.7358    8.6275   55.9304 C   0  0  0  0  0  0  0  0  0  0  0  0
 19 20  1  0  0  0
 20 21  1  0  0  0
 20 22  1  0  0  0
 20 15  1  0  0  0
 15 16  2  0  0  0
 15 17  1  0  0  0
 17  6  1  0  0  0
  6  7  2  0  0  0
  7  8  1  0  0  0
  8  9  1  0  0  0
  9 10  2  0  0  0
 10  1  1  0  0  0
  1  2  2  0  0  0
  2 23  1  0  0  0
 23 24  2  0  0  0
 24 25  1  0  0  0
 25 26  2  0  0  0
 26 27  1  0  0  0
 26 28  1  0  0  0
 28 29  2  0  0  0
  2  3  1  0  0  0
  3  4  2  0  0  0
  4  5  1  0  0  0
  5 30  1  0  0  0
 30 31  1  0  0  0
 31 32  2  0  0  0
 32 33  1  0  0  0
 33 34  2  0  0  0
 34 35  1  0  0  0
 35 36  2  0  0  0
 10 11  1  0  0  0
 11 12  2  0  0  0
 12 13  1  0  0  0
 13 14  2  0  0  0
 14  6  1  0  0  0
 13  8  1  0  0  0
  5  1  1  0  0  0
 36 31  1  0  0  0
 29 23  1  0  0  0
 17 18  1  0  0  0
M  END
> <minimizedAffinity>
78.61425

> <CNNscore>
0.2717597187

> <CNNaffinity>
5.7962303162

> <CNN_VS>
1.5751819611

> <CNNaffinity_variance>
1.0868257284

$$$$
[H]c1c([H])c([H])c(C([H])([H])n2c([H])nc(-c3c([H])c([H])c(F)c([H])c3[H])c2-c2nn3c([H])c(N([H])C(=O)C(C([H])([H])[H])(C([H])([H])[H])C([H])([H])[H])nc3c([H])c2[H])c([H])c1[H]


 36 40  0  0  0  0  0  0  0  0999 V2000
   21.3613    7.8093   52.5856 C   0  0  0  0  0  0  0  0  0  0  0  0
   20.6554    8.9061   52.1399 C   0  0  0  0  0  0  0  0  0  0  0  0
   19.3902    8.4579   51.8900 N   0  0  0  0  0  0  0  0  0  0  0  0
   19.2922    7.1720   52.1549 C   0  0  0  0  0  0  0  0  0  0  0  0
   20.5273    6.7766   52.5881 N   0  0  0  0  0  0  0  0  0  0  0  0
   26.4687    8.9572   55.3394 C   0  0  0  0  0  0  0  0  0  0  0  0
   25.1196    9.2198   55.4116 C   0  0  0  0  0  0  0  0  0  0  0  0
   24.4882    8.5873   54.3767 N   0  0  0  0  0  0  0  0  0  0  0  0
   23.2192    8.5434   54.0318 N   0  0  0  0  0  0  0  0  0  0  0  0
   22.7706    7.8608   52.9654 C   0  0  0  0  0  0  0  0  0  0  0  0
   23.7223    7.1927   52.2314 C   0  0  0  0  0  0  0  0  0  0  0  0
   25.0701    7.2251   52.5778 C   0  0  0  0  0  0  0  0  0  0  0  0
   25.4325    7.9457   53.6787 C   0  0  0  0  0  0  0  0  0  0  0  0
   26.6208    8.1680   54.2568 N   0  0  0  0  0  0  0  0  0  0  0  0
   27.3499    9.2839   57.6177 C   0  0  0  0  0  0  0  0  0  0  0  0
   26.2944    8.7335   58.0828 O   0  0  0  0  0  0  0  0  0  0  0  0
   27.4743    9.4145   56.2119 N   0  0  0  0  0  0  0  0  0  0  0  0
   28.3248    9.8578   55.8268 H   0  0  0  0  0  0  0  0  0  0  0  0
   27.6386   10.5430   59.6439 C   0  0  0  0  0  0  0  0  0  0  0  0
   28.3559    9.7404   58.5786 C   0  0  0  0  0  0  0  0  0  0  0  0
   29.0092    8.5638   59.2382 C   0  0  0  0  0  0  0  0  0  0  0  0
   29.3773   10.6575   57.9425 C   0  0  0  0  0  0  0  0  0  0  0  0
   21.0470   10.2853   51.9264 C   0  0  0  0  0  0  0  0  0  0  0  0
   21.4708   11.0476   52.9887 C   0  0  0  0  0  0  0  0  0  0  0  0
   21.8624   12.3755   52.8322 C   0  0  0  0  0  0  0  0  0  0  0  0
   21.8326   12.9642   51.5840 C   0  0  0  0  0  0  0  0  0  0  0  0
   22.2160   14.2625   51.4342 F   0  0  0  0  0  0  0  0  0  0  0  0
   21.4102   12.2087   50.5167 C   0  0  0  0  0  0  0  0  0  0  0  0
   21.0234   10.8865   50.6916 C   0  0  0  0  0  0  0  0  0  0  0  0
   20.8432    5.4142   52.9859 C   0  0  0  0  0  0  0  0  0  0  0  0
   21.8911    5.3719   54.0204 C   0  0  0  0  0  0  0  0  0  0  0  0
   23.1208    4.8046   53.8081 C   0  0  0  0  0  0  0  0  0  0  0  0
   24.1083    4.7588   54.7553 C   0  0  0  0  0  0  0  0  0  0  0  0
   23.8493    5.3155   55.9930 C   0  0  0  0  0  0  0  0  0  0  0  0
   22.6167    5.8946   56.2348 C   0  0  0  0  0  0  0  0  0  0  0  0
   21.6445    5.9286   55.2721 C   0  0  0  0  0  0  0  0  0  0  0  0
 19 20  1  0  0  0
 20 21  1  0  0  0
 20 22  1  0  0  0
 20 15  1  0  0  0
 15 16  2  0  0  0
 15 17  1  0  0  0
 17  6  1  0  0  0
  6  7  2  0  0  0
  7  8  1  0  0  0
  8  9  1  0  0  0
  9 10  2  0  0  0
 10  1  1  0  0  0
  1  2  2  0  0  0
  2 23  1  0  0  0
 23 24  2  0  0  0
 24 25  1  0  0  0
 25 26  2  0  0  0
 26 27  1  0  0  0
 26 28  1  0  0  0
 28 29  2  0  0  0
  2  3  1  0  0  0
  3  4  2  0  0  0
  4  5  1  0  0  0
  5 30  1  0  0  0
 30 31  1  0  0  0
 31 32  2  0  0  0
 32 33  1  0  0  0
 33 34  2  0  0  0
 34 35  1  0  0  0
 35 36  2  0  0  0
 10 11  1  0  0  0
 11 12  2  0  0  0
 12 13  1  0  0  0
 13 14  2  0  0  0
 14  6  1  0  0  0
 13  8  1  0  0  0
  5  1  1  0  0  0
 36 31  1  0  0  0
 29 23  1  0  0  0
 17 18  1  0  0  0
M  END
> <minimizedAffinity>
36.62886

> <CNNscore>
0.2444979250

> <CNNaffinity>
6.1848497391

> <CNN_VS>
1.5121829510

> <CNNaffinity_variance>
0.5657237768

$$$$
[H]c1nc(N([H])[H])c(OC([H])([H])C([H])([H])[H])c(N2C([H])([H])C([H])([H])N(C([H])(c3c([H])c([H])c(C(F)(F)F)c([H])c3[H])C([H])([H])N([H])[H])C([H])([H])C2([H])[H])n1


 33 35  0  0  0  0  0  0  0  0999 V2000
   23.7445    8.4309   54.3923 N   0  0  0  0  0  0  0  0  0  0  0  0
   24.2200    7.7529   53.2072 C   0  0  0  0  0  0  0  0  0  0  0  0
   25.5547    8.4027   52.9326 C   0  0  0  0  0  0  0  0  0  0  0  0
   26.5763    7.7522   53.7939 N   0  0  0  0  0  0  0  0  0  0  0  0
   25.9294    7.5929   55.0995 C   0  0  0  0  0  0  0  0  0  0  0  0
   24.8700    8.5989   55.3817 C   0  0  0  0  0  0  0  0  0  0  0  0
   21.8707   10.0871   54.5331 C   0  0  0  0  0  0  0  0  0  0  0  0
   20.6039   10.4011   55.0717 C   0  0  0  0  0  0  0  0  0  0  0  0
   20.0050   11.6585   54.8267 N   0  0  0  0  0  0  0  0  0  0  0  0
   19.9648    9.5126   55.8158 N   0  0  0  0  0  0  0  0  0  0  0  0
   20.5475    8.3162   56.0398 C   0  0  0  0  0  0  0  0  0  0  0  0
   21.7443    8.0190   55.5349 N   0  0  0  0  0  0  0  0  0  0  0  0
   22.4769    8.8995   54.7482 C   0  0  0  0  0  0  0  0  0  0  0  0
   18.9824   11.6887   54.5686 H   0  0  0  0  0  0  0  0  0  0  0  0
   20.5321   12.5710   54.8980 H   0  0  0  0  0  0  0  0  0  0  0  0
   22.4292   11.0997   53.7689 O   0  0  0  0  0  0  0  0  0  0  0  0
   21.3978   10.0862   51.8621 C   0  0  0  0  0  0  0  0  0  0  0  0
   21.9749   11.3554   52.4477 C   0  0  0  0  0  0  0  0  0  0  0  0
   27.6853    8.6725   53.9502 C   0  0  0  0  0  0  0  0  0  0  0  0
   27.7550    9.2410   55.3068 C   0  0  0  0  0  0  0  0  0  0  0  0
   28.4181   10.4389   55.4955 C   0  0  0  0  0  0  0  0  0  0  0  0
   28.6125   10.9675   56.7639 C   0  0  0  0  0  0  0  0  0  0  0  0
   28.1466   10.2961   57.8724 C   0  0  0  0  0  0  0  0  0  0  0  0
   27.4787    9.1047   57.7229 C   0  0  0  0  0  0  0  0  0  0  0  0
   27.3020    8.6094   56.4277 C   0  0  0  0  0  0  0  0  0  0  0  0
   28.4075   10.8318   59.2308 C   0  0  0  0  0  0  0  0  0  0  0  0
   27.8840    9.8852   60.1410 F   0  0  0  0  0  0  0  0  0  0  0  0
   27.7629   12.0174   59.4846 F   0  0  0  0  0  0  0  0  0  0  0  0
   29.7530   10.8909   59.5063 F   0  0  0  0  0  0  0  0  0  0  0  0
   28.9733    7.8304   53.8115 C   0  0  0  0  0  0  0  0  0  0  0  0
   29.7540    7.7862   54.9961 N   0  0  0  0  0  0  0  0  0  0  0  0
   30.5172    8.4724   54.9868 H   0  0  0  0  0  0  0  0  0  0  0  0
   29.9987    6.8409   55.3098 H   0  0  0  0  0  0  0  0  0  0  0  0
 17 18  1  0  0  0
 18 16  1  0  0  0
 16  7  1  0  0  0
  7  8  2  0  0  0
  8  9  1  0  0  0
  8 10  1  0  0  0
 10 11  2  0  0  0
 11 12  1  0  0  0
 12 13  2  0  0  0
 13  1  1  0  0  0
  1  2  1  0  0  0
  2  3  1  0  0  0
  3  4  1  0  0  0
  4 19  1  0  0  0
 19 30  1  0  0  0
 30 31  1  0  0  0
 19 20  1  0  0  0
 20 21  2  0  0  0
 21 22  1  0  0  0
 22 23  2  0  0  0
 23 26  1  0  0  0
 26 27  1  0  0  0
 26 28  1  0  0  0
 26 29  1  0  0  0
 23 24  1  0  0  0
 24 25  2  0  0  0
  4  5  1  0  0  0
  5  6  1  0  0  0
 13  7  1  0  0  0
  6  1  1  0  0  0
 25 20  1  0  0  0
  9 14  1  0  0  0
  9 15  1  0  0  0
 31 32  1  0  0  0
 31 33  1  0  0  0
M  END
> <minimizedAffinity>
21.97329

> <CNNscore>
0.5155410171

> <CNNaffinity>
5.7912878990

> <CNN_VS>
2.9856464863

> <CNNaffinity_variance>
0.0337998196

$$$$
[H]c1nc(N([H])[H])c(OC([H])([H])C([H])([H])[H])c(N2C([H])([H])C([H])([H])N(C([H])(c3c([H])c([H])c(C(F)(F)F)c([H])c3[H])C([H])([H])N([H])[H])C([H])([H])C2([H])[H])n1


 33 35  0  0  0  0  0  0  0  0999 V2000
   20.9380    9.2279   52.5628 N   0  0  0  0  0  0  0  0  0  0  0  0
   20.8688    8.5407   51.2927 C   0  0  0  0  0  0  0  0  0  0  0  0
   21.7645    7.3406   51.4841 C   0  0  0  0  0  0  0  0  0  0  0  0
   20.9834    6.2808   52.1739 N   0  0  0  0  0  0  0  0  0  0  0  0
   20.2216    6.9823   53.2113 C   0  0  0  0  0  0  0  0  0  0  0  0
   20.8616    8.2353   53.6955 C   0  0  0  0  0  0  0  0  0  0  0  0
   21.0630   11.6857   52.0969 C   0  0  0  0  0  0  0  0  0  0  0  0
   21.2664   12.9822   52.6174 C   0  0  0  0  0  0  0  0  0  0  0  0
   21.2973   14.1085   51.7628 N   0  0  0  0  0  0  0  0  0  0  0  0
   21.4314   13.1519   53.9196 N   0  0  0  0  0  0  0  0  0  0  0  0
   21.3978   12.0684   54.7233 C   0  0  0  0  0  0  0  0  0  0  0  0
   21.2089   10.8436   54.2337 N   0  0  0  0  0  0  0  0  0  0  0  0
   21.0315   10.5857   52.8798 C   0  0  0  0  0  0  0  0  0  0  0  0
   20.7687   14.9751   52.0506 H   0  0  0  0  0  0  0  0  0  0  0  0
   21.8322   14.1257   50.8522 H   0  0  0  0  0  0  0  0  0  0  0  0
   20.8982   11.6460   50.7211 O   0  0  0  0  0  0  0  0  0  0  0  0
   22.8227   13.0564   50.5371 C   0  0  0  0  0  0  0  0  0  0  0  0
   21.9477   12.0344   49.8466 C   0  0  0  0  0  0  0  0  0  0  0  0
   21.9181    5.3869   52.8286 C   0  0  0  0  0  0  0  0  0  0  0  0
   23.1472    6.0761   53.2560 C   0  0  0  0  0  0  0  0  0  0  0  0
   23.5296    5.9986   54.5818 C   0  0  0  0  0  0  0  0  0  0  0  0
   24.6143    6.7161   55.0663 C   0  0  0  0  0  0  0  0  0  0  0  0
   25.3353    7.5333   54.2243 C   0  0  0  0  0  0  0  0  0  0  0  0
   24.9870    7.6317   52.8989 C   0  0  0  0  0  0  0  0  0  0  0  0
   23.8899    6.8899   52.4517 C   0  0  0  0  0  0  0  0  0  0  0  0
   26.4568    8.3456   54.7562 C   0  0  0  0  0  0  0  0  0  0  0  0
   26.8583    9.2064   53.7092 F   0  0  0  0  0  0  0  0  0  0  0  0
   27.5593    7.6005   55.0954 F   0  0  0  0  0  0  0  0  0  0  0  0
   26.0476    9.1782   55.7706 F   0  0  0  0  0  0  0  0  0  0  0  0
   21.2430    4.9378   54.1439 C   0  0  0  0  0  0  0  0  0  0  0  0
   20.0016    4.2776   53.9492 N   0  0  0  0  0  0  0  0  0  0  0  0
   19.2010    4.9097   54.0630 H   0  0  0  0  0  0  0  0  0  0  0  0
   19.9275    3.3651   54.4114 H   0  0  0  0  0  0  0  0  0  0  0  0
 17 18  1  0  0  0
 18 16  1  0  0  0
 16  7  1  0  0  0
  7  8  2  0  0  0
  8  9  1  0  0  0
  8 10  1  0  0  0
 10 11  2  0  0  0
 11 12  1  0  0  0
 12 13  2  0  0  0
 13  1  1  0  0  0
  1  2  1  0  0  0
  2  3  1  0  0  0
  3  4  1  0  0  0
  4 19  1  0  0  0
 19 30  1  0  0  0
 30 31  1  0  0  0
 19 20  1  0  0  0
 20 21  2  0  0  0
 21 22  1  0  0  0
 22 23  2  0  0  0
 23 26  1  0  0  0
 26 27  1  0  0  0
 26 28  1  0  0  0
 26 29  1  0  0  0
 23 24  1  0  0  0
 24 25  2  0  0  0
  4  5  1  0  0  0
  5  6  1  0  0  0
 13  7  1  0  0  0
  6  1  1  0  0  0
 25 20  1  0  0  0
  9 14  1  0  0  0
  9 15  1  0  0  0
 31 32  1  0  0  0
 31 33  1  0  0  0
M  END
> <minimizedAffinity>
32.31025

> <CNNscore>
0.4963374138

> <CNNaffinity>
6.2957520485

> <CNN_VS>
3.1248173714

> <CNNaffinity_variance>
0.7167454958

$$$$
[H]c1nc(N([H])[H])c(OC([H])([H])C([H])([H])[H])c(N2C([H])([H])C([H])([H])N(C([H])(c3c([H])c([H])c(C(F)(F)F)c([H])c3[H])C([H])([H])N([H])[H])C([H])([H])C2([H])[H])n1


 33 35  0  0  0  0  0  0  0  0999 V2000
   24.5776    7.5176   53.7127 N   0  0  0  0  0  0  0  0  0  0  0  0
   24.0983    6.1663   53.5269 C   0  0  0  0  0  0  0  0  0  0  0  0
   22.6032    6.2888   53.6957 C   0  0  0  0  0  0  0  0  0  0  0  0
   22.0235    6.7414   52.4042 N   0  0  0  0  0  0  0  0  0  0  0  0
   22.9399    7.7763   51.9163 C   0  0  0  0  0  0  0  0  0  0  0  0
   23.6800    8.4910   52.9911 C   0  0  0  0  0  0  0  0  0  0  0  0
   25.7878    8.8987   55.4160 C   0  0  0  0  0  0  0  0  0  0  0  0
   27.0300    9.3639   55.8996 C   0  0  0  0  0  0  0  0  0  0  0  0
   27.0905   10.2848   56.9711 N   0  0  0  0  0  0  0  0  0  0  0  0
   28.1546    8.9373   55.3472 N   0  0  0  0  0  0  0  0  0  0  0  0
   28.0818    8.0573   54.3268 C   0  0  0  0  0  0  0  0  0  0  0  0
   26.9104    7.6193   53.8671 N   0  0  0  0  0  0  0  0  0  0  0  0
   25.6890    8.0232   54.3925 C   0  0  0  0  0  0  0  0  0  0  0  0
   27.7919   10.1175   57.7414 H   0  0  0  0  0  0  0  0  0  0  0  0
   26.4711   11.1381   57.0326 H   0  0  0  0  0  0  0  0  0  0  0  0
   24.6891    9.4170   56.0835 O   0  0  0  0  0  0  0  0  0  0  0  0
   22.3757   10.0018   56.2673 C   0  0  0  0  0  0  0  0  0  0  0  0
   23.5923    9.9692   55.3696 C   0  0  0  0  0  0  0  0  0  0  0  0
   20.7445    7.3658   52.6791 C   0  0  0  0  0  0  0  0  0  0  0  0
   19.7128    6.3864   53.0594 C   0  0  0  0  0  0  0  0  0  0  0  0
   18.4241    6.8295   53.2900 C   0  0  0  0  0  0  0  0  0  0  0  0
   17.4365    5.9740   53.7577 C   0  0  0  0  0  0  0  0  0  0  0  0
   17.7282    4.6517   54.0088 C   0  0  0  0  0  0  0  0  0  0  0  0
   18.9974    4.1747   53.7867 C   0  0  0  0  0  0  0  0  0  0  0  0
   19.9613    5.0693   53.3127 C   0  0  0  0  0  0  0  0  0  0  0  0
   16.6876    3.7529   54.5653 C   0  0  0  0  0  0  0  0  0  0  0  0
   16.5992    2.6506   53.6847 F   0  0  0  0  0  0  0  0  0  0  0  0
   15.4386    4.3220   54.6074 F   0  0  0  0  0  0  0  0  0  0  0  0
   17.0675    3.2194   55.7739 F   0  0  0  0  0  0  0  0  0  0  0  0
   20.9457    8.2335   53.9417 C   0  0  0  0  0  0  0  0  0  0  0  0
   20.2953    7.7198   55.0940 N   0  0  0  0  0  0  0  0  0  0  0  0
   19.3835    8.1616   55.2575 H   0  0  0  0  0  0  0  0  0  0  0  0
   20.9019    7.6159   55.9145 H   0  0  0  0  0  0  0  0  0  0  0  0
 17 18  1  0  0  0
 18 16  1  0  0  0
 16  7  1  0  0  0
  7  8  2  0  0  0
  8  9  1  0  0  0
  8 10  1  0  0  0
 10 11  2  0  0  0
 11 12  1  0  0  0
 12 13  2  0  0  0
 13  1  1  0  0  0
  1  2  1  0  0  0
  2  3  1  0  0  0
  3  4  1  0  0  0
  4 19  1  0  0  0
 19 30  1  0  0  0
 30 31  1  0  0  0
 19 20  1  0  0  0
 20 21  2  0  0  0
 21 22  1  0  0  0
 22 23  2  0  0  0
 23 26  1  0  0  0
 26 27  1  0  0  0
 26 28  1  0  0  0
 26 29  1  0  0  0
 23 24  1  0  0  0
 24 25  2  0  0  0
  4  5  1  0  0  0
  5  6  1  0  0  0
 13  7  1  0  0  0
  6  1  1  0  0  0
 25 20  1  0  0  0
  9 14  1  0  0  0
  9 15  1  0  0  0
 31 32  1  0  0  0
 31 33  1  0  0  0
M  END
> <minimizedAffinity>
17.51540

> <CNNscore>
0.4901278615

> <CNNaffinity>
6.1150145531

> <CNN_VS>
2.9971389771

> <CNNaffinity_variance>
0.4587723315

$$$$
[H]c1nc(N([H])[H])c(OC([H])([H])C([H])([H])[H])c(N2C([H])([H])C([H])([H])N(C([H])(c3c([H])c([H])c(C(F)(F)F)c([H])c3[H])C([H])([H])N([H])[H])C([H])([H])C2([H])[H])n1


 33 35  0  0  0  0  0  0  0  0999 V2000
   24.6488    8.0469   54.8442 N   0  0  0  0  0  0  0  0  0  0  0  0
   23.8635    8.4020   56.0051 C   0  0  0  0  0  0  0  0  0  0  0  0
   22.5151    8.7627   55.4301 C   0  0  0  0  0  0  0  0  0  0  0  0
   21.7488    7.5075   55.2149 N   0  0  0  0  0  0  0  0  0  0  0  0
   22.7173    6.5604   54.6548 C   0  0  0  0  0  0  0  0  0  0  0  0
   23.8304    7.2000   53.9025 C   0  0  0  0  0  0  0  0  0  0  0  0
   27.0363    8.6866   55.2495 C   0  0  0  0  0  0  0  0  0  0  0  0
   28.2840    9.0297   54.6849 C   0  0  0  0  0  0  0  0  0  0  0  0
   29.3720    9.4040   55.5070 N   0  0  0  0  0  0  0  0  0  0  0  0
   28.4433    9.0030   53.3712 N   0  0  0  0  0  0  0  0  0  0  0  0
   27.3971    8.6422   52.5991 C   0  0  0  0  0  0  0  0  0  0  0  0
   26.2179    8.3209   53.1299 N   0  0  0  0  0  0  0  0  0  0  0  0
   25.9731    8.3283   54.4978 C   0  0  0  0  0  0  0  0  0  0  0  0
   30.3240    8.9990   55.2998 H   0  0  0  0  0  0  0  0  0  0  0  0
   29.2778   10.0775   56.3152 H   0  0  0  0  0  0  0  0  0  0  0  0
   27.0037    8.7490   56.6339 O   0  0  0  0  0  0  0  0  0  0  0  0
   28.2878    9.0423   58.6319 C   0  0  0  0  0  0  0  0  0  0  0  0
   27.8116    9.6763   57.3442 C   0  0  0  0  0  0  0  0  0  0  0  0
   20.7372    7.7646   54.2090 C   0  0  0  0  0  0  0  0  0  0  0  0
   21.0448    8.9530   53.3957 C   0  0  0  0  0  0  0  0  0  0  0  0
   21.2548   10.1617   54.0322 C   0  0  0  0  0  0  0  0  0  0  0  0
   21.4382   11.3359   53.3154 C   0  0  0  0  0  0  0  0  0  0  0  0
   21.4084   11.3181   51.9387 C   0  0  0  0  0  0  0  0  0  0  0  0
   21.2066   10.1340   51.2716 C   0  0  0  0  0  0  0  0  0  0  0  0
   21.0292    8.9744   52.0319 C   0  0  0  0  0  0  0  0  0  0  0  0
   21.5446   12.5826   51.1752 C   0  0  0  0  0  0  0  0  0  0  0  0
   20.8041   13.5577   51.8818 F   0  0  0  0  0  0  0  0  0  0  0  0
   21.0068   12.5206   49.9132 F   0  0  0  0  0  0  0  0  0  0  0  0
   22.8401   13.0427   51.1769 F   0  0  0  0  0  0  0  0  0  0  0  0
   20.8001    6.5828   53.2157 C   0  0  0  0  0  0  0  0  0  0  0  0
   19.6985    5.6936   53.3196 N   0  0  0  0  0  0  0  0  0  0  0  0
   19.9115    4.8739   53.8993 H   0  0  0  0  0  0  0  0  0  0  0  0
   19.2156    5.5088   52.4338 H   0  0  0  0  0  0  0  0  0  0  0  0
 17 18  1  0  0  0
 18 16  1  0  0  0
 16  7  1  0  0  0
  7  8  2  0  0  0
  8  9  1  0  0  0
  8 10  1  0  0  0
 10 11  2  0  0  0
 11 12  1  0  0  0
 12 13  2  0  0  0
 13  1  1  0  0  0
  1  2  1  0  0  0
  2  3  1  0  0  0
  3  4  1  0  0  0
  4 19  1  0  0  0
 19 30  1  0  0  0
 30 31  1  0  0  0
 19 20  1  0  0  0
 20 21  2  0  0  0
 21 22  1  0  0  0
 22 23  2  0  0  0
 23 26  1  0  0  0
 26 27  1  0  0  0
 26 28  1  0  0  0
 26 29  1  0  0  0
 23 24  1  0  0  0
 24 25  2  0  0  0
  4  5  1  0  0  0
  5  6  1  0  0  0
 13  7  1  0  0  0
  6  1  1  0  0  0
 25 20  1  0  0  0
  9 14  1  0  0  0
  9 15  1  0  0  0
 31 32  1  0  0  0
 31 33  1  0  0  0
M  END
> <minimizedAffinity>
9.51987

> <CNNscore>
0.4699920714

> <CNNaffinity>
6.3395128250

> <CNN_VS>
2.9795207977

> <CNNaffinity_variance>
0.3060598969

$$$$
[H]c1nc(N([H])[H])c(OC([H])([H])C([H])([H])[H])c(N2C([H])([H])C([H])([H])N(C([H])(c3c([H])c([H])c(C(F)(F)F)c([H])c3[H])C([H])([H])N([H])[H])C([H])([H])C2([H])[H])n1


 33 35  0  0  0  0  0  0  0  0999 V2000
   20.4063    6.4531   53.4771 N   0  0  0  0  0  0  0  0  0  0  0  0
   19.5862    7.6375   53.3552 C   0  0  0  0  0  0  0  0  0  0  0  0
   20.1515    8.5746   54.3950 C   0  0  0  0  0  0  0  0  0  0  0  0
   21.3371    9.2564   53.8133 N   0  0  0  0  0  0  0  0  0  0  0  0
   22.0622    8.2089   53.0883 C   0  0  0  0  0  0  0  0  0  0  0  0
   21.8562    6.8384   53.6298 C   0  0  0  0  0  0  0  0  0  0  0  0
   20.8499    3.9973   53.2633 C   0  0  0  0  0  0  0  0  0  0  0  0
   20.3056    2.6980   53.1686 C   0  0  0  0  0  0  0  0  0  0  0  0
   21.1424    1.5757   52.9686 N   0  0  0  0  0  0  0  0  0  0  0  0
   18.9975    2.5220   53.2667 N   0  0  0  0  0  0  0  0  0  0  0  0
   18.2114    3.6018   53.4593 C   0  0  0  0  0  0  0  0  0  0  0  0
   18.7228    4.8291   53.5460 N   0  0  0  0  0  0  0  0  0  0  0  0
   20.0836    5.0937   53.4495 C   0  0  0  0  0  0  0  0  0  0  0  0
   20.9699    0.7086   53.5445 H   0  0  0  0  0  0  0  0  0  0  0  0
   21.9281    1.5618   52.2629 H   0  0  0  0  0  0  0  0  0  0  0  0
   22.2307    4.0436   53.1503 O   0  0  0  0  0  0  0  0  0  0  0  0
   23.5495    5.2770   54.7208 C   0  0  0  0  0  0  0  0  0  0  0  0
   22.9401    5.2598   53.3369 C   0  0  0  0  0  0  0  0  0  0  0  0
   22.1754    9.7112   54.9049 C   0  0  0  0  0  0  0  0  0  0  0  0
   23.5668    9.2472   54.7740 C   0  0  0  0  0  0  0  0  0  0  0  0
   24.4560    9.5050   55.8002 C   0  0  0  0  0  0  0  0  0  0  0  0
   25.8032    9.1915   55.6876 C   0  0  0  0  0  0  0  0  0  0  0  0
   26.2856    8.6152   54.5335 C   0  0  0  0  0  0  0  0  0  0  0  0
   25.4301    8.3402   53.4942 C   0  0  0  0  0  0  0  0  0  0  0  0
   24.0805    8.6692   53.6503 C   0  0  0  0  0  0  0  0  0  0  0  0
   27.7354    8.3358   54.3912 C   0  0  0  0  0  0  0  0  0  0  0  0
   28.2856    8.4070   55.6915 F   0  0  0  0  0  0  0  0  0  0  0  0
   28.4004    9.2677   53.6328 F   0  0  0  0  0  0  0  0  0  0  0  0
   27.9681    7.0476   53.9713 F   0  0  0  0  0  0  0  0  0  0  0  0
   22.2613   11.2486   54.7771 C   0  0  0  0  0  0  0  0  0  0  0  0
   21.6385   11.7575   53.6075 N   0  0  0  0  0  0  0  0  0  0  0  0
   22.3088   11.9212   52.8478 H   0  0  0  0  0  0  0  0  0  0  0  0
   20.9567   12.5044   53.7788 H   0  0  0  0  0  0  0  0  0  0  0  0
 17 18  1  0  0  0
 18 16  1  0  0  0
 16  7  1  0  0  0
  7  8  2  0  0  0
  8  9  1  0  0  0
  8 10  1  0  0  0
 10 11  2  0  0  0
 11 12  1  0  0  0
 12 13  2  0  0  0
 13  1  1  0  0  0
  1  2  1  0  0  0
  2  3  1  0  0  0
  3  4  1  0  0  0
  4 19  1  0  0  0
 19 30  1  0  0  0
 30 31  1  0  0  0
 19 20  1  0  0  0
 20 21  2  0  0  0
 21 22  1  0  0  0
 22 23  2  0  0  0
 23 26  1  0  0  0
 26 27  1  0  0  0
 26 28  1  0  0  0
 26 29  1  0  0  0
 23 24  1  0  0  0
 24 25  2  0  0  0
  4  5  1  0  0  0
  5  6  1  0  0  0
 13  7  1  0  0  0
  6  1  1  0  0  0
 25 20  1  0  0  0
  9 14  1  0  0  0
  9 15  1  0  0  0
 31 32  1  0  0  0
 31 33  1  0  0  0
M  END
> <minimizedAffinity>
24.95321

> <CNNscore>
0.4625627697

> <CNNaffinity>
6.3735795021

> <CNN_VS>
2.9481806755

> <CNNaffinity_variance>
0.5709145665

$$$$
[H]c1nc(N([H])[H])c(OC([H])([H])C([H])([H])[H])c(N2C([H])([H])C([H])([H])N(C([H])(c3c([H])c([H])c(C(F)(F)F)c([H])c3[H])C([H])([H])N([H])[H])C([H])([H])C2([H])[H])n1


 33 35  0  0  0  0  0  0  0  0999 V2000
   21.1672    9.0927   52.1200 N   0  0  0  0  0  0  0  0  0  0  0  0
   21.2229    7.8093   51.4568 C   0  0  0  0  0  0  0  0  0  0  0  0
   22.1362    6.9897   52.3360 C   0  0  0  0  0  0  0  0  0  0  0  0
   21.3344    6.4456   53.4629 N   0  0  0  0  0  0  0  0  0  0  0  0
   20.4694    7.5514   53.8845 C   0  0  0  0  0  0  0  0  0  0  0  0
   21.0292    8.9023   53.6096 C   0  0  0  0  0  0  0  0  0  0  0  0
   21.5363   11.5688   52.1990 C   0  0  0  0  0  0  0  0  0  0  0  0
   21.3937   12.8104   51.5421 C   0  0  0  0  0  0  0  0  0  0  0  0
   21.7607   14.0155   52.1846 N   0  0  0  0  0  0  0  0  0  0  0  0
   20.9108   12.8533   50.3105 N   0  0  0  0  0  0  0  0  0  0  0  0
   20.5665   11.6954   49.7091 C   0  0  0  0  0  0  0  0  0  0  0  0
   20.6975   10.5230   50.3285 N   0  0  0  0  0  0  0  0  0  0  0  0
   21.1931   10.3977   51.6207 C   0  0  0  0  0  0  0  0  0  0  0  0
   22.3140   14.7297   51.6396 H   0  0  0  0  0  0  0  0  0  0  0  0
   21.4996   14.2380   53.1835 H   0  0  0  0  0  0  0  0  0  0  0  0
   22.0580   11.6614   53.4800 O   0  0  0  0  0  0  0  0  0  0  0  0
   22.2717   10.4232   55.5167 C   0  0  0  0  0  0  0  0  0  0  0  0
   21.3336   11.1785   54.6021 C   0  0  0  0  0  0  0  0  0  0  0  0
   22.2394    6.1409   54.5534 C   0  0  0  0  0  0  0  0  0  0  0  0
   23.5306    6.8365   54.4213 C   0  0  0  0  0  0  0  0  0  0  0  0
   24.5328    6.2477   53.6736 C   0  0  0  0  0  0  0  0  0  0  0  0
   25.8043    6.7995   53.6039 C   0  0  0  0  0  0  0  0  0  0  0  0
   26.0954    7.9564   54.2921 C   0  0  0  0  0  0  0  0  0  0  0  0
   25.1226    8.5722   55.0420 C   0  0  0  0  0  0  0  0  0  0  0  0
   23.8549    7.9846   55.0826 C   0  0  0  0  0  0  0  0  0  0  0  0
   27.4705    8.5121   54.2651 C   0  0  0  0  0  0  0  0  0  0  0  0
   28.3464    7.4066   54.1696 F   0  0  0  0  0  0  0  0  0  0  0  0
   27.8116    9.1844   55.4129 F   0  0  0  0  0  0  0  0  0  0  0  0
   27.6993    9.2526   53.1297 F   0  0  0  0  0  0  0  0  0  0  0  0
   21.6018    6.7370   55.8284 C   0  0  0  0  0  0  0  0  0  0  0  0
   21.8374    5.9651   56.9961 N   0  0  0  0  0  0  0  0  0  0  0  0
   21.0540    5.3395   57.2154 H   0  0  0  0  0  0  0  0  0  0  0  0
   22.2298    6.4928   57.7832 H   0  0  0  0  0  0  0  0  0  0  0  0
 17 18  1  0  0  0
 18 16  1  0  0  0
 16  7  1  0  0  0
  7  8  2  0  0  0
  8  9  1  0  0  0
  8 10  1  0  0  0
 10 11  2  0  0  0
 11 12  1  0  0  0
 12 13  2  0  0  0
 13  1  1  0  0  0
  1  2  1  0  0  0
  2  3  1  0  0  0
  3  4  1  0  0  0
  4 19  1  0  0  0
 19 30  1  0  0  0
 30 31  1  0  0  0
 19 20  1  0  0  0
 20 21  2  0  0  0
 21 22  1  0  0  0
 22 23  2  0  0  0
 23 26  1  0  0  0
 26 27  1  0  0  0
 26 28  1  0  0  0
 26 29  1  0  0  0
 23 24  1  0  0  0
 24 25  2  0  0  0
  4  5  1  0  0  0
  5  6  1  0  0  0
 13  7  1  0  0  0
  6  1  1  0  0  0
 25 20  1  0  0  0
  9 14  1  0  0  0
  9 15  1  0  0  0
 31 32  1  0  0  0
 31 33  1  0  0  0
M  END
> <minimizedAffinity>
15.84155

> <CNNscore>
0.4620468915

> <CNNaffinity>
6.0885624886

> <CNN_VS>
2.8132014275

> <CNNaffinity_variance>
0.4945409894

$$$$
[H]c1nc(N([H])[H])c(OC([H])([H])C([H])([H])[H])c(N2C([H])([H])C([H])([H])N(C([H])(c3c([H])c([H])c(C(F)(F)F)c([H])c3[H])C([H])([H])N([H])[H])C([H])([H])C2([H])[H])n1


 33 35  0  0  0  0  0  0  0  0999 V2000
   24.8049    7.2058   54.2148 N   0  0  0  0  0  0  0  0  0  0  0  0
   24.1721    5.9772   54.6393 C   0  0  0  0  0  0  0  0  0  0  0  0
   22.6965    6.2818   54.5454 C   0  0  0  0  0  0  0  0  0  0  0  0
   22.2695    6.0907   53.1347 N   0  0  0  0  0  0  0  0  0  0  0  0
   23.3413    6.6819   52.3281 C   0  0  0  0  0  0  0  0  0  0  0  0
   24.0900    7.7701   53.0129 C   0  0  0  0  0  0  0  0  0  0  0  0
   26.0348    8.8863   55.6064 C   0  0  0  0  0  0  0  0  0  0  0  0
   27.2644    9.5207   55.8875 C   0  0  0  0  0  0  0  0  0  0  0  0
   27.3398   10.5630   56.8403 N   0  0  0  0  0  0  0  0  0  0  0  0
   28.3628    9.1402   55.2547 N   0  0  0  0  0  0  0  0  0  0  0  0
   28.2763    8.1432   54.3495 C   0  0  0  0  0  0  0  0  0  0  0  0
   27.1163    7.5452   54.0806 N   0  0  0  0  0  0  0  0  0  0  0  0
   25.9218    7.8909   54.7007 C   0  0  0  0  0  0  0  0  0  0  0  0
   28.1333   10.5547   57.5357 H   0  0  0  0  0  0  0  0  0  0  0  0
   26.6424   11.3551   56.8834 H   0  0  0  0  0  0  0  0  0  0  0  0
   24.9643    9.3734   56.3401 O   0  0  0  0  0  0  0  0  0  0  0  0
   22.5932    9.5474   56.0674 C   0  0  0  0  0  0  0  0  0  0  0  0
   23.9409   10.1396   55.7214 C   0  0  0  0  0  0  0  0  0  0  0  0
   21.0642    6.8668   52.9202 C   0  0  0  0  0  0  0  0  0  0  0  0
   19.8497    6.1397   53.3261 C   0  0  0  0  0  0  0  0  0  0  0  0
   19.9005    4.7628   53.4341 C   0  0  0  0  0  0  0  0  0  0  0  0
   18.7631    4.0146   53.7038 C   0  0  0  0  0  0  0  0  0  0  0  0
   17.5463    4.6389   53.8656 C   0  0  0  0  0  0  0  0  0  0  0  0
   17.4585    6.0067   53.7698 C   0  0  0  0  0  0  0  0  0  0  0  0
   18.6286    6.7223   53.4998 C   0  0  0  0  0  0  0  0  0  0  0  0
   16.3216    3.8338   54.0942 C   0  0  0  0  0  0  0  0  0  0  0  0
   16.2356    3.6249   55.4897 F   0  0  0  0  0  0  0  0  0  0  0  0
   16.3681    2.5901   53.5139 F   0  0  0  0  0  0  0  0  0  0  0  0
   15.1837    4.5306   53.7632 F   0  0  0  0  0  0  0  0  0  0  0  0
   21.1425    8.0695   53.8869 C   0  0  0  0  0  0  0  0  0  0  0  0
   21.0544    9.3282   53.2367 N   0  0  0  0  0  0  0  0  0  0  0  0
   21.9767    9.7443   53.0645 H   0  0  0  0  0  0  0  0  0  0  0  0
   20.3386    9.9556   53.6187 H   0  0  0  0  0  0  0  0  0  0  0  0
 17 18  1  0  0  0
 18 16  1  0  0  0
 16  7  1  0  0  0
  7  8  2  0  0  0
  8  9  1  0  0  0
  8 10  1  0  0  0
 10 11  2  0  0  0
 11 12  1  0  0  0
 12 13  2  0  0  0
 13  1  1  0  0  0
  1  2  1  0  0  0
  2  3  1  0  0  0
  3  4  1  0  0  0
  4 19  1  0  0  0
 19 30  1  0  0  0
 30 31  1  0  0  0
 19 20  1  0  0  0
 20 21  2  0  0  0
 21 22  1  0  0  0
 22 23  2  0  0  0
 23 26  1  0  0  0
 26 27  1  0  0  0
 26 28  1  0  0  0
 26 29  1  0  0  0
 23 24  1  0  0  0
 24 25  2  0  0  0
  4  5  1  0  0  0
  5  6  1  0  0  0
 13  7  1  0  0  0
  6  1  1  0  0  0
 25 20  1  0  0  0
  9 14  1  0  0  0
  9 15  1  0  0  0
 31 32  1  0  0  0
 31 33  1  0  0  0
M  END
> <minimizedAffinity>
15.51646

> <CNNscore>
0.4534222782

> <CNNaffinity>
6.0548620224

> <CNN_VS>
2.7454092503

> <CNNaffinity_variance>
0.3668034375

$$$$
[H]c1nc(N([H])[H])c(OC([H])([H])C([H])([H])[H])c(N2C([H])([H])C([H])([H])N(C([H])(c3c([H])c([H])c(C(F)(F)F)c([H])c3[H])C([H])([H])N([H])[H])C([H])([H])C2([H])[H])n1


 33 35  0  0  0  0  0  0  0  0999 V2000
   24.2314    7.7181   54.3223 N   0  0  0  0  0  0  0  0  0  0  0  0
   25.1139    6.6061   54.5961 C   0  0  0  0  0  0  0  0  0  0  0  0
   26.4939    7.1855   54.3987 C   0  0  0  0  0  0  0  0  0  0  0  0
   26.8873    7.8895   55.6471 N   0  0  0  0  0  0  0  0  0  0  0  0
   25.6848    8.6112   56.0734 C   0  0  0  0  0  0  0  0  0  0  0  0
   24.7658    8.9751   54.9612 C   0  0  0  0  0  0  0  0  0  0  0  0
   21.7505    7.9340   54.0534 C   0  0  0  0  0  0  0  0  0  0  0  0
   20.6444    7.8866   53.1773 C   0  0  0  0  0  0  0  0  0  0  0  0
   19.3261    8.0326   53.6677 N   0  0  0  0  0  0  0  0  0  0  0  0
   20.8372    7.7031   51.8808 N   0  0  0  0  0  0  0  0  0  0  0  0
   22.1006    7.5671   51.4267 C   0  0  0  0  0  0  0  0  0  0  0  0
   23.1457    7.6085   52.2523 N   0  0  0  0  0  0  0  0  0  0  0  0
   23.0233    7.7943   53.6240 C   0  0  0  0  0  0  0  0  0  0  0  0
   18.6597    8.6613   53.1444 H   0  0  0  0  0  0  0  0  0  0  0  0
   18.9742    7.5347   54.5302 H   0  0  0  0  0  0  0  0  0  0  0  0
   21.4133    8.1369   55.3825 O   0  0  0  0  0  0  0  0  0  0  0  0
   21.6202   10.4737   54.9095 C   0  0  0  0  0  0  0  0  0  0  0  0
   21.0832    9.4314   55.8646 C   0  0  0  0  0  0  0  0  0  0  0  0
   27.9037    8.8670   55.3113 C   0  0  0  0  0  0  0  0  0  0  0  0
   28.0031    9.0965   53.8602 C   0  0  0  0  0  0  0  0  0  0  0  0
   28.9349   10.0023   53.3897 C   0  0  0  0  0  0  0  0  0  0  0  0
   29.0004   10.3427   52.0459 C   0  0  0  0  0  0  0  0  0  0  0  0
   28.1225    9.7803   51.1460 C   0  0  0  0  0  0  0  0  0  0  0  0
   27.1856    8.8724   51.5768 C   0  0  0  0  0  0  0  0  0  0  0  0
   27.1560    8.5556   52.9380 C   0  0  0  0  0  0  0  0  0  0  0  0
   28.1542   10.1898   49.7206 C   0  0  0  0  0  0  0  0  0  0  0  0
   29.0418    9.3028   49.0697 F   0  0  0  0  0  0  0  0  0  0  0  0
   28.6514   11.4549   49.5256 F   0  0  0  0  0  0  0  0  0  0  0  0
   26.9388    9.9981   49.1075 F   0  0  0  0  0  0  0  0  0  0  0  0
   27.4190   10.2156   55.8892 C   0  0  0  0  0  0  0  0  0  0  0  0
   27.9902   10.5322   57.1494 N   0  0  0  0  0  0  0  0  0  0  0  0
   27.3763   10.2778   57.9315 H   0  0  0  0  0  0  0  0  0  0  0  0
   28.4257   11.4595   57.1986 H   0  0  0  0  0  0  0  0  0  0  0  0
 17 18  1  0  0  0
 18 16  1  0  0  0
 16  7  1  0  0  0
  7  8  2  0  0  0
  8  9  1  0  0  0
  8 10  1  0  0  0
 10 11  2  0  0  0
 11 12  1  0  0  0
 12 13  2  0  0  0
 13  1  1  0  0  0
  1  2  1  0  0  0
  2  3  1  0  0  0
  3  4  1  0  0  0
  4 19  1  0  0  0
 19 30  1  0  0  0
 30 31  1  0  0  0
 19 20  1  0  0  0
 20 21  2  0  0  0
 21 22  1  0  0  0
 22 23  2  0  0  0
 23 26  1  0  0  0
 26 27  1  0  0  0
 26 28  1  0  0  0
 26 29  1  0  0  0
 23 24  1  0  0  0
 24 25  2  0  0  0
  4  5  1  0  0  0
  5  6  1  0  0  0
 13  7  1  0  0  0
  6  1  1  0  0  0
 25 20  1  0  0  0
  9 14  1  0  0  0
  9 15  1  0  0  0
 31 32  1  0  0  0
 31 33  1  0  0  0
M  END
> <minimizedAffinity>
25.46615

> <CNNscore>
0.4528444111

> <CNNaffinity>
6.2649879456

> <CNN_VS>
2.8370647430

> <CNNaffinity_variance>
0.4484009147

$$$$
[H]c1nc(N([H])[H])c(OC([H])([H])C([H])([H])[H])c(N2C([H])([H])C([H])([H])N(C([H])(c3c([H])c([H])c(C(F)(F)F)c([H])c3[H])C([H])([H])N([H])[H])C([H])([H])C2([H])[H])n1


 33 35  0  0  0  0  0  0  0  0999 V2000
   19.7715    5.7191   53.9766 N   0  0  0  0  0  0  0  0  0  0  0  0
   20.5527    6.0704   55.1414 C   0  0  0  0  0  0  0  0  0  0  0  0
   21.9538    6.2250   54.6012 C   0  0  0  0  0  0  0  0  0  0  0  0
   22.0831    7.5880   54.0230 N   0  0  0  0  0  0  0  0  0  0  0  0
   20.8313    7.8138   53.2945 C   0  0  0  0  0  0  0  0  0  0  0  0
   20.1804    6.5703   52.8009 C   0  0  0  0  0  0  0  0  0  0  0  0
   18.6798    3.6630   53.0525 C   0  0  0  0  0  0  0  0  0  0  0  0
   17.4948    2.9067   52.9219 C   0  0  0  0  0  0  0  0  0  0  0  0
   17.4682    1.7340   52.1320 N   0  0  0  0  0  0  0  0  0  0  0  0
   16.3925    3.2950   53.5431 N   0  0  0  0  0  0  0  0  0  0  0  0
   16.4330    4.4150   54.2948 C   0  0  0  0  0  0  0  0  0  0  0  0
   17.5496    5.1317   54.4170 N   0  0  0  0  0  0  0  0  0  0  0  0
   18.7437    4.7901   53.7938 C   0  0  0  0  0  0  0  0  0  0  0  0
   16.9890    0.8766   52.5174 H   0  0  0  0  0  0  0  0  0  0  0  0
   17.8991    1.6784   51.1693 H   0  0  0  0  0  0  0  0  0  0  0  0
   19.7623    3.1461   52.3579 O   0  0  0  0  0  0  0  0  0  0  0  0
   20.6761    1.0226   52.9764 C   0  0  0  0  0  0  0  0  0  0  0  0
   20.8413    2.5244   53.0409 C   0  0  0  0  0  0  0  0  0  0  0  0
   23.1668    7.5676   53.0604 C   0  0  0  0  0  0  0  0  0  0  0  0
   24.4350    8.0484   53.6338 C   0  0  0  0  0  0  0  0  0  0  0  0
   25.5871    7.9585   52.8757 C   0  0  0  0  0  0  0  0  0  0  0  0
   26.8279    8.2915   53.4008 C   0  0  0  0  0  0  0  0  0  0  0  0
   26.9353    8.7180   54.7059 C   0  0  0  0  0  0  0  0  0  0  0  0
   25.8107    8.8240   55.4881 C   0  0  0  0  0  0  0  0  0  0  0  0
   24.5807    8.4815   54.9190 C   0  0  0  0  0  0  0  0  0  0  0  0
   28.2685    9.0160   55.2839 C   0  0  0  0  0  0  0  0  0  0  0  0
   28.8721    9.9651   54.4275 F   0  0  0  0  0  0  0  0  0  0  0  0
   29.1064    7.9285   55.3162 F   0  0  0  0  0  0  0  0  0  0  0  0
   28.1675    9.6432   56.5029 F   0  0  0  0  0  0  0  0  0  0  0  0
   23.4258    6.0812   52.7272 C   0  0  0  0  0  0  0  0  0  0  0  0
   24.2368    5.4171   53.6843 N   0  0  0  0  0  0  0  0  0  0  0  0
   25.2227    5.3788   53.4015 H   0  0  0  0  0  0  0  0  0  0  0  0
   23.8367    4.5468   54.0509 H   0  0  0  0  0  0  0  0  0  0  0  0
 17 18  1  0  0  0
 18 16  1  0  0  0
 16  7  1  0  0  0
  7  8  2  0  0  0
  8  9  1  0  0  0
  8 10  1  0  0  0
 10 11  2  0  0  0
 11 12  1  0  0  0
 12 13  2  0  0  0
 13  1  1  0  0  0
  1  2  1  0  0  0
  2  3  1  0  0  0
  3  4  1  0  0  0
  4 19  1  0  0  0
 19 30  1  0  0  0
 30 31  1  0  0  0
 19 20  1  0  0  0
 20 21  2  0  0  0
 21 22  1  0  0  0
 22 23  2  0  0  0
 23 26  1  0  0  0
 26 27  1  0  0  0
 26 28  1  0  0  0
 26 29  1  0  0  0
 23 24  1  0  0  0
 24 25  2  0  0  0
  4  5  1  0  0  0
  5  6  1  0  0  0
 13  7  1  0  0  0
  6  1  1  0  0  0
 25 20  1  0  0  0
  9 14  1  0  0  0
  9 15  1  0  0  0
 31 32  1  0  0  0
 31 33  1  0  0  0
M  END
> <minimizedAffinity>
27.47978

> <CNNscore>
0.4444570243

> <CNNaffinity>
6.1936159134

> <CNN_VS>
2.7527961731

> <CNNaffinity_variance>
0.4547369480

$$$$
[H]OC(=O)[C@@]([H])(Oc1c(Br)c([H])c(-c2c([H])c([H])c(-c3c(C([H])([H])c4c([H])c([H])c([H])c([H])c4[H])oc4c([H])c([H])c([H])c([H])c34)c([H])c2[H])c([H])c1Br)C([H])([H])c1c([H])c([H])c([H])c([H])c1[H]


 43 48  0  0  0  0  0  0  0  0999 V2000
   26.2032    8.9592   56.1451 C   0  0  0  0  0  0  0  0  0  0  0  0
   27.5626    9.0599   55.9214 C   0  0  0  0  0  0  0  0  0  0  0  0
   28.3664    9.4525   56.9601 C   0  0  0  0  0  0  0  0  0  0  0  0
   27.9232    9.7584   58.2244 C   0  0  0  0  0  0  0  0  0  0  0  0
   26.5364    9.6424   58.4100 C   0  0  0  0  0  0  0  0  0  0  0  0
   25.7113    9.2541   57.3948 C   0  0  0  0  0  0  0  0  0  0  0  0
   28.7631   10.2037   59.3196 C   0  0  0  0  0  0  0  0  0  0  0  0
   28.9618   11.4258   59.8480 C   0  0  0  0  0  0  0  0  0  0  0  0
   29.8657   11.3344   60.8266 O   0  0  0  0  0  0  0  0  0  0  0  0
   30.2774   10.1020   60.9740 C   0  0  0  0  0  0  0  0  0  0  0  0
   31.1808    9.5063   61.8263 C   0  0  0  0  0  0  0  0  0  0  0  0
   31.4352    8.1526   61.7695 C   0  0  0  0  0  0  0  0  0  0  0  0
   30.7510    7.4142   60.8274 C   0  0  0  0  0  0  0  0  0  0  0  0
   29.8359    8.0062   59.9607 C   0  0  0  0  0  0  0  0  0  0  0  0
   29.6113    9.3399   60.0447 C   0  0  0  0  0  0  0  0  0  0  0  0
   28.3494   12.7267   59.5061 C   0  0  0  0  0  0  0  0  0  0  0  0
   29.1423   13.8468   60.0473 C   0  0  0  0  0  0  0  0  0  0  0  0
   28.9482   15.1673   59.7857 C   0  0  0  0  0  0  0  0  0  0  0  0
   29.7616   16.1608   60.3540 C   0  0  0  0  0  0  0  0  0  0  0  0
   30.7905   15.8288   61.2003 C   0  0  0  0  0  0  0  0  0  0  0  0
   31.0051   14.4975   61.4791 C   0  0  0  0  0  0  0  0  0  0  0  0
   30.1973   13.5290   60.9146 C   0  0  0  0  0  0  0  0  0  0  0  0
   23.4087    7.8278   53.0838 C   0  0  0  0  0  0  0  0  0  0  0  0
   24.5052    7.0177   53.4081 C   0  0  0  0  0  0  0  0  0  0  0  0
   24.7184    5.3795   52.4675 Br  0  0  0  0  0  0  0  0  0  0  0  0
   25.4024    7.3854   54.3914 C   0  0  0  0  0  0  0  0  0  0  0  0
   25.2691    8.5555   55.1006 C   0  0  0  0  0  0  0  0  0  0  0  0
   24.1878    9.3659   54.7891 C   0  0  0  0  0  0  0  0  0  0  0  0
   23.2814    8.9896   53.7885 C   0  0  0  0  0  0  0  0  0  0  0  0
   21.8906   10.2700   53.4067 Br  0  0  0  0  0  0  0  0  0  0  0  0
   22.5192    7.4722   52.1051 O   0  0  0  0  0  0  0  0  0  0  0  0
   21.2812    6.7967   52.2779 C   0  0  0  0  0  0  0  0  0  0  0  0
   19.6090    8.1840   53.3591 O   0  0  0  0  0  0  0  0  0  0  0  0
   20.2479    7.8545   52.3212 C   0  0  0  0  0  0  0  0  0  0  0  0
   19.9154    8.5726   51.1786 O   0  0  0  0  0  0  0  0  0  0  0  0
   19.4435    8.2351   50.3807 H   0  0  0  0  0  0  0  0  0  0  0  0
   21.2396    5.9702   53.5525 C   0  0  0  0  0  0  0  0  0  0  0  0
   20.2551    4.8726   53.5270 C   0  0  0  0  0  0  0  0  0  0  0  0
   18.9972    5.0745   54.1269 C   0  0  0  0  0  0  0  0  0  0  0  0
   18.0643    4.0574   54.0732 C   0  0  0  0  0  0  0  0  0  0  0  0
   18.3280    2.8496   53.4499 C   0  0  0  0  0  0  0  0  0  0  0  0
   19.5769    2.6985   52.8753 C   0  0  0  0  0  0  0  0  0  0  0  0
   20.5326    3.6839   52.9055 C   0  0  0  0  0  0  0  0  0  0  0  0
 33 34  2  0  0  0
 34 35  1  0  0  0
 34 32  1  0  0  0
 32 37  1  0  0  0
 37 38  1  0  0  0
 38 39  2  0  0  0
 39 40  1  0  0  0
 40 41  2  0  0  0
 41 42  1  0  0  0
 42 43  2  0  0  0
 32 31  1  0  0  0
 31 23  1  0  0  0
 23 24  2  0  0  0
 24 25  1  0  0  0
 24 26  1  0  0  0
 26 27  2  0  0  0
 27  1  1  0  0  0
  1  2  2  0  0  0
  2  3  1  0  0  0
  3  4  2  0  0  0
  4  7  1  0  0  0
  7  8  2  0  0  0
  8 16  1  0  0  0
 16 17  1  0  0  0
 17 18  2  0  0  0
 18 19  1  0  0  0
 19 20  2  0  0  0
 20 21  1  0  0  0
 21 22  2  0  0  0
  8  9  1  0  0  0
  9 10  1  0  0  0
 10 11  2  0  0  0
 11 12  1  0  0  0
 12 13  2  0  0  0
 13 14  1  0  0  0
 14 15  2  0  0  0
  4  5  1  0  0  0
  5  6  2  0  0  0
 27 28  1  0  0  0
 28 29  2  0  0  0
 29 30  1  0  0  0
 43 38  1  0  0  0
 29 23  1  0  0  0
  6  1  1  0  0  0
 15  7  1  0  0  0
 22 17  1  0  0  0
 15 10  1  0  0  0
 35 36  1  0  0  0
M  END
> <minimizedAffinity>
24.81946

> <CNNscore>
0.5587623715

> <CNNaffinity>
6.6135435104

> <CNN_VS>
3.6953992844

> <CNNaffinity_variance>
0.0721132979

$$$$
[H]OC(=O)[C@@]([H])(Oc1c(Br)c([H])c(-c2c([H])c([H])c(-c3c(C([H])([H])c4c([H])c([H])c([H])c([H])c4[H])oc4c([H])c([H])c([H])c([H])c34)c([H])c2[H])c([H])c1Br)C([H])([H])c1c([H])c([H])c([H])c([H])c1[H]


 43 48  0  0  0  0  0  0  0  0999 V2000
   26.2672    8.9991   56.1352 C   0  0  0  0  0  0  0  0  0  0  0  0
   27.6120    9.1966   55.8891 C   0  0  0  0  0  0  0  0  0  0  0  0
   28.4163    9.5760   56.9322 C   0  0  0  0  0  0  0  0  0  0  0  0
   27.9871    9.7788   58.2219 C   0  0  0  0  0  0  0  0  0  0  0  0
   26.6148    9.5666   58.4296 C   0  0  0  0  0  0  0  0  0  0  0  0
   25.7897    9.1887   57.4106 C   0  0  0  0  0  0  0  0  0  0  0  0
   28.8256   10.2096   59.3239 C   0  0  0  0  0  0  0  0  0  0  0  0
   29.0413   11.4282   59.8538 C   0  0  0  0  0  0  0  0  0  0  0  0
   29.9353   11.3213   60.8398 O   0  0  0  0  0  0  0  0  0  0  0  0
   30.3243   10.0819   60.9907 C   0  0  0  0  0  0  0  0  0  0  0  0
   31.2103    9.4709   61.8503 C   0  0  0  0  0  0  0  0  0  0  0  0
   31.4415    8.1129   61.7957 C   0  0  0  0  0  0  0  0  0  0  0  0
   30.7523    7.3863   60.8481 C   0  0  0  0  0  0  0  0  0  0  0  0
   29.8548    7.9939   59.9739 C   0  0  0  0  0  0  0  0  0  0  0  0
   29.6527    9.3313   60.0559 C   0  0  0  0  0  0  0  0  0  0  0  0
   28.4543   12.7394   59.5069 C   0  0  0  0  0  0  0  0  0  0  0  0
   29.1669   13.8380   60.1864 C   0  0  0  0  0  0  0  0  0  0  0  0
   30.5034   13.8968   60.4317 C   0  0  0  0  0  0  0  0  0  0  0  0
   31.0869   14.9922   61.0884 C   0  0  0  0  0  0  0  0  0  0  0  0
   30.3199   16.0503   61.5095 C   0  0  0  0  0  0  0  0  0  0  0  0
   28.9643   16.0117   61.2714 C   0  0  0  0  0  0  0  0  0  0  0  0
   28.4017   14.9287   60.6234 C   0  0  0  0  0  0  0  0  0  0  0  0
   23.5547    7.7638   53.0404 C   0  0  0  0  0  0  0  0  0  0  0  0
   23.4472    9.0225   53.6469 C   0  0  0  0  0  0  0  0  0  0  0  0
   22.0728   10.1914   53.0483 Br  0  0  0  0  0  0  0  0  0  0  0  0
   24.3197    9.4155   54.6426 C   0  0  0  0  0  0  0  0  0  0  0  0
   25.3334    8.6008   55.0882 C   0  0  0  0  0  0  0  0  0  0  0  0
   25.4504    7.3526   54.4957 C   0  0  0  0  0  0  0  0  0  0  0  0
   24.5608    6.9572   53.4874 C   0  0  0  0  0  0  0  0  0  0  0  0
   24.7942    5.1571   52.8359 Br  0  0  0  0  0  0  0  0  0  0  0  0
   22.6885    7.3655   52.0573 O   0  0  0  0  0  0  0  0  0  0  0  0
   21.3918    6.8117   52.2317 C   0  0  0  0  0  0  0  0  0  0  0  0
   19.8757    8.3386   51.1093 O   0  0  0  0  0  0  0  0  0  0  0  0
   20.4536    7.9536   52.1637 C   0  0  0  0  0  0  0  0  0  0  0  0
   20.1433    8.6892   53.3013 O   0  0  0  0  0  0  0  0  0  0  0  0
   20.7419    9.2949   53.7993 H   0  0  0  0  0  0  0  0  0  0  0  0
   21.2400    6.0864   53.5585 C   0  0  0  0  0  0  0  0  0  0  0  0
   20.2708    4.9752   53.5303 C   0  0  0  0  0  0  0  0  0  0  0  0
   18.9954    5.1720   54.0937 C   0  0  0  0  0  0  0  0  0  0  0  0
   18.0775    4.1415   54.0370 C   0  0  0  0  0  0  0  0  0  0  0  0
   18.3728    2.9251   53.4453 C   0  0  0  0  0  0  0  0  0  0  0  0
   19.6381    2.7795   52.9059 C   0  0  0  0  0  0  0  0  0  0  0  0
   20.5797    3.7781   52.9404 C   0  0  0  0  0  0  0  0  0  0  0  0
 33 34  2  0  0  0
 34 35  1  0  0  0
 34 32  1  0  0  0
 32 37  1  0  0  0
 37 38  1  0  0  0
 38 39  2  0  0  0
 39 40  1  0  0  0
 40 41  2  0  0  0
 41 42  1  0  0  0
 42 43  2  0  0  0
 32 31  1  0  0  0
 31 23  1  0  0  0
 23 24  2  0  0  0
 24 25  1  0  0  0
 24 26  1  0  0  0
 26 27  2  0  0  0
 27  1  1  0  0  0
  1  2  2  0  0  0
  2  3  1  0  0  0
  3  4  2  0  0  0
  4  7  1  0  0  0
  7  8  2  0  0  0
  8 16  1  0  0  0
 16 17  1  0  0  0
 17 18  2  0  0  0
 18 19  1  0  0  0
 19 20  2  0  0  0
 20 21  1  0  0  0
 21 22  2  0  0  0
  8  9  1  0  0  0
  9 10  1  0  0  0
 10 11  2  0  0  0
 11 12  1  0  0  0
 12 13  2  0  0  0
 13 14  1  0  0  0
 14 15  2  0  0  0
  4  5  1  0  0  0
  5  6  2  0  0  0
 27 28  1  0  0  0
 28 29  2  0  0  0
 29 30  1  0  0  0
 43 38  1  0  0  0
 29 23  1  0  0  0
  6  1  1  0  0  0
 15  7  1  0  0  0
 22 17  1  0  0  0
 15 10  1  0  0  0
 35 36  1  0  0  0
M  END
> <minimizedAffinity>
24.88730

> <CNNscore>
0.5582976341

> <CNNaffinity>
6.5696511269

> <CNN_VS>
3.6678206921

> <CNNaffinity_variance>
0.1032815948

$$$$
[H]OC(=O)[C@@]([H])(Oc1c(Br)c([H])c(-c2c([H])c([H])c(-c3c(C([H])([H])c4c([H])c([H])c([H])c([H])c4[H])oc4c([H])c([H])c([H])c([H])c34)c([H])c2[H])c([H])c1Br)C([H])([H])c1c([H])c([H])c([H])c([H])c1[H]


 43 48  0  0  0  0  0  0  0  0999 V2000
   26.3797    8.9328   56.0425 C   0  0  0  0  0  0  0  0  0  0  0  0
   27.7368    9.0884   55.8372 C   0  0  0  0  0  0  0  0  0  0  0  0
   28.5112    9.5055   56.8886 C   0  0  0  0  0  0  0  0  0  0  0  0
   28.0401    9.7852   58.1489 C   0  0  0  0  0  0  0  0  0  0  0  0
   26.6566    9.6134   58.3157 C   0  0  0  0  0  0  0  0  0  0  0  0
   25.8606    9.1998   57.2874 C   0  0  0  0  0  0  0  0  0  0  0  0
   28.8477   10.2559   59.2577 C   0  0  0  0  0  0  0  0  0  0  0  0
   29.0332   11.4903   59.7618 C   0  0  0  0  0  0  0  0  0  0  0  0
   29.9070   11.4215   60.7691 O   0  0  0  0  0  0  0  0  0  0  0  0
   30.3113   10.1925   60.9590 C   0  0  0  0  0  0  0  0  0  0  0  0
   31.1873    9.6165   61.8524 C   0  0  0  0  0  0  0  0  0  0  0  0
   31.4401    8.2614   61.8364 C   0  0  0  0  0  0  0  0  0  0  0  0
   30.7829    7.5012   60.8925 C   0  0  0  0  0  0  0  0  0  0  0  0
   29.8957    8.0732   59.9844 C   0  0  0  0  0  0  0  0  0  0  0  0
   29.6717    9.4088   60.0289 C   0  0  0  0  0  0  0  0  0  0  0  0
   28.4343   12.7833   59.3699 C   0  0  0  0  0  0  0  0  0  0  0  0
   29.0471   13.9007   60.1132 C   0  0  0  0  0  0  0  0  0  0  0  0
   30.3728   14.0614   60.3712 C   0  0  0  0  0  0  0  0  0  0  0  0
   30.8573   15.1656   61.0905 C   0  0  0  0  0  0  0  0  0  0  0  0
   30.0003   16.1288   61.5626 C   0  0  0  0  0  0  0  0  0  0  0  0
   28.6537   15.9862   61.3128 C   0  0  0  0  0  0  0  0  0  0  0  0
   28.1890   14.8956   60.6029 C   0  0  0  0  0  0  0  0  0  0  0  0
   23.6829    7.7221   52.9244 C   0  0  0  0  0  0  0  0  0  0  0  0
   24.6026    6.8252   53.4844 C   0  0  0  0  0  0  0  0  0  0  0  0
   24.6155    5.0364   52.8410 Br  0  0  0  0  0  0  0  0  0  0  0  0
   25.4691    7.2183   54.4852 C   0  0  0  0  0  0  0  0  0  0  0  0
   25.4757    8.4996   54.9834 C   0  0  0  0  0  0  0  0  0  0  0  0
   24.5701    9.3967   54.4375 C   0  0  0  0  0  0  0  0  0  0  0  0
   23.6944    8.9936   53.4201 C   0  0  0  0  0  0  0  0  0  0  0  0
   22.5672   10.3824   52.6990 Br  0  0  0  0  0  0  0  0  0  0  0  0
   22.8256    7.3403   51.9270 O   0  0  0  0  0  0  0  0  0  0  0  0
   21.5274    6.7837   52.0806 C   0  0  0  0  0  0  0  0  0  0  0  0
   20.9480    8.8465   50.9407 O   0  0  0  0  0  0  0  0  0  0  0  0
   20.5913    7.7856   51.5250 C   0  0  0  0  0  0  0  0  0  0  0  0
   19.2165    7.6035   51.6162 O   0  0  0  0  0  0  0  0  0  0  0  0
   18.6652    7.6377   52.4336 H   0  0  0  0  0  0  0  0  0  0  0  0
   21.1842    6.4935   53.5323 C   0  0  0  0  0  0  0  0  0  0  0  0
   21.2444    7.6746   54.4133 C   0  0  0  0  0  0  0  0  0  0  0  0
   22.0000    7.5994   55.5992 C   0  0  0  0  0  0  0  0  0  0  0  0
   22.0824    8.7169   56.4068 C   0  0  0  0  0  0  0  0  0  0  0  0
   21.4465    9.9043   56.0866 C   0  0  0  0  0  0  0  0  0  0  0  0
   20.7165    9.9293   54.9121 C   0  0  0  0  0  0  0  0  0  0  0  0
   20.6092    8.8417   54.0810 C   0  0  0  0  0  0  0  0  0  0  0  0
 33 34  2  0  0  0
 34 35  1  0  0  0
 34 32  1  0  0  0
 32 37  1  0  0  0
 37 38  1  0  0  0
 38 39  2  0  0  0
 39 40  1  0  0  0
 40 41  2  0  0  0
 41 42  1  0  0  0
 42 43  2  0  0  0
 32 31  1  0  0  0
 31 23  1  0  0  0
 23 24  2  0  0  0
 24 25  1  0  0  0
 24 26  1  0  0  0
 26 27  2  0  0  0
 27  1  1  0  0  0
  1  2  2  0  0  0
  2  3  1  0  0  0
  3  4  2  0  0  0
  4  7  1  0  0  0
  7  8  2  0  0  0
  8 16  1  0  0  0
 16 17  1  0  0  0
 17 18  2  0  0  0
 18 19  1  0  0  0
 19 20  2  0  0  0
 20 21  1  0  0  0
 21 22  2  0  0  0
  8  9  1  0  0  0
  9 10  1  0  0  0
 10 11  2  0  0  0
 11 12  1  0  0  0
 12 13  2  0  0  0
 13 14  1  0  0  0
 14 15  2  0  0  0
  4  5  1  0  0  0
  5  6  2  0  0  0
 27 28  1  0  0  0
 28 29  2  0  0  0
 29 30  1  0  0  0
 43 38  1  0  0  0
 29 23  1  0  0  0
  6  1  1  0  0  0
 15  7  1  0  0  0
 22 17  1  0  0  0
 15 10  1  0  0  0
 35 36  1  0  0  0
M  END
> <minimizedAffinity>
18.77430

> <CNNscore>
0.5357968807

> <CNNaffinity>
6.9367218018

> <CNN_VS>
3.7166738510

> <CNNaffinity_variance>
0.6754735112

$$$$
[H]OC(=O)[C@@]([H])(Oc1c(Br)c([H])c(-c2c([H])c([H])c(-c3c(C([H])([H])c4c([H])c([H])c([H])c([H])c4[H])oc4c([H])c([H])c([H])c([H])c34)c([H])c2[H])c([H])c1Br)C([H])([H])c1c([H])c([H])c([H])c([H])c1[H]


 43 48  0  0  0  0  0  0  0  0999 V2000
   26.3631    8.9766   56.1043 C   0  0  0  0  0  0  0  0  0  0  0  0
   27.7062    9.1971   55.8684 C   0  0  0  0  0  0  0  0  0  0  0  0
   28.4991    9.5744   56.9210 C   0  0  0  0  0  0  0  0  0  0  0  0
   28.0600    9.7536   58.2107 C   0  0  0  0  0  0  0  0  0  0  0  0
   26.6899    9.5185   58.4079 C   0  0  0  0  0  0  0  0  0  0  0  0
   25.8759    9.1422   57.3794 C   0  0  0  0  0  0  0  0  0  0  0  0
   28.8861   10.1819   59.3231 C   0  0  0  0  0  0  0  0  0  0  0  0
   29.1070   11.4013   59.8490 C   0  0  0  0  0  0  0  0  0  0  0  0
   29.9845   11.2907   60.8494 O   0  0  0  0  0  0  0  0  0  0  0  0
   30.3572   10.0480   61.0138 C   0  0  0  0  0  0  0  0  0  0  0  0
   31.2229    9.4325   61.8908 C   0  0  0  0  0  0  0  0  0  0  0  0
   31.4397    8.0718   61.8480 C   0  0  0  0  0  0  0  0  0  0  0  0
   30.7573    7.3470   60.8941 C   0  0  0  0  0  0  0  0  0  0  0  0
   29.8802    7.9591   60.0024 C   0  0  0  0  0  0  0  0  0  0  0  0
   29.6919    9.2991   60.0732 C   0  0  0  0  0  0  0  0  0  0  0  0
   28.5402   12.7168   59.4850 C   0  0  0  0  0  0  0  0  0  0  0  0
   29.3022   13.8155   60.1084 C   0  0  0  0  0  0  0  0  0  0  0  0
   30.4520   13.6894   60.8240 C   0  0  0  0  0  0  0  0  0  0  0  0
   31.1034   14.8028   61.3785 C   0  0  0  0  0  0  0  0  0  0  0  0
   30.5960   16.0682   61.2155 C   0  0  0  0  0  0  0  0  0  0  0  0
   29.4327   16.2191   60.4944 C   0  0  0  0  0  0  0  0  0  0  0  0
   28.8012   15.1158   59.9528 C   0  0  0  0  0  0  0  0  0  0  0  0
   23.6746    7.7362   52.9907 C   0  0  0  0  0  0  0  0  0  0  0  0
   23.7439    9.0724   53.4071 C   0  0  0  0  0  0  0  0  0  0  0  0
   22.6247   10.3407   52.5395 Br  0  0  0  0  0  0  0  0  0  0  0  0
   24.6079    9.4672   54.4094 C   0  0  0  0  0  0  0  0  0  0  0  0
   25.4410    8.5787   55.0469 C   0  0  0  0  0  0  0  0  0  0  0  0
   25.3821    7.2532   54.6436 C   0  0  0  0  0  0  0  0  0  0  0  0
   24.5016    6.8570   53.6276 C   0  0  0  0  0  0  0  0  0  0  0  0
   24.4678    4.9657   53.2518 Br  0  0  0  0  0  0  0  0  0  0  0  0
   22.8151    7.3371   52.0020 O   0  0  0  0  0  0  0  0  0  0  0  0
   21.5329    6.7483   52.1687 C   0  0  0  0  0  0  0  0  0  0  0  0
   20.9070    8.7335   50.9207 O   0  0  0  0  0  0  0  0  0  0  0  0
   20.5753    7.6833   51.5381 C   0  0  0  0  0  0  0  0  0  0  0  0
   19.2072    7.4443   51.5901 O   0  0  0  0  0  0  0  0  0  0  0  0
   18.6258    7.4884   52.3859 H   0  0  0  0  0  0  0  0  0  0  0  0
   21.1733    6.5353   53.6298 C   0  0  0  0  0  0  0  0  0  0  0  0
   21.2414    7.7581   54.4514 C   0  0  0  0  0  0  0  0  0  0  0  0
   21.9455    7.7188   55.6702 C   0  0  0  0  0  0  0  0  0  0  0  0
   22.0365    8.8735   56.4227 C   0  0  0  0  0  0  0  0  0  0  0  0
   21.4580   10.0639   56.0162 C   0  0  0  0  0  0  0  0  0  0  0  0
   20.7772   10.0527   54.8123 C   0  0  0  0  0  0  0  0  0  0  0  0
   20.6634    8.9275   54.0338 C   0  0  0  0  0  0  0  0  0  0  0  0
 33 34  2  0  0  0
 34 35  1  0  0  0
 34 32  1  0  0  0
 32 37  1  0  0  0
 37 38  1  0  0  0
 38 39  2  0  0  0
 39 40  1  0  0  0
 40 41  2  0  0  0
 41 42  1  0  0  0
 42 43  2  0  0  0
 32 31  1  0  0  0
 31 23  1  0  0  0
 23 24  2  0  0  0
 24 25  1  0  0  0
 24 26  1  0  0  0
 26 27  2  0  0  0
 27  1  1  0  0  0
  1  2  2  0  0  0
  2  3  1  0  0  0
  3  4  2  0  0  0
  4  7  1  0  0  0
  7  8  2  0  0  0
  8 16  1  0  0  0
 16 17  1  0  0  0
 17 18  2  0  0  0
 18 19  1  0  0  0
 19 20  2  0  0  0
 20 21  1  0  0  0
 21 22  2  0  0  0
  8  9  1  0  0  0
  9 10  1  0  0  0
 10 11  2  0  0  0
 11 12  1  0  0  0
 12 13  2  0  0  0
 13 14  1  0  0  0
 14 15  2  0  0  0
  4  5  1  0  0  0
  5  6  2  0  0  0
 27 28  1  0  0  0
 28 29  2  0  0  0
 29 30  1  0  0  0
 43 38  1  0  0  0
 29 23  1  0  0  0
  6  1  1  0  0  0
 15  7  1  0  0  0
 22 17  1  0  0  0
 15 10  1  0  0  0
 35 36  1  0  0  0
M  END
> <minimizedAffinity>
19.16755

> <CNNscore>
0.5304015279

> <CNNaffinity>
6.9294905663

> <CNN_VS>
3.6754124165

> <CNNaffinity_variance>
0.5894964337

$$$$
[H]OC(=O)[C@@]([H])(Oc1c(Br)c([H])c(-c2c([H])c([H])c(-c3c(C([H])([H])c4c([H])c([H])c([H])c([H])c4[H])oc4c([H])c([H])c([H])c([H])c34)c([H])c2[H])c([H])c1Br)C([H])([H])c1c([H])c([H])c([H])c([H])c1[H]


 43 48  0  0  0  0  0  0  0  0999 V2000
   26.9659   10.0215   57.1011 C   0  0  0  0  0  0  0  0  0  0  0  0
   27.8468    9.2442   57.8276 C   0  0  0  0  0  0  0  0  0  0  0  0
   28.6719    9.8645   58.7295 C   0  0  0  0  0  0  0  0  0  0  0  0
   28.6940   11.2168   58.9733 C   0  0  0  0  0  0  0  0  0  0  0  0
   27.7833   11.9701   58.2156 C   0  0  0  0  0  0  0  0  0  0  0  0
   26.9498   11.3804   57.3102 C   0  0  0  0  0  0  0  0  0  0  0  0
   29.5846   11.8839   59.9033 C   0  0  0  0  0  0  0  0  0  0  0  0
   30.7103   11.4661   60.5120 C   0  0  0  0  0  0  0  0  0  0  0  0
   31.1557   12.4355   61.3150 O   0  0  0  0  0  0  0  0  0  0  0  0
   30.3748   13.4833   61.2665 C   0  0  0  0  0  0  0  0  0  0  0  0
   30.4037   14.7094   61.8936 C   0  0  0  0  0  0  0  0  0  0  0  0
   29.4323   15.6586   61.6575 C   0  0  0  0  0  0  0  0  0  0  0  0
   28.4286   15.3366   60.7688 C   0  0  0  0  0  0  0  0  0  0  0  0
   28.3896   14.1001   60.1296 C   0  0  0  0  0  0  0  0  0  0  0  0
   29.3610   13.1909   60.3862 C   0  0  0  0  0  0  0  0  0  0  0  0
   31.4399   10.1858   60.3988 C   0  0  0  0  0  0  0  0  0  0  0  0
   30.6365    9.0669   60.9268 C   0  0  0  0  0  0  0  0  0  0  0  0
   31.1187    7.8893   61.4070 C   0  0  0  0  0  0  0  0  0  0  0  0
   30.2664    6.8832   61.8895 C   0  0  0  0  0  0  0  0  0  0  0  0
   28.9044    7.0563   61.8920 C   0  0  0  0  0  0  0  0  0  0  0  0
   28.3943    8.2411   61.4103 C   0  0  0  0  0  0  0  0  0  0  0  0
   29.2432    9.2242   60.9390 C   0  0  0  0  0  0  0  0  0  0  0  0
   24.2232    8.3641   54.2389 C   0  0  0  0  0  0  0  0  0  0  0  0
   25.6096    8.2277   54.0867 C   0  0  0  0  0  0  0  0  0  0  0  0
   26.2553    7.2644   52.5803 Br  0  0  0  0  0  0  0  0  0  0  0  0
   26.4882    8.7632   55.0077 C   0  0  0  0  0  0  0  0  0  0  0  0
   26.0544    9.4523   56.1153 C   0  0  0  0  0  0  0  0  0  0  0  0
   24.6845    9.5940   56.2774 C   0  0  0  0  0  0  0  0  0  0  0  0
   23.7968    9.0509   55.3386 C   0  0  0  0  0  0  0  0  0  0  0  0
   21.9302    9.4192   55.6538 Br  0  0  0  0  0  0  0  0  0  0  0  0
   23.3468    7.8412   53.3257 O   0  0  0  0  0  0  0  0  0  0  0  0
   21.9729    7.5432   53.5311 C   0  0  0  0  0  0  0  0  0  0  0  0
   20.7792    5.4468   53.2654 O   0  0  0  0  0  0  0  0  0  0  0  0
   21.8626    6.0705   53.4426 C   0  0  0  0  0  0  0  0  0  0  0  0
   22.9895    5.2642   53.5497 O   0  0  0  0  0  0  0  0  0  0  0  0
   23.5353    5.1094   54.3568 H   0  0  0  0  0  0  0  0  0  0  0  0
   21.0719    8.1998   52.4984 C   0  0  0  0  0  0  0  0  0  0  0  0
   21.2803    9.6525   52.3537 C   0  0  0  0  0  0  0  0  0  0  0  0
   21.3001   10.2102   51.0608 C   0  0  0  0  0  0  0  0  0  0  0  0
   21.4622   11.5755   50.9283 C   0  0  0  0  0  0  0  0  0  0  0  0
   21.6058   12.4090   52.0245 C   0  0  0  0  0  0  0  0  0  0  0  0
   21.5798   11.8149   53.2733 C   0  0  0  0  0  0  0  0  0  0  0  0
   21.4204   10.4626   53.4493 C   0  0  0  0  0  0  0  0  0  0  0  0
 33 34  2  0  0  0
 34 35  1  0  0  0
 34 32  1  0  0  0
 32 37  1  0  0  0
 37 38  1  0  0  0
 38 39  2  0  0  0
 39 40  1  0  0  0
 40 41  2  0  0  0
 41 42  1  0  0  0
 42 43  2  0  0  0
 32 31  1  0  0  0
 31 23  1  0  0  0
 23 24  2  0  0  0
 24 25  1  0  0  0
 24 26  1  0  0  0
 26 27  2  0  0  0
 27  1  1  0  0  0
  1  2  2  0  0  0
  2  3  1  0  0  0
  3  4  2  0  0  0
  4  7  1  0  0  0
  7  8  2  0  0  0
  8 16  1  0  0  0
 16 17  1  0  0  0
 17 18  2  0  0  0
 18 19  1  0  0  0
 19 20  2  0  0  0
 20 21  1  0  0  0
 21 22  2  0  0  0
  8  9  1  0  0  0
  9 10  1  0  0  0
 10 11  2  0  0  0
 11 12  1  0  0  0
 12 13  2  0  0  0
 13 14  1  0  0  0
 14 15  2  0  0  0
  4  5  1  0  0  0
  5  6  2  0  0  0
 27 28  1  0  0  0
 28 29  2  0  0  0
 29 30  1  0  0  0
 43 38  1  0  0  0
 29 23  1  0  0  0
  6  1  1  0  0  0
 15  7  1  0  0  0
 22 17  1  0  0  0
 15 10  1  0  0  0
 35 36  1  0  0  0
M  END
> <minimizedAffinity>
18.63473

> <CNNscore>
0.4982859194

> <CNNaffinity>
6.7448563576

> <CNN_VS>
3.3608670235

> <CNNaffinity_variance>
0.2475711405

$$$$
[H]OC(=O)[C@@]([H])(Oc1c(Br)c([H])c(-c2c([H])c([H])c(-c3c(C([H])([H])c4c([H])c([H])c([H])c([H])c4[H])oc4c([H])c([H])c([H])c([H])c34)c([H])c2[H])c([H])c1Br)C([H])([H])c1c([H])c([H])c([H])c([H])c1[H]


 43 48  0  0  0  0  0  0  0  0999 V2000
   27.0108   10.1274   57.0462 C   0  0  0  0  0  0  0  0  0  0  0  0
   27.1491   11.5018   57.0512 C   0  0  0  0  0  0  0  0  0  0  0  0
   28.0254   12.0651   57.9421 C   0  0  0  0  0  0  0  0  0  0  0  0
   28.7888   11.3632   58.8438 C   0  0  0  0  0  0  0  0  0  0  0  0
   28.6194    9.9700   58.8054 C   0  0  0  0  0  0  0  0  0  0  0  0
   27.7543    9.3810   57.9298 C   0  0  0  0  0  0  0  0  0  0  0  0
   29.6951   11.9536   59.8099 C   0  0  0  0  0  0  0  0  0  0  0  0
   30.7818   11.4562   60.4296 C   0  0  0  0  0  0  0  0  0  0  0  0
   31.2635   12.3771   61.2680 O   0  0  0  0  0  0  0  0  0  0  0  0
   30.5444   13.4687   61.2326 C   0  0  0  0  0  0  0  0  0  0  0  0
   30.6288   14.6740   61.8939 C   0  0  0  0  0  0  0  0  0  0  0  0
   29.7180   15.6831   61.6645 C   0  0  0  0  0  0  0  0  0  0  0  0
   28.7174   15.4426   60.7469 C   0  0  0  0  0  0  0  0  0  0  0  0
   28.6225   14.2277   60.0731 C   0  0  0  0  0  0  0  0  0  0  0  0
   29.5352   13.2580   60.3241 C   0  0  0  0  0  0  0  0  0  0  0  0
   31.4402   10.1399   60.2959 C   0  0  0  0  0  0  0  0  0  0  0  0
   30.5835    9.0604   60.8225 C   0  0  0  0  0  0  0  0  0  0  0  0
   30.8829    7.7337   60.8378 C   0  0  0  0  0  0  0  0  0  0  0  0
   29.9952    6.7817   61.3643 C   0  0  0  0  0  0  0  0  0  0  0  0
   28.7834    7.1621   61.8856 C   0  0  0  0  0  0  0  0  0  0  0  0
   28.4597    8.5005   61.8803 C   0  0  0  0  0  0  0  0  0  0  0  0
   29.3419    9.4281   61.3603 C   0  0  0  0  0  0  0  0  0  0  0  0
   24.3829    8.0821   54.3311 C   0  0  0  0  0  0  0  0  0  0  0  0
   23.8869    8.7933   55.4320 C   0  0  0  0  0  0  0  0  0  0  0  0
   22.0040    8.8507   55.6874 Br  0  0  0  0  0  0  0  0  0  0  0  0
   24.7347    9.4480   56.3036 C   0  0  0  0  0  0  0  0  0  0  0  0
   26.0995    9.4390   56.1394 C   0  0  0  0  0  0  0  0  0  0  0  0
   26.6027    8.7387   55.0534 C   0  0  0  0  0  0  0  0  0  0  0  0
   25.7385    8.0736   54.1730 C   0  0  0  0  0  0  0  0  0  0  0  0
   26.5984    7.0646   52.7724 Br  0  0  0  0  0  0  0  0  0  0  0  0
   23.5480    7.4251   53.4669 O   0  0  0  0  0  0  0  0  0  0  0  0
   22.1309    7.5131   53.4124 C   0  0  0  0  0  0  0  0  0  0  0  0
   22.3645    5.1159   53.7106 O   0  0  0  0  0  0  0  0  0  0  0  0
   21.6385    6.1190   53.4638 C   0  0  0  0  0  0  0  0  0  0  0  0
   20.2983    5.8283   53.2387 O   0  0  0  0  0  0  0  0  0  0  0  0
   19.8095    5.9004   52.3848 H   0  0  0  0  0  0  0  0  0  0  0  0
   21.6363    8.1980   52.1491 C   0  0  0  0  0  0  0  0  0  0  0  0
   21.5471    9.6662   52.2553 C   0  0  0  0  0  0  0  0  0  0  0  0
   21.6012   10.2593   53.5313 C   0  0  0  0  0  0  0  0  0  0  0  0
   21.5508   11.6363   53.6268 C   0  0  0  0  0  0  0  0  0  0  0  0
   21.4487   12.4479   52.5097 C   0  0  0  0  0  0  0  0  0  0  0  0
   21.3989   11.8192   51.2787 C   0  0  0  0  0  0  0  0  0  0  0  0
   21.4466   10.4541   51.1394 C   0  0  0  0  0  0  0  0  0  0  0  0
 33 34  2  0  0  0
 34 35  1  0  0  0
 34 32  1  0  0  0
 32 37  1  0  0  0
 37 38  1  0  0  0
 38 39  2  0  0  0
 39 40  1  0  0  0
 40 41  2  0  0  0
 41 42  1  0  0  0
 42 43  2  0  0  0
 32 31  1  0  0  0
 31 23  1  0  0  0
 23 24  2  0  0  0
 24 25  1  0  0  0
 24 26  1  0  0  0
 26 27  2  0  0  0
 27  1  1  0  0  0
  1  2  2  0  0  0
  2  3  1  0  0  0
  3  4  2  0  0  0
  4  7  1  0  0  0
  7  8  2  0  0  0
  8 16  1  0  0  0
 16 17  1  0  0  0
 17 18  2  0  0  0
 18 19  1  0  0  0
 19 20  2  0  0  0
 20 21  1  0  0  0
 21 22  2  0  0  0
  8  9  1  0  0  0
  9 10  1  0  0  0
 10 11  2  0  0  0
 11 12  1  0  0  0
 12 13  2  0  0  0
 13 14  1  0  0  0
 14 15  2  0  0  0
  4  5  1  0  0  0
  5  6  2  0  0  0
 27 28  1  0  0  0
 28 29  2  0  0  0
 29 30  1  0  0  0
 43 38  1  0  0  0
 29 23  1  0  0  0
  6  1  1  0  0  0
 15  7  1  0  0  0
 22 17  1  0  0  0
 15 10  1  0  0  0
 35 36  1  0  0  0
M  END
> <minimizedAffinity>
18.83545

> <CNNscore>
0.4833101928

> <CNNaffinity>
6.7377061844

> <CNN_VS>
3.2564020157

> <CNNaffinity_variance>
0.1835091412

$$$$
[H]OC(=O)[C@@]([H])(Oc1c(Br)c([H])c(-c2c([H])c([H])c(-c3c(C([H])([H])c4c([H])c([H])c([H])c([H])c4[H])oc4c([H])c([H])c([H])c([H])c34)c([H])c2[H])c([H])c1Br)C([H])([H])c1c([H])c([H])c([H])c([H])c1[H]


 43 48  0  0  0  0  0  0  0  0999 V2000
   27.6243   10.3113   57.4564 C   0  0  0  0  0  0  0  0  0  0  0  0
   28.4296    9.6695   58.3770 C   0  0  0  0  0  0  0  0  0  0  0  0
   29.1068   10.4315   59.2935 C   0  0  0  0  0  0  0  0  0  0  0  0
   29.0485   11.8022   59.3719 C   0  0  0  0  0  0  0  0  0  0  0  0
   28.2186   12.4152   58.4197 C   0  0  0  0  0  0  0  0  0  0  0  0
   27.5325   11.6827   57.4951 C   0  0  0  0  0  0  0  0  0  0  0  0
   29.7852   12.6173   60.3186 C   0  0  0  0  0  0  0  0  0  0  0  0
   30.7612   12.3040   61.1913 C   0  0  0  0  0  0  0  0  0  0  0  0
   31.0976   13.3984   61.8783 O   0  0  0  0  0  0  0  0  0  0  0  0
   30.3878   14.4292   61.4994 C   0  0  0  0  0  0  0  0  0  0  0  0
   30.3589   15.7489   61.8931 C   0  0  0  0  0  0  0  0  0  0  0  0
   29.4913   16.6508   61.3149 C   0  0  0  0  0  0  0  0  0  0  0  0
   28.6520   16.1841   60.3257 C   0  0  0  0  0  0  0  0  0  0  0  0
   28.6726   14.8520   59.9203 C   0  0  0  0  0  0  0  0  0  0  0  0
   29.5383   13.9932   60.5113 C   0  0  0  0  0  0  0  0  0  0  0  0
   31.4394   11.0157   61.4457 C   0  0  0  0  0  0  0  0  0  0  0  0
   30.4631    9.9183   61.5825 C   0  0  0  0  0  0  0  0  0  0  0  0
   29.1111   10.0508   61.6501 C   0  0  0  0  0  0  0  0  0  0  0  0
   28.2648    8.9380   61.7802 C   0  0  0  0  0  0  0  0  0  0  0  0
   28.7792    7.6666   61.8450 C   0  0  0  0  0  0  0  0  0  0  0  0
   30.1455    7.5091   61.7785 C   0  0  0  0  0  0  0  0  0  0  0  0
   30.9680    8.6119   61.6494 C   0  0  0  0  0  0  0  0  0  0  0  0
   25.3411    8.1979   54.4931 C   0  0  0  0  0  0  0  0  0  0  0  0
   26.7357    8.0795   54.5628 C   0  0  0  0  0  0  0  0  0  0  0  0
   27.6012    6.9342   53.3166 Br  0  0  0  0  0  0  0  0  0  0  0  0
   27.4665    8.7617   55.5154 C   0  0  0  0  0  0  0  0  0  0  0  0
   26.8707    9.5860   56.4403 C   0  0  0  0  0  0  0  0  0  0  0  0
   25.4909    9.7113   56.3820 C   0  0  0  0  0  0  0  0  0  0  0  0
   24.7538    9.0189   55.4116 C   0  0  0  0  0  0  0  0  0  0  0  0
   22.8586    9.3764   55.3996 Br  0  0  0  0  0  0  0  0  0  0  0  0
   24.6112    7.5293   53.5466 O   0  0  0  0  0  0  0  0  0  0  0  0
   23.4696    6.7123   53.7654 C   0  0  0  0  0  0  0  0  0  0  0  0
   23.8494    5.2750   55.6837 O   0  0  0  0  0  0  0  0  0  0  0  0
   23.9684    5.4975   54.4466 C   0  0  0  0  0  0  0  0  0  0  0  0
   24.6157    4.4957   53.7331 O   0  0  0  0  0  0  0  0  0  0  0  0
   25.5066    4.5463   53.3122 H   0  0  0  0  0  0  0  0  0  0  0  0
   22.7637    6.3367   52.4731 C   0  0  0  0  0  0  0  0  0  0  0  0
   21.5281    7.1002   52.2176 C   0  0  0  0  0  0  0  0  0  0  0  0
   21.5833    8.2132   51.3568 C   0  0  0  0  0  0  0  0  0  0  0  0
   20.4188    8.9073   51.0924 C   0  0  0  0  0  0  0  0  0  0  0  0
   19.2035    8.5432   51.6466 C   0  0  0  0  0  0  0  0  0  0  0  0
   19.1997    7.4435   52.4855 C   0  0  0  0  0  0  0  0  0  0  0  0
   20.3339    6.7257   52.7742 C   0  0  0  0  0  0  0  0  0  0  0  0
 33 34  2  0  0  0
 34 35  1  0  0  0
 34 32  1  0  0  0
 32 37  1  0  0  0
 37 38  1  0  0  0
 38 39  2  0  0  0
 39 40  1  0  0  0
 40 41  2  0  0  0
 41 42  1  0  0  0
 42 43  2  0  0  0
 32 31  1  0  0  0
 31 23  1  0  0  0
 23 24  2  0  0  0
 24 25  1  0  0  0
 24 26  1  0  0  0
 26 27  2  0  0  0
 27  1  1  0  0  0
  1  2  2  0  0  0
  2  3  1  0  0  0
  3  4  2  0  0  0
  4  7  1  0  0  0
  7  8  2  0  0  0
  8 16  1  0  0  0
 16 17  1  0  0  0
 17 18  2  0  0  0
 18 19  1  0  0  0
 19 20  2  0  0  0
 20 21  1  0  0  0
 21 22  2  0  0  0
  8  9  1  0  0  0
  9 10  1  0  0  0
 10 11  2  0  0  0
 11 12  1  0  0  0
 12 13  2  0  0  0
 13 14  1  0  0  0
 14 15  2  0  0  0
  4  5  1  0  0  0
  5  6  2  0  0  0
 27 28  1  0  0  0
 28 29  2  0  0  0
 29 30  1  0  0  0
 43 38  1  0  0  0
 29 23  1  0  0  0
  6  1  1  0  0  0
 15  7  1  0  0  0
 22 17  1  0  0  0
 15 10  1  0  0  0
 35 36  1  0  0  0
M  END
> <minimizedAffinity>
21.29168

> <CNNscore>
0.4613537788

> <CNNaffinity>
6.6587843895

> <CNN_VS>
3.0720553398

> <CNNaffinity_variance>
0.1751311272

$$$$
[H]OC(=O)[C@@]([H])(Oc1c(Br)c([H])c(-c2c([H])c([H])c(-c3c(C([H])([H])c4c([H])c([H])c([H])c([H])c4[H])oc4c([H])c([H])c([H])c([H])c34)c([H])c2[H])c([H])c1Br)C([H])([H])c1c([H])c([H])c([H])c([H])c1[H]


 43 48  0  0  0  0  0  0  0  0999 V2000
   26.5169    8.8822   56.0537 C   0  0  0  0  0  0  0  0  0  0  0  0
   27.8001    9.2850   55.7391 C   0  0  0  0  0  0  0  0  0  0  0  0
   28.6292    9.6745   56.7589 C   0  0  0  0  0  0  0  0  0  0  0  0
   28.2822    9.6970   58.0884 C   0  0  0  0  0  0  0  0  0  0  0  0
   26.9707    9.2794   58.3654 C   0  0  0  0  0  0  0  0  0  0  0  0
   26.1227    8.8865   57.3710 C   0  0  0  0  0  0  0  0  0  0  0  0
   29.1431   10.1364   59.1696 C   0  0  0  0  0  0  0  0  0  0  0  0
   30.1346    9.5078   59.8286 C   0  0  0  0  0  0  0  0  0  0  0  0
   30.6082   10.3191   60.7775 O   0  0  0  0  0  0  0  0  0  0  0  0
   29.9751   11.4633   60.7783 C   0  0  0  0  0  0  0  0  0  0  0  0
   30.0893   12.6025   61.5441 C   0  0  0  0  0  0  0  0  0  0  0  0
   29.2763   13.6950   61.3300 C   0  0  0  0  0  0  0  0  0  0  0  0
   28.3427   13.6068   60.3193 C   0  0  0  0  0  0  0  0  0  0  0  0
   28.2184   12.4600   59.5394 C   0  0  0  0  0  0  0  0  0  0  0  0
   29.0343   11.4048   59.7784 C   0  0  0  0  0  0  0  0  0  0  0  0
   30.7056    8.1584   59.6360 C   0  0  0  0  0  0  0  0  0  0  0  0
   29.8123    7.1195   60.1827 C   0  0  0  0  0  0  0  0  0  0  0  0
   29.7780    6.6881   61.4721 C   0  0  0  0  0  0  0  0  0  0  0  0
   28.8858    5.6894   61.8940 C   0  0  0  0  0  0  0  0  0  0  0  0
   28.0103    5.1089   61.0099 C   0  0  0  0  0  0  0  0  0  0  0  0
   28.0277    5.5305   59.6992 C   0  0  0  0  0  0  0  0  0  0  0  0
   28.9097    6.5149   59.2962 C   0  0  0  0  0  0  0  0  0  0  0  0
   23.7285    7.5595   53.0643 C   0  0  0  0  0  0  0  0  0  0  0  0
   23.8701    8.9170   53.3821 C   0  0  0  0  0  0  0  0  0  0  0  0
   22.8043   10.1749   52.4357 Br  0  0  0  0  0  0  0  0  0  0  0  0
   24.7660    9.3383   54.3448 C   0  0  0  0  0  0  0  0  0  0  0  0
   25.5620    8.4567   55.0369 C   0  0  0  0  0  0  0  0  0  0  0  0
   25.4315    7.1104   54.7313 C   0  0  0  0  0  0  0  0  0  0  0  0
   24.5189    6.6874   53.7553 C   0  0  0  0  0  0  0  0  0  0  0  0
   24.3854    4.7782   53.5180 Br  0  0  0  0  0  0  0  0  0  0  0  0
   22.8371    7.1345   52.1155 O   0  0  0  0  0  0  0  0  0  0  0  0
   21.5175    6.6554   52.3343 C   0  0  0  0  0  0  0  0  0  0  0  0
   19.3633    7.5556   51.6717 O   0  0  0  0  0  0  0  0  0  0  0  0
   20.6243    7.5966   51.6237 C   0  0  0  0  0  0  0  0  0  0  0  0
   21.1456    8.6181   50.8386 O   0  0  0  0  0  0  0  0  0  0  0  0
   21.6218    8.5239   49.9797 H   0  0  0  0  0  0  0  0  0  0  0  0
   21.1536    6.5987   53.8087 C   0  0  0  0  0  0  0  0  0  0  0  0
   21.2619    7.8935   54.5063 C   0  0  0  0  0  0  0  0  0  0  0  0
   21.9825    7.9556   55.7145 C   0  0  0  0  0  0  0  0  0  0  0  0
   22.1112    9.1754   56.3496 C   0  0  0  0  0  0  0  0  0  0  0  0
   21.5546   10.3345   55.8360 C   0  0  0  0  0  0  0  0  0  0  0  0
   20.8564   10.2230   54.6473 C   0  0  0  0  0  0  0  0  0  0  0  0
   20.7053    9.0306   53.9836 C   0  0  0  0  0  0  0  0  0  0  0  0
 33 34  2  0  0  0
 34 35  1  0  0  0
 34 32  1  0  0  0
 32 37  1  0  0  0
 37 38  1  0  0  0
 38 39  2  0  0  0
 39 40  1  0  0  0
 40 41  2  0  0  0
 41 42  1  0  0  0
 42 43  2  0  0  0
 32 31  1  0  0  0
 31 23  1  0  0  0
 23 24  2  0  0  0
 24 25  1  0  0  0
 24 26  1  0  0  0
 26 27  2  0  0  0
 27  1  1  0  0  0
  1  2  2  0  0  0
  2  3  1  0  0  0
  3  4  2  0  0  0
  4  7  1  0  0  0
  7  8  2  0  0  0
  8 16  1  0  0  0
 16 17  1  0  0  0
 17 18  2  0  0  0
 18 19  1  0  0  0
 19 20  2  0  0  0
 20 21  1  0  0  0
 21 22  2  0  0  0
  8  9  1  0  0  0
  9 10  1  0  0  0
 10 11  2  0  0  0
 11 12  1  0  0  0
 12 13  2  0  0  0
 13 14  1  0  0  0
 14 15  2  0  0  0
  4  5  1  0  0  0
  5  6  2  0  0  0
 27 28  1  0  0  0
 28 29  2  0  0  0
 29 30  1  0  0  0
 43 38  1  0  0  0
 29 23  1  0  0  0
  6  1  1  0  0  0
 15  7  1  0  0  0
 22 17  1  0  0  0
 15 10  1  0  0  0
 35 36  1  0  0  0
M  END
> <minimizedAffinity>
25.11483

> <CNNscore>
0.4571675062

> <CNNaffinity>
6.9375047684

> <CNN_VS>
3.1716017723

> <CNNaffinity_variance>
0.9036453962

$$$$
[H]OC(=O)[C@@]([H])(Oc1c(Br)c([H])c(-c2c([H])c([H])c(-c3c(C([H])([H])c4c([H])c([H])c([H])c([H])c4[H])oc4c([H])c([H])c([H])c([H])c34)c([H])c2[H])c([H])c1Br)C([H])([H])c1c([H])c([H])c([H])c([H])c1[H]


 43 48  0  0  0  0  0  0  0  0999 V2000
   25.8283    9.3186   56.0284 C   0  0  0  0  0  0  0  0  0  0  0  0
   26.1329    8.4819   54.9724 C   0  0  0  0  0  0  0  0  0  0  0  0
   25.1204    8.0989   54.1315 C   0  0  0  0  0  0  0  0  0  0  0  0
   23.8076    8.4857   54.2555 C   0  0  0  0  0  0  0  0  0  0  0  0
   23.5406    9.3362   55.3402 C   0  0  0  0  0  0  0  0  0  0  0  0
   24.5281    9.7340   56.1940 C   0  0  0  0  0  0  0  0  0  0  0  0
   22.7255    8.0607   53.3885 C   0  0  0  0  0  0  0  0  0  0  0  0
   22.1901    8.6278   52.2911 C   0  0  0  0  0  0  0  0  0  0  0  0
   21.1787    7.8701   51.8600 O   0  0  0  0  0  0  0  0  0  0  0  0
   21.0177    6.8204   52.6231 C   0  0  0  0  0  0  0  0  0  0  0  0
   20.1336    5.7645   52.5982 C   0  0  0  0  0  0  0  0  0  0  0  0
   20.1832    4.7652   53.5466 C   0  0  0  0  0  0  0  0  0  0  0  0
   21.1520    4.8603   54.5231 C   0  0  0  0  0  0  0  0  0  0  0  0
   22.0504    5.9235   54.5579 C   0  0  0  0  0  0  0  0  0  0  0  0
   21.9719    6.8883   53.6096 C   0  0  0  0  0  0  0  0  0  0  0  0
   22.5618    9.8671   51.5769 C   0  0  0  0  0  0  0  0  0  0  0  0
   21.8910   11.0419   52.1652 C   0  0  0  0  0  0  0  0  0  0  0  0
   21.3564   11.1192   53.4135 C   0  0  0  0  0  0  0  0  0  0  0  0
   20.7367   12.2891   53.8811 C   0  0  0  0  0  0  0  0  0  0  0  0
   20.6483   13.4047   53.0857 C   0  0  0  0  0  0  0  0  0  0  0  0
   21.1830   13.3487   51.8180 C   0  0  0  0  0  0  0  0  0  0  0  0
   21.7913   12.1920   51.3693 C   0  0  0  0  0  0  0  0  0  0  0  0
   28.8096   10.5909   58.8487 C   0  0  0  0  0  0  0  0  0  0  0  0
   28.0732   11.5158   58.0964 C   0  0  0  0  0  0  0  0  0  0  0  0
   28.4122   13.3662   58.3703 Br  0  0  0  0  0  0  0  0  0  0  0  0
   27.1171   11.1032   57.1895 C   0  0  0  0  0  0  0  0  0  0  0  0
   26.8369    9.7741   56.9781 C   0  0  0  0  0  0  0  0  0  0  0  0
   27.5588    8.8488   57.7168 C   0  0  0  0  0  0  0  0  0  0  0  0
   28.5301    9.2724   58.6341 C   0  0  0  0  0  0  0  0  0  0  0  0
   29.5145    7.8630   59.5081 Br  0  0  0  0  0  0  0  0  0  0  0  0
   29.7639   10.9933   59.7447 O   0  0  0  0  0  0  0  0  0  0  0  0
   29.7634   10.7800   61.1495 C   0  0  0  0  0  0  0  0  0  0  0  0
   27.7382   12.0055   61.6851 O   0  0  0  0  0  0  0  0  0  0  0  0
   28.3525   10.9079   61.5757 C   0  0  0  0  0  0  0  0  0  0  0  0
   27.5975    9.7831   61.8863 O   0  0  0  0  0  0  0  0  0  0  0  0
   27.7105    9.1876   62.6647 H   0  0  0  0  0  0  0  0  0  0  0  0
   30.6291   11.7835   61.8930 C   0  0  0  0  0  0  0  0  0  0  0  0
   30.3782   13.1883   61.5206 C   0  0  0  0  0  0  0  0  0  0  0  0
   31.4410   13.9539   61.0037 C   0  0  0  0  0  0  0  0  0  0  0  0
   31.1966   15.2594   60.6244 C   0  0  0  0  0  0  0  0  0  0  0  0
   29.9428   15.8357   60.7371 C   0  0  0  0  0  0  0  0  0  0  0  0
   28.9312   15.0441   61.2501 C   0  0  0  0  0  0  0  0  0  0  0  0
   29.1311   13.7425   61.6384 C   0  0  0  0  0  0  0  0  0  0  0  0
 33 34  2  0  0  0
 34 35  1  0  0  0
 34 32  1  0  0  0
 32 37  1  0  0  0
 37 38  1  0  0  0
 38 39  2  0  0  0
 39 40  1  0  0  0
 40 41  2  0  0  0
 41 42  1  0  0  0
 42 43  2  0  0  0
 32 31  1  0  0  0
 31 23  1  0  0  0
 23 24  2  0  0  0
 24 25  1  0  0  0
 24 26  1  0  0  0
 26 27  2  0  0  0
 27  1  1  0  0  0
  1  2  2  0  0  0
  2  3  1  0  0  0
  3  4  2  0  0  0
  4  7  1  0  0  0
  7  8  2  0  0  0
  8 16  1  0  0  0
 16 17  1  0  0  0
 17 18  2  0  0  0
 18 19  1  0  0  0
 19 20  2  0  0  0
 20 21  1  0  0  0
 21 22  2  0  0  0
  8  9  1  0  0  0
  9 10  1  0  0  0
 10 11  2  0  0  0
 11 12  1  0  0  0
 12 13  2  0  0  0
 13 14  1  0  0  0
 14 15  2  0  0  0
  4  5  1  0  0  0
  5  6  2  0  0  0
 27 28  1  0  0  0
 28 29  2  0  0  0
 29 30  1  0  0  0
 43 38  1  0  0  0
 29 23  1  0  0  0
  6  1  1  0  0  0
 15  7  1  0  0  0
 22 17  1  0  0  0
 15 10  1  0  0  0
 35 36  1  0  0  0
M  END
> <minimizedAffinity>
25.45666

> <CNNscore>
0.4196253419

> <CNNaffinity>
6.4077439308

> <CNN_VS>
2.6888518333

> <CNNaffinity_variance>
0.0580749139

$$$$
[H]c1c(F)c(C(=O)N([H])S(=O)(=O)C2([H])C([H])([H])C2([H])[H])c([H])c(C2([H])C([H])([H])C2([H])[H])c1OC([H])([H])C1([H])C([H])([H])C([H])([H])C([H])(C(F)(F)F)C([H])([H])C1([H])[H]


 32 35  0  0  0  0  0  0  0  0999 V2000
   27.5123    9.1404   56.0607 C   0  0  0  0  0  0  0  0  0  0  0  0
   26.1130    9.1365   56.0687 C   0  0  0  0  0  0  0  0  0  0  0  0
   25.3577    8.5205   55.1231 C   0  0  0  0  0  0  0  0  0  0  0  0
   25.9701    7.8273   54.0436 C   0  0  0  0  0  0  0  0  0  0  0  0
   27.3510    7.8410   54.0526 C   0  0  0  0  0  0  0  0  0  0  0  0
   28.1028    8.4811   55.0351 C   0  0  0  0  0  0  0  0  0  0  0  0
   29.4347    8.4388   54.9352 F   0  0  0  0  0  0  0  0  0  0  0  0
   28.7098   10.9715   56.8864 O   0  0  0  0  0  0  0  0  0  0  0  0
   28.1731    9.8313   57.1464 C   0  0  0  0  0  0  0  0  0  0  0  0
   28.3014    9.4058   58.4700 N   0  0  0  0  0  0  0  0  0  0  0  0
   27.9063    8.5236   58.8056 H   0  0  0  0  0  0  0  0  0  0  0  0
   29.1308   10.3631   59.6375 S   0  0  0  0  0  0  0  0  0  0  0  0
   30.3162   11.0499   59.0027 O   0  0  0  0  0  0  0  0  0  0  0  0
   29.6489    9.5282   60.7689 O   0  0  0  0  0  0  0  0  0  0  0  0
   28.0329   11.6332   60.2863 C   0  0  0  0  0  0  0  0  0  0  0  0
   28.6208   12.9218   60.7615 C   0  0  0  0  0  0  0  0  0  0  0  0
   28.0081   12.8780   59.4175 C   0  0  0  0  0  0  0  0  0  0  0  0
   23.8593    8.5423   55.1400 C   0  0  0  0  0  0  0  0  0  0  0  0
   23.0971    8.5259   56.3929 C   0  0  0  0  0  0  0  0  0  0  0  0
   23.2666    9.8340   55.7147 C   0  0  0  0  0  0  0  0  0  0  0  0
   25.1841    7.2410   53.1541 O   0  0  0  0  0  0  0  0  0  0  0  0
   23.9474    7.0802   52.7598 C   0  0  0  0  0  0  0  0  0  0  0  0
   22.8311    7.9990   53.0737 C   0  0  0  0  0  0  0  0  0  0  0  0
   22.4050    8.8817   51.9159 C   0  0  0  0  0  0  0  0  0  0  0  0
   21.9136   10.1642   52.5261 C   0  0  0  0  0  0  0  0  0  0  0  0
   20.8283    9.9400   53.5026 C   0  0  0  0  0  0  0  0  0  0  0  0
   20.6293    8.6037   54.0883 C   0  0  0  0  0  0  0  0  0  0  0  0
   21.6226    7.5284   53.7549 C   0  0  0  0  0  0  0  0  0  0  0  0
   20.8590   11.0185   54.6155 C   0  0  0  0  0  0  0  0  0  0  0  0
   22.1252   11.4340   54.8884 F   0  0  0  0  0  0  0  0  0  0  0  0
   20.1408   12.1289   54.1928 F   0  0  0  0  0  0  0  0  0  0  0  0
   20.2278   10.5533   55.7409 F   0  0  0  0  0  0  0  0  0  0  0  0
  8  9  2  0  0  0
  9 10  1  0  0  0
 10 12  1  0  0  0
 12 13  2  0  0  0
 12 14  2  0  0  0
 12 15  1  0  0  0
 15 16  1  0  0  0
 16 17  1  0  0  0
  9  1  1  0  0  0
  1  2  2  0  0  0
  2  3  1  0  0  0
  3 18  1  0  0  0
 18 19  1  0  0  0
 19 20  1  0  0  0
  3  4  2  0  0  0
  4 21  1  0  0  0
 21 22  1  0  0  0
 22 23  1  0  0  0
 23 24  1  0  0  0
 24 25  1  0  0  0
 25 26  1  0  0  0
 26 29  1  0  0  0
 29 30  1  0  0  0
 29 31  1  0  0  0
 29 32  1  0  0  0
 26 27  1  0  0  0
 27 28  1  0  0  0
  4  5  1  0  0  0
  5  6  2  0  0  0
  6  7  1  0  0  0
 17 15  1  0  0  0
  6  1  1  0  0  0
 20 18  1  0  0  0
 28 23  1  0  0  0
 10 11  1  0  0  0
M  END
> <minimizedAffinity>
8.35123

> <CNNscore>
0.6238673925

> <CNNaffinity>
6.7211351395

> <CNN_VS>
4.1930971146

> <CNNaffinity_variance>
0.2428584993

$$$$
[H]c1c(F)c(C(=O)N([H])S(=O)(=O)C2([H])C([H])([H])C2([H])[H])c([H])c(C2([H])C([H])([H])C2([H])[H])c1OC([H])([H])C1([H])C([H])([H])C([H])([H])C([H])(C(F)(F)F)C([H])([H])C1([H])[H]


 32 35  0  0  0  0  0  0  0  0999 V2000
   24.8202    8.1778   53.8560 C   0  0  0  0  0  0  0  0  0  0  0  0
   23.9821    9.2122   54.2870 C   0  0  0  0  0  0  0  0  0  0  0  0
   22.6563    9.2745   53.9996 C   0  0  0  0  0  0  0  0  0  0  0  0
   22.0341    8.2603   53.2217 C   0  0  0  0  0  0  0  0  0  0  0  0
   22.8761    7.2476   52.8061 C   0  0  0  0  0  0  0  0  0  0  0  0
   24.2338    7.2073   53.1147 C   0  0  0  0  0  0  0  0  0  0  0  0
   24.9548    6.1836   52.6477 F   0  0  0  0  0  0  0  0  0  0  0  0
   27.0357    7.4515   53.6751 O   0  0  0  0  0  0  0  0  0  0  0  0
   26.2088    8.2482   54.2557 C   0  0  0  0  0  0  0  0  0  0  0  0
   26.7747    9.0929   55.2125 N   0  0  0  0  0  0  0  0  0  0  0  0
   26.2252    9.7810   55.7336 H   0  0  0  0  0  0  0  0  0  0  0  0
   28.4599    9.0371   55.5655 S   0  0  0  0  0  0  0  0  0  0  0  0
   29.1790   10.1606   54.8582 O   0  0  0  0  0  0  0  0  0  0  0  0
   29.0777    7.7508   55.1081 O   0  0  0  0  0  0  0  0  0  0  0  0
   28.7263    9.2319   57.3349 C   0  0  0  0  0  0  0  0  0  0  0  0
   28.2190   10.4643   58.0100 C   0  0  0  0  0  0  0  0  0  0  0  0
   27.4280    9.2212   58.1219 C   0  0  0  0  0  0  0  0  0  0  0  0
   21.7788   10.4002   54.4563 C   0  0  0  0  0  0  0  0  0  0  0  0
   20.6444   10.1822   55.3600 C   0  0  0  0  0  0  0  0  0  0  0  0
   21.8979   10.7082   55.9533 C   0  0  0  0  0  0  0  0  0  0  0  0
   20.7377    8.3703   52.9773 O   0  0  0  0  0  0  0  0  0  0  0  0
   19.6149    7.7137   52.8396 C   0  0  0  0  0  0  0  0  0  0  0  0
   19.4300    6.2773   53.1422 C   0  0  0  0  0  0  0  0  0  0  0  0
   20.5676    5.6539   53.9286 C   0  0  0  0  0  0  0  0  0  0  0  0
   20.6395    4.2173   53.4932 C   0  0  0  0  0  0  0  0  0  0  0  0
   19.3575    3.5091   53.6849 C   0  0  0  0  0  0  0  0  0  0  0  0
   18.1097    4.2750   53.8426 C   0  0  0  0  0  0  0  0  0  0  0  0
   18.1690    5.7669   53.6854 C   0  0  0  0  0  0  0  0  0  0  0  0
   19.1785    2.3984   52.6187 C   0  0  0  0  0  0  0  0  0  0  0  0
   17.9361    1.8462   52.6610 F   0  0  0  0  0  0  0  0  0  0  0  0
   19.3439    2.9496   51.3553 F   0  0  0  0  0  0  0  0  0  0  0  0
   20.1575    1.4478   52.7586 F   0  0  0  0  0  0  0  0  0  0  0  0
  8  9  2  0  0  0
  9 10  1  0  0  0
 10 12  1  0  0  0
 12 13  2  0  0  0
 12 14  2  0  0  0
 12 15  1  0  0  0
 15 16  1  0  0  0
 16 17  1  0  0  0
  9  1  1  0  0  0
  1  2  2  0  0  0
  2  3  1  0  0  0
  3 18  1  0  0  0
 18 19  1  0  0  0
 19 20  1  0  0  0
  3  4  2  0  0  0
  4 21  1  0  0  0
 21 22  1  0  0  0
 22 23  1  0  0  0
 23 24  1  0  0  0
 24 25  1  0  0  0
 25 26  1  0  0  0
 26 29  1  0  0  0
 29 30  1  0  0  0
 29 31  1  0  0  0
 29 32  1  0  0  0
 26 27  1  0  0  0
 27 28  1  0  0  0
  4  5  1  0  0  0
  5  6  2  0  0  0
  6  7  1  0  0  0
 17 15  1  0  0  0
  6  1  1  0  0  0
 20 18  1  0  0  0
 28 23  1  0  0  0
 10 11  1  0  0  0
M  END
> <minimizedAffinity>
23.37441

> <CNNscore>
0.5745220780

> <CNNaffinity>
6.6827955246

> <CNN_VS>
3.8394136429

> <CNNaffinity_variance>
0.5001783371

$$$$
[H]c1c(F)c(C(=O)N([H])S(=O)(=O)C2([H])C([H])([H])C2([H])[H])c([H])c(C2([H])C([H])([H])C2([H])[H])c1OC([H])([H])C1([H])C([H])([H])C([H])([H])C([H])(C(F)(F)F)C([H])([H])C1([H])[H]


 32 35  0  0  0  0  0  0  0  0999 V2000
   27.1534    9.2699   56.2387 C   0  0  0  0  0  0  0  0  0  0  0  0
   25.7549    9.2792   56.1893 C   0  0  0  0  0  0  0  0  0  0  0  0
   25.0375    8.8401   55.1231 C   0  0  0  0  0  0  0  0  0  0  0  0
   25.6920    8.3332   53.9674 C   0  0  0  0  0  0  0  0  0  0  0  0
   27.0714    8.3308   54.0345 C   0  0  0  0  0  0  0  0  0  0  0  0
   27.7838    8.7875   55.1409 C   0  0  0  0  0  0  0  0  0  0  0  0
   29.1185    8.7489   55.0892 F   0  0  0  0  0  0  0  0  0  0  0  0
   28.1503    8.8892   58.3195 O   0  0  0  0  0  0  0  0  0  0  0  0
   27.7706    9.7601   57.4517 C   0  0  0  0  0  0  0  0  0  0  0  0
   28.0122   11.0894   57.8038 N   0  0  0  0  0  0  0  0  0  0  0  0
   27.7691   11.8737   57.1932 H   0  0  0  0  0  0  0  0  0  0  0  0
   28.7599   11.4928   59.3023 S   0  0  0  0  0  0  0  0  0  0  0  0
   30.2042   11.0525   59.3003 O   0  0  0  0  0  0  0  0  0  0  0  0
   28.0858   10.8147   60.4561 O   0  0  0  0  0  0  0  0  0  0  0  0
   28.7211   13.2749   59.5511 C   0  0  0  0  0  0  0  0  0  0  0  0
   28.0472   13.8194   60.7683 C   0  0  0  0  0  0  0  0  0  0  0  0
   29.5208   13.7088   60.7666 C   0  0  0  0  0  0  0  0  0  0  0  0
   23.5398    8.8742   55.0828 C   0  0  0  0  0  0  0  0  0  0  0  0
   22.7543    9.6296   56.0642 C   0  0  0  0  0  0  0  0  0  0  0  0
   22.9624   10.2507   54.7335 C   0  0  0  0  0  0  0  0  0  0  0  0
   24.9418    7.9141   52.9604 O   0  0  0  0  0  0  0  0  0  0  0  0
   24.2147    6.9264   52.5059 C   0  0  0  0  0  0  0  0  0  0  0  0
   22.8267    6.6323   52.9255 C   0  0  0  0  0  0  0  0  0  0  0  0
   22.6791    6.2863   54.3950 C   0  0  0  0  0  0  0  0  0  0  0  0
   21.5279    5.3245   54.4850 C   0  0  0  0  0  0  0  0  0  0  0  0
   20.2889    5.8777   53.9014 C   0  0  0  0  0  0  0  0  0  0  0  0
   20.3582    7.0162   52.9701 C   0  0  0  0  0  0  0  0  0  0  0  0
   21.7135    7.5076   52.5508 C   0  0  0  0  0  0  0  0  0  0  0  0
   19.4083    4.7480   53.3090 C   0  0  0  0  0  0  0  0  0  0  0  0
   19.2965    4.8443   51.9569 F   0  0  0  0  0  0  0  0  0  0  0  0
   19.9931    3.5207   53.5900 F   0  0  0  0  0  0  0  0  0  0  0  0
   18.1787    4.7403   53.9170 F   0  0  0  0  0  0  0  0  0  0  0  0
  8  9  2  0  0  0
  9 10  1  0  0  0
 10 12  1  0  0  0
 12 13  2  0  0  0
 12 14  2  0  0  0
 12 15  1  0  0  0
 15 16  1  0  0  0
 16 17  1  0  0  0
  9  1  1  0  0  0
  1  2  2  0  0  0
  2  3  1  0  0  0
  3 18  1  0  0  0
 18 19  1  0  0  0
 19 20  1  0  0  0
  3  4  2  0  0  0
  4 21  1  0  0  0
 21 22  1  0  0  0
 22 23  1  0  0  0
 23 24  1  0  0  0
 24 25  1  0  0  0
 25 26  1  0  0  0
 26 29  1  0  0  0
 29 30  1  0  0  0
 29 31  1  0  0  0
 29 32  1  0  0  0
 26 27  1  0  0  0
 27 28  1  0  0  0
  4  5  1  0  0  0
  5  6  2  0  0  0
  6  7  1  0  0  0
 17 15  1  0  0  0
  6  1  1  0  0  0
 20 18  1  0  0  0
 28 23  1  0  0  0
 10 11  1  0  0  0
M  END
> <minimizedAffinity>
9.76672

> <CNNscore>
0.5734336376

> <CNNaffinity>
6.3638811111

> <CNN_VS>
3.6492633820

> <CNNaffinity_variance>
0.1108498573

$$$$
[H]c1c(F)c(C(=O)N([H])S(=O)(=O)C2([H])C([H])([H])C2([H])[H])c([H])c(C2([H])C([H])([H])C2([H])[H])c1OC([H])([H])C1([H])C([H])([H])C([H])([H])C([H])(C(F)(F)F)C([H])([H])C1([H])[H]


 32 35  0  0  0  0  0  0  0  0999 V2000
   20.9983    6.5380   53.9639 C   0  0  0  0  0  0  0  0  0  0  0  0
   20.7410    7.8599   53.5834 C   0  0  0  0  0  0  0  0  0  0  0  0
   21.3963    8.9316   54.0993 C   0  0  0  0  0  0  0  0  0  0  0  0
   22.4082    8.7588   55.0827 C   0  0  0  0  0  0  0  0  0  0  0  0
   22.6490    7.4481   55.4450 C   0  0  0  0  0  0  0  0  0  0  0  0
   21.9619    6.3658   54.9003 C   0  0  0  0  0  0  0  0  0  0  0  0
   22.2708    5.1409   55.3361 F   0  0  0  0  0  0  0  0  0  0  0  0
   20.0140    5.6261   52.0486 O   0  0  0  0  0  0  0  0  0  0  0  0
   20.2232    5.5047   53.3124 C   0  0  0  0  0  0  0  0  0  0  0  0
   19.6638    4.3671   53.8975 N   0  0  0  0  0  0  0  0  0  0  0  0
   19.7708    4.1501   54.8917 H   0  0  0  0  0  0  0  0  0  0  0  0
   18.7611    3.2364   52.9627 S   0  0  0  0  0  0  0  0  0  0  0  0
   19.4831    1.9116   52.9057 O   0  0  0  0  0  0  0  0  0  0  0  0
   18.5769    3.7081   51.5523 O   0  0  0  0  0  0  0  0  0  0  0  0
   17.1497    2.9607   53.7156 C   0  0  0  0  0  0  0  0  0  0  0  0
   16.8018    3.6986   54.9672 C   0  0  0  0  0  0  0  0  0  0  0  0
   16.2735    4.2001   53.6815 C   0  0  0  0  0  0  0  0  0  0  0  0
   21.0941   10.3415   53.6910 C   0  0  0  0  0  0  0  0  0  0  0  0
   22.1382   11.2488   53.2035 C   0  0  0  0  0  0  0  0  0  0  0  0
   21.2696   10.6013   52.1904 C   0  0  0  0  0  0  0  0  0  0  0  0
   23.0172    9.8391   55.5461 O   0  0  0  0  0  0  0  0  0  0  0  0
   24.1735   10.3657   55.8568 C   0  0  0  0  0  0  0  0  0  0  0  0
   25.4881    9.7397   55.5949 C   0  0  0  0  0  0  0  0  0  0  0  0
   26.3130    9.4760   56.8404 C   0  0  0  0  0  0  0  0  0  0  0  0
   27.7514    9.6061   56.4251 C   0  0  0  0  0  0  0  0  0  0  0  0
   28.0964    8.7014   55.3098 C   0  0  0  0  0  0  0  0  0  0  0  0
   27.0311    8.1278   54.4705 C   0  0  0  0  0  0  0  0  0  0  0  0
   25.6196    8.5804   54.7091 C   0  0  0  0  0  0  0  0  0  0  0  0
   29.2079    9.3200   54.4240 C   0  0  0  0  0  0  0  0  0  0  0  0
   30.3165    8.5335   54.3732 F   0  0  0  0  0  0  0  0  0  0  0  0
   28.7340    9.4523   53.1258 F   0  0  0  0  0  0  0  0  0  0  0  0
   29.5077   10.5860   54.8586 F   0  0  0  0  0  0  0  0  0  0  0  0
  8  9  2  0  0  0
  9 10  1  0  0  0
 10 12  1  0  0  0
 12 13  2  0  0  0
 12 14  2  0  0  0
 12 15  1  0  0  0
 15 16  1  0  0  0
 16 17  1  0  0  0
  9  1  1  0  0  0
  1  2  2  0  0  0
  2  3  1  0  0  0
  3 18  1  0  0  0
 18 19  1  0  0  0
 19 20  1  0  0  0
  3  4  2  0  0  0
  4 21  1  0  0  0
 21 22  1  0  0  0
 22 23  1  0  0  0
 23 24  1  0  0  0
 24 25  1  0  0  0
 25 26  1  0  0  0
 26 29  1  0  0  0
 29 30  1  0  0  0
 29 31  1  0  0  0
 29 32  1  0  0  0
 26 27  1  0  0  0
 27 28  1  0  0  0
  4  5  1  0  0  0
  5  6  2  0  0  0
  6  7  1  0  0  0
 17 15  1  0  0  0
  6  1  1  0  0  0
 20 18  1  0  0  0
 28 23  1  0  0  0
 10 11  1  0  0  0
M  END
> <minimizedAffinity>
25.71957

> <CNNscore>
0.5652093887

> <CNNaffinity>
6.6528868675

> <CNN_VS>
3.7602741718

> <CNNaffinity_variance>
0.4784173369

$$$$
[H]c1c(F)c(C(=O)N([H])S(=O)(=O)C2([H])C([H])([H])C2([H])[H])c([H])c(C2([H])C([H])([H])C2([H])[H])c1OC([H])([H])C1([H])C([H])([H])C([H])([H])C([H])(C(F)(F)F)C([H])([H])C1([H])[H]


 32 35  0  0  0  0  0  0  0  0999 V2000
   22.1711    6.5310   53.9581 C   0  0  0  0  0  0  0  0  0  0  0  0
   21.9532    7.8599   54.3386 C   0  0  0  0  0  0  0  0  0  0  0  0
   22.9368    8.6870   54.7774 C   0  0  0  0  0  0  0  0  0  0  0  0
   24.2792    8.2297   54.8755 C   0  0  0  0  0  0  0  0  0  0  0  0
   24.4753    6.9166   54.4951 C   0  0  0  0  0  0  0  0  0  0  0  0
   23.4482    6.0886   54.0484 C   0  0  0  0  0  0  0  0  0  0  0  0
   23.7535    4.8302   53.7181 F   0  0  0  0  0  0  0  0  0  0  0  0
   20.2601    6.3378   52.6240 O   0  0  0  0  0  0  0  0  0  0  0  0
   21.0209    5.7822   53.5005 C   0  0  0  0  0  0  0  0  0  0  0  0
   20.6272    4.5035   53.8995 N   0  0  0  0  0  0  0  0  0  0  0  0
   21.1558    3.9518   54.5800 H   0  0  0  0  0  0  0  0  0  0  0  0
   19.2161    3.7614   53.2472 S   0  0  0  0  0  0  0  0  0  0  0  0
   19.2315    2.2771   53.5235 O   0  0  0  0  0  0  0  0  0  0  0  0
   19.1344    3.9404   51.7617 O   0  0  0  0  0  0  0  0  0  0  0  0
   17.7433    4.4555   54.0144 C   0  0  0  0  0  0  0  0  0  0  0  0
   16.4236    3.8001   53.7679 C   0  0  0  0  0  0  0  0  0  0  0  0
   17.1257    3.5191   55.0375 C   0  0  0  0  0  0  0  0  0  0  0  0
   22.6800   10.1027   55.1967 C   0  0  0  0  0  0  0  0  0  0  0  0
   21.8335   11.0041   54.4082 C   0  0  0  0  0  0  0  0  0  0  0  0
   21.2273   10.3722   55.6054 C   0  0  0  0  0  0  0  0  0  0  0  0
   25.1975    9.0814   55.3046 O   0  0  0  0  0  0  0  0  0  0  0  0
   25.4564   10.0334   56.1633 C   0  0  0  0  0  0  0  0  0  0  0  0
   26.6643   10.1016   57.0149 C   0  0  0  0  0  0  0  0  0  0  0  0
   27.6376    8.9562   56.8102 C   0  0  0  0  0  0  0  0  0  0  0  0
   28.3019    8.7288   58.1389 C   0  0  0  0  0  0  0  0  0  0  0  0
   28.9560    9.9488   58.6541 C   0  0  0  0  0  0  0  0  0  0  0  0
   28.5758   11.2685   58.1228 C   0  0  0  0  0  0  0  0  0  0  0  0
   27.4388   11.3382   57.1449 C   0  0  0  0  0  0  0  0  0  0  0  0
   28.9435    9.9664   60.2040 C   0  0  0  0  0  0  0  0  0  0  0  0
   29.3500    8.7801   60.7309 F   0  0  0  0  0  0  0  0  0  0  0  0
   29.8216   10.9426   60.6550 F   0  0  0  0  0  0  0  0  0  0  0  0
   27.7001   10.3214   60.6619 F   0  0  0  0  0  0  0  0  0  0  0  0
  8  9  2  0  0  0
  9 10  1  0  0  0
 10 12  1  0  0  0
 12 13  2  0  0  0
 12 14  2  0  0  0
 12 15  1  0  0  0
 15 16  1  0  0  0
 16 17  1  0  0  0
  9  1  1  0  0  0
  1  2  2  0  0  0
  2  3  1  0  0  0
  3 18  1  0  0  0
 18 19  1  0  0  0
 19 20  1  0  0  0
  3  4  2  0  0  0
  4 21  1  0  0  0
 21 22  1  0  0  0
 22 23  1  0  0  0
 23 24  1  0  0  0
 24 25  1  0  0  0
 25 26  1  0  0  0
 26 29  1  0  0  0
 29 30  1  0  0  0
 29 31  1  0  0  0
 29 32  1  0  0  0
 26 27  1  0  0  0
 27 28  1  0  0  0
  4  5  1  0  0  0
  5  6  2  0  0  0
  6  7  1  0  0  0
 17 15  1  0  0  0
  6  1  1  0  0  0
 20 18  1  0  0  0
 28 23  1  0  0  0
 10 11  1  0  0  0
M  END
> <minimizedAffinity>
18.68072

> <CNNscore>
0.5606188178

> <CNNaffinity>
6.4341492653

> <CNN_VS>
3.6071052551

> <CNNaffinity_variance>
0.4786282480

$$$$
[H]c1c(F)c(C(=O)N([H])S(=O)(=O)C2([H])C([H])([H])C2([H])[H])c([H])c(C2([H])C([H])([H])C2([H])[H])c1OC([H])([H])C1([H])C([H])([H])C([H])([H])C([H])(C(F)(F)F)C([H])([H])C1([H])[H]


 32 35  0  0  0  0  0  0  0  0999 V2000
   27.2651    8.8028   55.5157 C   0  0  0  0  0  0  0  0  0  0  0  0
   25.9954    8.2441   55.7000 C   0  0  0  0  0  0  0  0  0  0  0  0
   25.2131    7.8035   54.6813 C   0  0  0  0  0  0  0  0  0  0  0  0
   25.6588    7.8907   53.3342 C   0  0  0  0  0  0  0  0  0  0  0  0
   26.9138    8.4436   53.1717 C   0  0  0  0  0  0  0  0  0  0  0  0
   27.6966    8.8885   54.2344 C   0  0  0  0  0  0  0  0  0  0  0  0
   28.8917    9.4181   53.9568 F   0  0  0  0  0  0  0  0  0  0  0  0
   29.2074    8.8432   56.8175 O   0  0  0  0  0  0  0  0  0  0  0  0
   27.9804    9.2137   56.7042 C   0  0  0  0  0  0  0  0  0  0  0  0
   27.4941    9.9804   57.7649 N   0  0  0  0  0  0  0  0  0  0  0  0
   26.5391   10.3469   57.7870 H   0  0  0  0  0  0  0  0  0  0  0  0
   28.4936   10.3742   59.1116 S   0  0  0  0  0  0  0  0  0  0  0  0
   29.8959   10.6866   58.6473 O   0  0  0  0  0  0  0  0  0  0  0  0
   28.5854    9.2365   60.0825 O   0  0  0  0  0  0  0  0  0  0  0  0
   27.8487   11.8280   59.9541 C   0  0  0  0  0  0  0  0  0  0  0  0
   28.7817   12.6635   60.7687 C   0  0  0  0  0  0  0  0  0  0  0  0
   28.4294   13.1203   59.4082 C   0  0  0  0  0  0  0  0  0  0  0  0
   23.8483    7.2236   54.8981 C   0  0  0  0  0  0  0  0  0  0  0  0
   23.4660    5.9154   54.3565 C   0  0  0  0  0  0  0  0  0  0  0  0
   23.8412    5.9769   55.7902 C   0  0  0  0  0  0  0  0  0  0  0  0
   24.8561    7.4407   52.3823 O   0  0  0  0  0  0  0  0  0  0  0  0
   23.6190    7.3897   51.9608 C   0  0  0  0  0  0  0  0  0  0  0  0
   22.4613    7.9959   52.6544 C   0  0  0  0  0  0  0  0  0  0  0  0
   22.1822    9.4345   52.2623 C   0  0  0  0  0  0  0  0  0  0  0  0
   21.6009   10.0952   53.4805 C   0  0  0  0  0  0  0  0  0  0  0  0
   20.3988    9.3953   53.9774 C   0  0  0  0  0  0  0  0  0  0  0  0
   20.1386    8.0029   53.5753 C   0  0  0  0  0  0  0  0  0  0  0  0
   21.1787    7.2956   52.7555 C   0  0  0  0  0  0  0  0  0  0  0  0
   20.2710    9.5466   55.5148 C   0  0  0  0  0  0  0  0  0  0  0  0
   19.1279    8.9825   55.9894 F   0  0  0  0  0  0  0  0  0  0  0  0
   21.3367    8.8997   56.1256 F   0  0  0  0  0  0  0  0  0  0  0  0
   20.3651   10.8685   55.8683 F   0  0  0  0  0  0  0  0  0  0  0  0
  8  9  2  0  0  0
  9 10  1  0  0  0
 10 12  1  0  0  0
 12 13  2  0  0  0
 12 14  2  0  0  0
 12 15  1  0  0  0
 15 16  1  0  0  0
 16 17  1  0  0  0
  9  1  1  0  0  0
  1  2  2  0  0  0
  2  3  1  0  0  0
  3 18  1  0  0  0
 18 19  1  0  0  0
 19 20  1  0  0  0
  3  4  2  0  0  0
  4 21  1  0  0  0
 21 22  1  0  0  0
 22 23  1  0  0  0
 23 24  1  0  0  0
 24 25  1  0  0  0
 25 26  1  0  0  0
 26 29  1  0  0  0
 29 30  1  0  0  0
 29 31  1  0  0  0
 29 32  1  0  0  0
 26 27  1  0  0  0
 27 28  1  0  0  0
  4  5  1  0  0  0
  5  6  2  0  0  0
  6  7  1  0  0  0
 17 15  1  0  0  0
  6  1  1  0  0  0
 20 18  1  0  0  0
 28 23  1  0  0  0
 10 11  1  0  0  0
M  END
> <minimizedAffinity>
16.43751

> <CNNscore>
0.5574710965

> <CNNaffinity>
6.4494361877

> <CNN_VS>
3.5953743458

> <CNNaffinity_variance>
0.3839240670

$$$$
[H]c1c(F)c(C(=O)N([H])S(=O)(=O)C2([H])C([H])([H])C2([H])[H])c([H])c(C2([H])C([H])([H])C2([H])[H])c1OC([H])([H])C1([H])C([H])([H])C([H])([H])C([H])(C(F)(F)F)C([H])([H])C1([H])[H]


 32 35  0  0  0  0  0  0  0  0999 V2000
   26.9840    8.6453   55.7127 C   0  0  0  0  0  0  0  0  0  0  0  0
   25.7186    8.1090   55.9765 C   0  0  0  0  0  0  0  0  0  0  0  0
   24.8471    7.7275   55.0075 C   0  0  0  0  0  0  0  0  0  0  0  0
   25.1872    7.8582   53.6334 C   0  0  0  0  0  0  0  0  0  0  0  0
   26.4395    8.3881   53.3923 C   0  0  0  0  0  0  0  0  0  0  0  0
   27.3151    8.7721   54.4053 C   0  0  0  0  0  0  0  0  0  0  0  0
   28.4979    9.2848   54.0533 F   0  0  0  0  0  0  0  0  0  0  0  0
   29.0757    8.8602   56.7360 O   0  0  0  0  0  0  0  0  0  0  0  0
   27.8012    8.9918   56.8550 C   0  0  0  0  0  0  0  0  0  0  0  0
   27.3690    9.4632   58.0961 N   0  0  0  0  0  0  0  0  0  0  0  0
   26.3815    9.6233   58.3109 H   0  0  0  0  0  0  0  0  0  0  0  0
   28.4911    9.8243   59.3523 S   0  0  0  0  0  0  0  0  0  0  0  0
   29.6760    8.8914   59.2780 O   0  0  0  0  0  0  0  0  0  0  0  0
   27.8744    9.6591   60.7080 O   0  0  0  0  0  0  0  0  0  0  0  0
   29.0968   11.5096   59.1728 C   0  0  0  0  0  0  0  0  0  0  0  0
   28.3763   12.6143   59.8747 C   0  0  0  0  0  0  0  0  0  0  0  0
   29.6150   12.0824   60.4799 C   0  0  0  0  0  0  0  0  0  0  0  0
   23.4891    7.1709   55.3105 C   0  0  0  0  0  0  0  0  0  0  0  0
   22.7655    6.3266   54.3542 C   0  0  0  0  0  0  0  0  0  0  0  0
   23.4675    5.6464   55.4697 C   0  0  0  0  0  0  0  0  0  0  0  0
   24.3005    7.4650   52.7323 O   0  0  0  0  0  0  0  0  0  0  0  0
   23.1049    7.6742   52.2449 C   0  0  0  0  0  0  0  0  0  0  0  0
   22.3872    8.9673   52.2851 C   0  0  0  0  0  0  0  0  0  0  0  0
   21.0548    8.9642   51.5598 C   0  0  0  0  0  0  0  0  0  0  0  0
   20.8630   10.3578   51.0310 C   0  0  0  0  0  0  0  0  0  0  0  0
   20.9294   11.3762   52.0987 C   0  0  0  0  0  0  0  0  0  0  0  0
   21.5581   11.0495   53.3896 C   0  0  0  0  0  0  0  0  0  0  0  0
   22.2216    9.7107   53.5364 C   0  0  0  0  0  0  0  0  0  0  0  0
   21.4882   12.7134   51.5488 C   0  0  0  0  0  0  0  0  0  0  0  0
   20.5829   13.7237   51.6483 F   0  0  0  0  0  0  0  0  0  0  0  0
   22.6021   13.0806   52.2915 F   0  0  0  0  0  0  0  0  0  0  0  0
   21.9198   12.5489   50.2573 F   0  0  0  0  0  0  0  0  0  0  0  0
  8  9  2  0  0  0
  9 10  1  0  0  0
 10 12  1  0  0  0
 12 13  2  0  0  0
 12 14  2  0  0  0
 12 15  1  0  0  0
 15 16  1  0  0  0
 16 17  1  0  0  0
  9  1  1  0  0  0
  1  2  2  0  0  0
  2  3  1  0  0  0
  3 18  1  0  0  0
 18 19  1  0  0  0
 19 20  1  0  0  0
  3  4  2  0  0  0
  4 21  1  0  0  0
 21 22  1  0  0  0
 22 23  1  0  0  0
 23 24  1  0  0  0
 24 25  1  0  0  0
 25 26  1  0  0  0
 26 29  1  0  0  0
 29 30  1  0  0  0
 29 31  1  0  0  0
 29 32  1  0  0  0
 26 27  1  0  0  0
 27 28  1  0  0  0
  4  5  1  0  0  0
  5  6  2  0  0  0
  6  7  1  0  0  0
 17 15  1  0  0  0
  6  1  1  0  0  0
 20 18  1  0  0  0
 28 23  1  0  0  0
 10 11  1  0  0  0
M  END
> <minimizedAffinity>
14.00770

> <CNNscore>
0.5574396849

> <CNNaffinity>
6.5325775146

> <CNN_VS>
3.6415178776

> <CNNaffinity_variance>
0.3358751237

$$$$
[H]c1c(F)c(C(=O)N([H])S(=O)(=O)C2([H])C([H])([H])C2([H])[H])c([H])c(C2([H])C([H])([H])C2([H])[H])c1OC([H])([H])C1([H])C([H])([H])C([H])([H])C([H])(C(F)(F)F)C([H])([H])C1([H])[H]


 32 35  0  0  0  0  0  0  0  0999 V2000
   21.9130    5.6388   53.4364 C   0  0  0  0  0  0  0  0  0  0  0  0
   21.6617    6.9576   53.0416 C   0  0  0  0  0  0  0  0  0  0  0  0
   22.6331    7.8941   52.8878 C   0  0  0  0  0  0  0  0  0  0  0  0
   23.9966    7.5713   53.1279 C   0  0  0  0  0  0  0  0  0  0  0  0
   24.2254    6.2658   53.5156 C   0  0  0  0  0  0  0  0  0  0  0  0
   23.2103    5.3239   53.6664 C   0  0  0  0  0  0  0  0  0  0  0  0
   23.5486    4.0920   54.0585 F   0  0  0  0  0  0  0  0  0  0  0  0
   20.9569    3.5101   53.2839 O   0  0  0  0  0  0  0  0  0  0  0  0
   20.7713    4.7567   53.5432 C   0  0  0  0  0  0  0  0  0  0  0  0
   19.4659    5.0978   53.9022 N   0  0  0  0  0  0  0  0  0  0  0  0
   19.1935    6.0537   54.1451 H   0  0  0  0  0  0  0  0  0  0  0  0
   18.2218    3.9084   53.9746 S   0  0  0  0  0  0  0  0  0  0  0  0
   18.3531    3.0917   55.2378 O   0  0  0  0  0  0  0  0  0  0  0  0
   18.2968    2.9597   52.8171 O   0  0  0  0  0  0  0  0  0  0  0  0
   16.6076    4.7044   53.9910 C   0  0  0  0  0  0  0  0  0  0  0  0
   15.4323    3.9647   53.4401 C   0  0  0  0  0  0  0  0  0  0  0  0
   15.6219    3.9988   54.9052 C   0  0  0  0  0  0  0  0  0  0  0  0
   22.3416    9.3066   52.4807 C   0  0  0  0  0  0  0  0  0  0  0  0
   21.0103    9.7252   52.0298 C   0  0  0  0  0  0  0  0  0  0  0  0
   21.3861   10.0386   53.4299 C   0  0  0  0  0  0  0  0  0  0  0  0
   24.9011    8.5228   52.9570 O   0  0  0  0  0  0  0  0  0  0  0  0
   26.1591    8.8446   53.1144 C   0  0  0  0  0  0  0  0  0  0  0  0
   26.8362    9.0050   54.4200 C   0  0  0  0  0  0  0  0  0  0  0  0
   25.9951    8.5945   55.6138 C   0  0  0  0  0  0  0  0  0  0  0  0
   26.4248    9.4769   56.7519 C   0  0  0  0  0  0  0  0  0  0  0  0
   27.8751    9.3838   57.0161 C   0  0  0  0  0  0  0  0  0  0  0  0
   28.7787    8.8489   55.9838 C   0  0  0  0  0  0  0  0  0  0  0  0
   28.2012    8.5199   54.6376 C   0  0  0  0  0  0  0  0  0  0  0  0
   28.4203   10.7255   57.5687 C   0  0  0  0  0  0  0  0  0  0  0  0
   29.3118   11.3025   56.7189 F   0  0  0  0  0  0  0  0  0  0  0  0
   27.3654   11.6139   57.7284 F   0  0  0  0  0  0  0  0  0  0  0  0
   28.9613   10.5374   58.8151 F   0  0  0  0  0  0  0  0  0  0  0  0
  8  9  2  0  0  0
  9 10  1  0  0  0
 10 12  1  0  0  0
 12 13  2  0  0  0
 12 14  2  0  0  0
 12 15  1  0  0  0
 15 16  1  0  0  0
 16 17  1  0  0  0
  9  1  1  0  0  0
  1  2  2  0  0  0
  2  3  1  0  0  0
  3 18  1  0  0  0
 18 19  1  0  0  0
 19 20  1  0  0  0
  3  4  2  0  0  0
  4 21  1  0  0  0
 21 22  1  0  0  0
 22 23  1  0  0  0
 23 24  1  0  0  0
 24 25  1  0  0  0
 25 26  1  0  0  0
 26 29  1  0  0  0
 29 30  1  0  0  0
 29 31  1  0  0  0
 29 32  1  0  0  0
 26 27  1  0  0  0
 27 28  1  0  0  0
  4  5  1  0  0  0
  5  6  2  0  0  0
  6  7  1  0  0  0
 17 15  1  0  0  0
  6  1  1  0  0  0
 20 18  1  0  0  0
 28 23  1  0  0  0
 10 11  1  0  0  0
M  END
> <minimizedAffinity>
20.36042

> <CNNscore>
0.5522548556

> <CNNaffinity>
6.5745072365

> <CNN_VS>
3.6308035851

> <CNNaffinity_variance>
0.4172896445

$$$$
[H]c1c(F)c(C(=O)N([H])S(=O)(=O)C2([H])C([H])([H])C2([H])[H])c([H])c(C2([H])C([H])([H])C2([H])[H])c1OC([H])([H])C1([H])C([H])([H])C([H])([H])C([H])(C(F)(F)F)C([H])([H])C1([H])[H]


 32 35  0  0  0  0  0  0  0  0999 V2000
   24.2813    7.8500   54.6244 C   0  0  0  0  0  0  0  0  0  0  0  0
   23.4111    8.9102   54.3472 C   0  0  0  0  0  0  0  0  0  0  0  0
   22.1364    8.7417   53.9102 C   0  0  0  0  0  0  0  0  0  0  0  0
   21.6057    7.4388   53.7060 C   0  0  0  0  0  0  0  0  0  0  0  0
   22.4781    6.4053   53.9855 C   0  0  0  0  0  0  0  0  0  0  0  0
   23.7820    6.6054   54.4327 C   0  0  0  0  0  0  0  0  0  0  0  0
   24.5410    5.5292   54.6598 F   0  0  0  0  0  0  0  0  0  0  0  0
   26.5995    7.5436   54.5992 O   0  0  0  0  0  0  0  0  0  0  0  0
   25.6056    8.1935   55.0947 C   0  0  0  0  0  0  0  0  0  0  0  0
   25.9458    9.1648   56.0381 N   0  0  0  0  0  0  0  0  0  0  0  0
   25.2478    9.7575   56.4945 H   0  0  0  0  0  0  0  0  0  0  0  0
   27.5872    9.4379   56.4839 S   0  0  0  0  0  0  0  0  0  0  0  0
   27.8843    8.7806   57.8103 O   0  0  0  0  0  0  0  0  0  0  0  0
   27.8837   10.8994   56.6311 O   0  0  0  0  0  0  0  0  0  0  0  0
   28.6880    8.7263   55.2505 C   0  0  0  0  0  0  0  0  0  0  0  0
   28.3086    8.8135   53.8081 C   0  0  0  0  0  0  0  0  0  0  0  0
   29.2949    9.7776   54.3387 C   0  0  0  0  0  0  0  0  0  0  0  0
   21.2253    9.8910   53.6023 C   0  0  0  0  0  0  0  0  0  0  0  0
   21.6889   11.2817   53.6449 C   0  0  0  0  0  0  0  0  0  0  0  0
   21.5863   10.6374   52.3128 C   0  0  0  0  0  0  0  0  0  0  0  0
   20.3551    7.3349   53.2842 O   0  0  0  0  0  0  0  0  0  0  0  0
   19.5217    6.6222   52.5713 C   0  0  0  0  0  0  0  0  0  0  0  0
   18.5701    5.6307   53.1194 C   0  0  0  0  0  0  0  0  0  0  0  0
   19.2270    4.4556   53.8186 C   0  0  0  0  0  0  0  0  0  0  0  0
   18.3146    3.2801   53.6083 C   0  0  0  0  0  0  0  0  0  0  0  0
   16.9445    3.5405   54.0946 C   0  0  0  0  0  0  0  0  0  0  0  0
   16.4908    4.9246   54.3114 C   0  0  0  0  0  0  0  0  0  0  0  0
   17.4111    6.0426   53.9150 C   0  0  0  0  0  0  0  0  0  0  0  0
   15.9046    2.7566   53.2540 C   0  0  0  0  0  0  0  0  0  0  0  0
   15.3424    1.7381   53.9587 F   0  0  0  0  0  0  0  0  0  0  0  0
   14.8807    3.6163   52.8800 F   0  0  0  0  0  0  0  0  0  0  0  0
   16.4788    2.3083   52.0917 F   0  0  0  0  0  0  0  0  0  0  0  0
  8  9  2  0  0  0
  9 10  1  0  0  0
 10 12  1  0  0  0
 12 13  2  0  0  0
 12 14  2  0  0  0
 12 15  1  0  0  0
 15 16  1  0  0  0
 16 17  1  0  0  0
  9  1  1  0  0  0
  1  2  2  0  0  0
  2  3  1  0  0  0
  3 18  1  0  0  0
 18 19  1  0  0  0
 19 20  1  0  0  0
  3  4  2  0  0  0
  4 21  1  0  0  0
 21 22  1  0  0  0
 22 23  1  0  0  0
 23 24  1  0  0  0
 24 25  1  0  0  0
 25 26  1  0  0  0
 26 29  1  0  0  0
 29 30  1  0  0  0
 29 31  1  0  0  0
 29 32  1  0  0  0
 26 27  1  0  0  0
 27 28  1  0  0  0
  4  5  1  0  0  0
  5  6  2  0  0  0
  6  7  1  0  0  0
 17 15  1  0  0  0
  6  1  1  0  0  0
 20 18  1  0  0  0
 28 23  1  0  0  0
 10 11  1  0  0  0
M  END
> <minimizedAffinity>
18.47850

> <CNNscore>
0.5514957905

> <CNNaffinity>
6.3553004265

> <CNN_VS>
3.5049214363

> <CNNaffinity_variance>
0.2338706553

$$$$
[H]OC(=O)C1=C([H])[C@@]([H])(O[C@@]([H])(C([H])([H])C([H])([H])[H])C([H])([H])C([H])([H])C([H])([H])C([H])([H])C([H])([H])C([H])([H])C([H])([H])[H])[C@]([H])(N([H])C(=O)C([H])([H])[H])[C@@]([H])(N([H])[H])C1([H])[H]


 29 29  0  0  0  0  0  0  0  0999 V2000
   22.8303    9.2841   54.8954 C   0  0  0  0  0  0  0  0  0  0  0  0
   23.0909    7.8071   54.6709 C   0  0  0  0  0  0  0  0  0  0  0  0
   22.0768    7.0601   54.2331 C   0  0  0  0  0  0  0  0  0  0  0  0
   20.8076    7.8515   54.0131 C   0  0  0  0  0  0  0  0  0  0  0  0
   21.1938    8.9132   53.0157 C   0  0  0  0  0  0  0  0  0  0  0  0
   21.5164    8.2927   51.7344 N   0  0  0  0  0  0  0  0  0  0  0  0
   22.3414    9.7339   53.5365 C   0  0  0  0  0  0  0  0  0  0  0  0
   21.2167    7.2932   51.7125 H   0  0  0  0  0  0  0  0  0  0  0  0
   20.9955    8.8128   50.9656 H   0  0  0  0  0  0  0  0  0  0  0  0
   21.8957   11.1074   53.4896 N   0  0  0  0  0  0  0  0  0  0  0  0
   21.5778   11.7697   52.2848 C   0  0  0  0  0  0  0  0  0  0  0  0
   21.1203   13.1777   52.2276 C   0  0  0  0  0  0  0  0  0  0  0  0
   21.6864   11.1389   51.2051 O   0  0  0  0  0  0  0  0  0  0  0  0
   21.8088   11.6227   54.3895 H   0  0  0  0  0  0  0  0  0  0  0  0
   22.1135    5.6552   53.9616 C   0  0  0  0  0  0  0  0  0  0  0  0
   23.1687    4.9635   54.0200 O   0  0  0  0  0  0  0  0  0  0  0  0
   20.9233    5.0112   53.6136 O   0  0  0  0  0  0  0  0  0  0  0  0
   20.8018    4.0655   53.9880 H   0  0  0  0  0  0  0  0  0  0  0  0
   23.9881    9.8599   55.2926 O   0  0  0  0  0  0  0  0  0  0  0  0
   25.1163    9.0436   55.4235 C   0  0  0  0  0  0  0  0  0  0  0  0
   25.5532    8.3438   54.1985 C   0  0  0  0  0  0  0  0  0  0  0  0
   27.0742    8.4065   54.0456 C   0  0  0  0  0  0  0  0  0  0  0  0
   26.2078    9.6777   56.1676 C   0  0  0  0  0  0  0  0  0  0  0  0
   27.1281    8.9825   57.0680 C   0  0  0  0  0  0  0  0  0  0  0  0
   28.2160    9.7703   57.6617 C   0  0  0  0  0  0  0  0  0  0  0  0
   28.6398    9.1219   59.0261 C   0  0  0  0  0  0  0  0  0  0  0  0
   29.1220   10.2905   59.8617 C   0  0  0  0  0  0  0  0  0  0  0  0
   28.7084   12.6318   60.3805 C   0  0  0  0  0  0  0  0  0  0  0  0
   28.7024   11.6099   59.2855 C   0  0  0  0  0  0  0  0  0  0  0  0
 28 29  1  0  0  0
 29 27  1  0  0  0
 27 26  1  0  0  0
 26 25  1  0  0  0
 25 24  1  0  0  0
 24 23  1  0  0  0
 23 20  1  0  0  0
 20 21  1  0  0  0
 21 22  1  0  0  0
 20 19  1  0  0  0
 19  1  1  0  0  0
  1  2  1  0  0  0
  2  3  2  0  0  0
  3 15  1  0  0  0
 15 16  2  0  0  0
 15 17  1  0  0  0
  3  4  1  0  0  0
  4  5  1  0  0  0
  5  6  1  0  0  0
  5  7  1  0  0  0
  7 10  1  0  0  0
 10 11  1  0  0  0
 11 12  1  0  0  0
 11 13  2  0  0  0
  7  1  1  0  0  0
 17 18  1  0  0  0
  6  8  1  0  0  0
  6  9  1  0  0  0
 10 14  1  0  0  0
M  END
> <minimizedAffinity>
3.09841

> <CNNscore>
0.6693291068

> <CNNaffinity>
6.3656125069

> <CNN_VS>
4.2606897354

> <CNNaffinity_variance>
0.6389033794

$$$$
[H]OC(=O)C1=C([H])[C@@]([H])(O[C@@]([H])(C([H])([H])C([H])([H])[H])C([H])([H])C([H])([H])C([H])([H])C([H])([H])C([H])([H])C([H])([H])C([H])([H])[H])[C@]([H])(N([H])C(=O)C([H])([H])[H])[C@@]([H])(N([H])[H])C1([H])[H]


 29 29  0  0  0  0  0  0  0  0999 V2000
   23.4063    8.3751   54.3236 C   0  0  0  0  0  0  0  0  0  0  0  0
   22.7702    9.4257   53.4339 C   0  0  0  0  0  0  0  0  0  0  0  0
   21.8869    9.0129   52.5244 C   0  0  0  0  0  0  0  0  0  0  0  0
   21.6551    7.5193   52.5563 C   0  0  0  0  0  0  0  0  0  0  0  0
   21.1857    7.2409   53.9610 C   0  0  0  0  0  0  0  0  0  0  0  0
   19.8826    7.8619   54.1781 N   0  0  0  0  0  0  0  0  0  0  0  0
   22.2003    7.7219   54.9614 C   0  0  0  0  0  0  0  0  0  0  0  0
   19.4608    8.1798   53.2779 H   0  0  0  0  0  0  0  0  0  0  0  0
   19.2320    7.1407   54.6135 H   0  0  0  0  0  0  0  0  0  0  0  0
   22.5110    6.5780   55.7875 N   0  0  0  0  0  0  0  0  0  0  0  0
   23.4051    5.5628   55.3862 C   0  0  0  0  0  0  0  0  0  0  0  0
   23.7293    4.3865   56.2267 C   0  0  0  0  0  0  0  0  0  0  0  0
   23.9559    5.6562   54.2622 O   0  0  0  0  0  0  0  0  0  0  0  0
   22.0497    6.5086   56.7177 H   0  0  0  0  0  0  0  0  0  0  0  0
   21.1800    9.8382   51.5927 C   0  0  0  0  0  0  0  0  0  0  0  0
   20.2790    9.4020   50.8224 O   0  0  0  0  0  0  0  0  0  0  0  0
   21.4993   11.1970   51.5284 O   0  0  0  0  0  0  0  0  0  0  0  0
   20.7111   11.8338   51.3785 H   0  0  0  0  0  0  0  0  0  0  0  0
   24.2289    9.0033   55.1944 O   0  0  0  0  0  0  0  0  0  0  0  0
   25.5596    8.5782   55.2641 C   0  0  0  0  0  0  0  0  0  0  0  0
   26.1817    8.1892   53.9823 C   0  0  0  0  0  0  0  0  0  0  0  0
   27.6774    8.5108   53.9802 C   0  0  0  0  0  0  0  0  0  0  0  0
   26.4016    9.4420   56.0959 C   0  0  0  0  0  0  0  0  0  0  0  0
   27.6617    9.0394   56.7214 C   0  0  0  0  0  0  0  0  0  0  0  0
   28.1598    9.8652   57.8289 C   0  0  0  0  0  0  0  0  0  0  0  0
   28.5245    8.9392   59.0418 C   0  0  0  0  0  0  0  0  0  0  0  0
   29.0940    9.8871   60.0780 C   0  0  0  0  0  0  0  0  0  0  0  0
   28.7675   12.2614   60.4997 C   0  0  0  0  0  0  0  0  0  0  0  0
   29.3145   11.2637   59.5256 C   0  0  0  0  0  0  0  0  0  0  0  0
 28 29  1  0  0  0
 29 27  1  0  0  0
 27 26  1  0  0  0
 26 25  1  0  0  0
 25 24  1  0  0  0
 24 23  1  0  0  0
 23 20  1  0  0  0
 20 21  1  0  0  0
 21 22  1  0  0  0
 20 19  1  0  0  0
 19  1  1  0  0  0
  1  2  1  0  0  0
  2  3  2  0  0  0
  3 15  1  0  0  0
 15 16  2  0  0  0
 15 17  1  0  0  0
  3  4  1  0  0  0
  4  5  1  0  0  0
  5  6  1  0  0  0
  5  7  1  0  0  0
  7 10  1  0  0  0
 10 11  1  0  0  0
 11 12  1  0  0  0
 11 13  2  0  0  0
  7  1  1  0  0  0
 17 18  1  0  0  0
  6  8  1  0  0  0
  6  9  1  0  0  0
 10 14  1  0  0  0
M  END
> <minimizedAffinity>
2.84713

> <CNNscore>
0.6369863749

> <CNNaffinity>
6.1782836914

> <CNN_VS>
3.9354825020

> <CNNaffinity_variance>
0.4157219529

$$$$
[H]OC(=O)C1=C([H])[C@@]([H])(O[C@@]([H])(C([H])([H])C([H])([H])[H])C([H])([H])C([H])([H])C([H])([H])C([H])([H])C([H])([H])C([H])([H])C([H])([H])[H])[C@]([H])(N([H])C(=O)C([H])([H])[H])[C@@]([H])(N([H])[H])C1([H])[H]


 29 29  0  0  0  0  0  0  0  0999 V2000
   23.8219    8.1961   53.9804 C   0  0  0  0  0  0  0  0  0  0  0  0
   23.8633    6.9739   54.8774 C   0  0  0  0  0  0  0  0  0  0  0  0
   22.7501    6.6541   55.5380 C   0  0  0  0  0  0  0  0  0  0  0  0
   21.5984    7.5900   55.2496 C   0  0  0  0  0  0  0  0  0  0  0  0
   21.4090    7.5055   53.7570 C   0  0  0  0  0  0  0  0  0  0  0  0
   20.9506    6.1684   53.3925 N   0  0  0  0  0  0  0  0  0  0  0  0
   22.6819    7.8670   53.0423 C   0  0  0  0  0  0  0  0  0  0  0  0
   20.6532    5.6283   54.2346 H   0  0  0  0  0  0  0  0  0  0  0  0
   20.1113    6.2629   52.7448 H   0  0  0  0  0  0  0  0  0  0  0  0
   22.3330    8.9344   52.1332 N   0  0  0  0  0  0  0  0  0  0  0  0
   21.7338   10.1389   52.5589 C   0  0  0  0  0  0  0  0  0  0  0  0
   21.3727   11.2384   51.6337 C   0  0  0  0  0  0  0  0  0  0  0  0
   21.4926   10.2915   53.7812 O   0  0  0  0  0  0  0  0  0  0  0  0
   22.5363    8.7992   51.1217 H   0  0  0  0  0  0  0  0  0  0  0  0
   22.5814    5.5477   56.4303 C   0  0  0  0  0  0  0  0  0  0  0  0
   23.4220    4.6117   56.5434 O   0  0  0  0  0  0  0  0  0  0  0  0
   21.4293    5.4958   57.2191 O   0  0  0  0  0  0  0  0  0  0  0  0
   21.5561    5.1393   58.1711 H   0  0  0  0  0  0  0  0  0  0  0  0
   25.0266    8.3161   53.3771 O   0  0  0  0  0  0  0  0  0  0  0  0
   26.1723    8.2211   54.1737 C   0  0  0  0  0  0  0  0  0  0  0  0
   27.4499    8.5516   53.5105 C   0  0  0  0  0  0  0  0  0  0  0  0
   28.6170    7.8193   54.1754 C   0  0  0  0  0  0  0  0  0  0  0  0
   26.0123    8.8339   55.4952 C   0  0  0  0  0  0  0  0  0  0  0  0
   27.0002    9.6914   56.1507 C   0  0  0  0  0  0  0  0  0  0  0  0
   27.6595    9.1650   57.3527 C   0  0  0  0  0  0  0  0  0  0  0  0
   28.4232   10.3292   58.0760 C   0  0  0  0  0  0  0  0  0  0  0  0
   28.8285    9.7377   59.4111 C   0  0  0  0  0  0  0  0  0  0  0  0
   28.9124   11.9673   60.3825 C   0  0  0  0  0  0  0  0  0  0  0  0
   29.6664   10.6836   60.2185 C   0  0  0  0  0  0  0  0  0  0  0  0
 28 29  1  0  0  0
 29 27  1  0  0  0
 27 26  1  0  0  0
 26 25  1  0  0  0
 25 24  1  0  0  0
 24 23  1  0  0  0
 23 20  1  0  0  0
 20 21  1  0  0  0
 21 22  1  0  0  0
 20 19  1  0  0  0
 19  1  1  0  0  0
  1  2  1  0  0  0
  2  3  2  0  0  0
  3 15  1  0  0  0
 15 16  2  0  0  0
 15 17  1  0  0  0
  3  4  1  0  0  0
  4  5  1  0  0  0
  5  6  1  0  0  0
  5  7  1  0  0  0
  7 10  1  0  0  0
 10 11  1  0  0  0
 11 12  1  0  0  0
 11 13  2  0  0  0
  7  1  1  0  0  0
 17 18  1  0  0  0
  6  8  1  0  0  0
  6  9  1  0  0  0
 10 14  1  0  0  0
M  END
> <minimizedAffinity>
2.05713

> <CNNscore>
0.6175580025

> <CNNaffinity>
6.2226076126

> <CNN_VS>
3.8428211212

> <CNNaffinity_variance>
0.5049962997

$$$$
[H]OC(=O)C1=C([H])[C@@]([H])(O[C@@]([H])(C([H])([H])C([H])([H])[H])C([H])([H])C([H])([H])C([H])([H])C([H])([H])C([H])([H])C([H])([H])C([H])([H])[H])[C@]([H])(N([H])C(=O)C([H])([H])[H])[C@@]([H])(N([H])[H])C1([H])[H]


 29 29  0  0  0  0  0  0  0  0999 V2000
   22.9990    7.3259   52.6676 C   0  0  0  0  0  0  0  0  0  0  0  0
   22.9327    8.8400   52.7249 C   0  0  0  0  0  0  0  0  0  0  0  0
   21.8040    9.4249   52.3226 C   0  0  0  0  0  0  0  0  0  0  0  0
   20.7470    8.4374   51.8830 C   0  0  0  0  0  0  0  0  0  0  0  0
   20.5258    7.5607   53.0887 C   0  0  0  0  0  0  0  0  0  0  0  0
   19.9303    8.3448   54.1664 N   0  0  0  0  0  0  0  0  0  0  0  0
   21.8166    6.9206   53.5196 C   0  0  0  0  0  0  0  0  0  0  0  0
   19.5941    9.2699   53.8194 H   0  0  0  0  0  0  0  0  0  0  0  0
   19.0942    7.8106   54.5518 H   0  0  0  0  0  0  0  0  0  0  0  0
   21.5614    5.4987   53.5445 N   0  0  0  0  0  0  0  0  0  0  0  0
   20.2688    4.9493   53.4080 C   0  0  0  0  0  0  0  0  0  0  0  0
   19.9981    3.4928   53.4325 C   0  0  0  0  0  0  0  0  0  0  0  0
   19.2967    5.7290   53.2580 O   0  0  0  0  0  0  0  0  0  0  0  0
   22.3732    4.8598   53.6694 H   0  0  0  0  0  0  0  0  0  0  0  0
   21.5402   10.8315   52.2961 C   0  0  0  0  0  0  0  0  0  0  0  0
   21.4411   11.4999   51.2290 O   0  0  0  0  0  0  0  0  0  0  0  0
   21.3832   11.5042   53.5107 O   0  0  0  0  0  0  0  0  0  0  0  0
   20.6705   12.2399   53.5243 H   0  0  0  0  0  0  0  0  0  0  0  0
   24.1997    6.9387   53.1556 O   0  0  0  0  0  0  0  0  0  0  0  0
   24.8654    7.8071   54.0267 C   0  0  0  0  0  0  0  0  0  0  0  0
   24.2276    8.0174   55.3422 C   0  0  0  0  0  0  0  0  0  0  0  0
   23.7367    9.4591   55.4880 C   0  0  0  0  0  0  0  0  0  0  0  0
   26.3086    7.5637   54.0977 C   0  0  0  0  0  0  0  0  0  0  0  0
   27.3418    8.5961   54.0100 C   0  0  0  0  0  0  0  0  0  0  0  0
   28.1951    8.7991   55.1879 C   0  0  0  0  0  0  0  0  0  0  0  0
   27.2958    9.1534   56.4237 C   0  0  0  0  0  0  0  0  0  0  0  0
   28.2323    9.8722   57.3739 C   0  0  0  0  0  0  0  0  0  0  0  0
   29.0368   10.0737   59.6617 C   0  0  0  0  0  0  0  0  0  0  0  0
   28.3688    9.1561   58.6843 C   0  0  0  0  0  0  0  0  0  0  0  0
 28 29  1  0  0  0
 29 27  1  0  0  0
 27 26  1  0  0  0
 26 25  1  0  0  0
 25 24  1  0  0  0
 24 23  1  0  0  0
 23 20  1  0  0  0
 20 21  1  0  0  0
 21 22  1  0  0  0
 20 19  1  0  0  0
 19  1  1  0  0  0
  1  2  1  0  0  0
  2  3  2  0  0  0
  3 15  1  0  0  0
 15 16  2  0  0  0
 15 17  1  0  0  0
  3  4  1  0  0  0
  4  5  1  0  0  0
  5  6  1  0  0  0
  5  7  1  0  0  0
  7 10  1  0  0  0
 10 11  1  0  0  0
 11 12  1  0  0  0
 11 13  2  0  0  0
  7  1  1  0  0  0
 17 18  1  0  0  0
  6  8  1  0  0  0
  6  9  1  0  0  0
 10 14  1  0  0  0
M  END
> <minimizedAffinity>
2.60276

> <CNNscore>
0.5995584726

> <CNNaffinity>
6.4206809998

> <CNN_VS>
3.8495736122

> <CNNaffinity_variance>
0.2948063016

$$$$
[H]OC(=O)C1=C([H])[C@@]([H])(O[C@@]([H])(C([H])([H])C([H])([H])[H])C([H])([H])C([H])([H])C([H])([H])C([H])([H])C([H])([H])C([H])([H])C([H])([H])[H])[C@]([H])(N([H])C(=O)C([H])([H])[H])[C@@]([H])(N([H])[H])C1([H])[H]


 29 29  0  0  0  0  0  0  0  0999 V2000
   22.3100    8.5694   53.5857 C   0  0  0  0  0  0  0  0  0  0  0  0
   21.9881   10.0123   53.2474 C   0  0  0  0  0  0  0  0  0  0  0  0
   21.6996   10.2998   51.9777 C   0  0  0  0  0  0  0  0  0  0  0  0
   21.7276    9.0889   51.0731 C   0  0  0  0  0  0  0  0  0  0  0  0
   20.7209    8.1441   51.6771 C   0  0  0  0  0  0  0  0  0  0  0  0
   19.3806    8.7106   51.5609 N   0  0  0  0  0  0  0  0  0  0  0  0
   21.0714    7.8440   53.1085 C   0  0  0  0  0  0  0  0  0  0  0  0
   19.3713    9.5292   50.9134 H   0  0  0  0  0  0  0  0  0  0  0  0
   18.7313    7.9661   51.1647 H   0  0  0  0  0  0  0  0  0  0  0  0
   21.1533    6.4044   53.1998 N   0  0  0  0  0  0  0  0  0  0  0  0
   20.0168    5.5789   53.3348 C   0  0  0  0  0  0  0  0  0  0  0  0
   20.0916    4.1022   53.4293 C   0  0  0  0  0  0  0  0  0  0  0  0
   18.8839    6.1175   53.3774 O   0  0  0  0  0  0  0  0  0  0  0  0
   22.0965    5.9665   53.1638 H   0  0  0  0  0  0  0  0  0  0  0  0
   21.3720   11.5909   51.4537 C   0  0  0  0  0  0  0  0  0  0  0  0
   20.9095   11.7726   50.2924 O   0  0  0  0  0  0  0  0  0  0  0  0
   21.5722   12.7110   52.2646 O   0  0  0  0  0  0  0  0  0  0  0  0
   20.8647   13.4480   52.1899 H   0  0  0  0  0  0  0  0  0  0  0  0
   22.5278    8.4883   54.9183 O   0  0  0  0  0  0  0  0  0  0  0  0
   23.7915    8.0759   55.3532 C   0  0  0  0  0  0  0  0  0  0  0  0
   24.4077    6.9701   54.5923 C   0  0  0  0  0  0  0  0  0  0  0  0
   23.6449    5.6624   54.8132 C   0  0  0  0  0  0  0  0  0  0  0  0
   24.7031    9.1902   55.6263 C   0  0  0  0  0  0  0  0  0  0  0  0
   25.7810    9.1729   56.6156 C   0  0  0  0  0  0  0  0  0  0  0  0
   26.9792    9.9699   56.3226 C   0  0  0  0  0  0  0  0  0  0  0  0
   28.2366    9.0315   56.3176 C   0  0  0  0  0  0  0  0  0  0  0  0
   28.5164    8.7891   54.8481 C   0  0  0  0  0  0  0  0  0  0  0  0
   27.1567    8.7456   52.8305 C   0  0  0  0  0  0  0  0  0  0  0  0
   27.3776    8.0958   54.1618 C   0  0  0  0  0  0  0  0  0  0  0  0
 28 29  1  0  0  0
 29 27  1  0  0  0
 27 26  1  0  0  0
 26 25  1  0  0  0
 25 24  1  0  0  0
 24 23  1  0  0  0
 23 20  1  0  0  0
 20 21  1  0  0  0
 21 22  1  0  0  0
 20 19  1  0  0  0
 19  1  1  0  0  0
  1  2  1  0  0  0
  2  3  2  0  0  0
  3 15  1  0  0  0
 15 16  2  0  0  0
 15 17  1  0  0  0
  3  4  1  0  0  0
  4  5  1  0  0  0
  5  6  1  0  0  0
  5  7  1  0  0  0
  7 10  1  0  0  0
 10 11  1  0  0  0
 11 12  1  0  0  0
 11 13  2  0  0  0
  7  1  1  0  0  0
 17 18  1  0  0  0
  6  8  1  0  0  0
  6  9  1  0  0  0
 10 14  1  0  0  0
M  END
> <minimizedAffinity>
10.94531

> <CNNscore>
0.5867595673

> <CNNaffinity>
6.4862394333

> <CNN_VS>
3.8058631420

> <CNNaffinity_variance>
0.9173930883

$$$$
[H]OC(=O)C1=C([H])[C@@]([H])(O[C@@]([H])(C([H])([H])C([H])([H])[H])C([H])([H])C([H])([H])C([H])([H])C([H])([H])C([H])([H])C([H])([H])C([H])([H])[H])[C@]([H])(N([H])C(=O)C([H])([H])[H])[C@@]([H])(N([H])[H])C1([H])[H]


 29 29  0  0  0  0  0  0  0  0999 V2000
   22.1671    8.3931   53.5513 C   0  0  0  0  0  0  0  0  0  0  0  0
   21.8818    9.8150   53.1076 C   0  0  0  0  0  0  0  0  0  0  0  0
   21.6133   10.0177   51.8174 C   0  0  0  0  0  0  0  0  0  0  0  0
   21.6231    8.7451   51.0013 C   0  0  0  0  0  0  0  0  0  0  0  0
   20.5888    7.8681   51.6586 C   0  0  0  0  0  0  0  0  0  0  0  0
   19.2631    8.4543   51.4862 N   0  0  0  0  0  0  0  0  0  0  0  0
   20.9173    7.6630   53.1117 C   0  0  0  0  0  0  0  0  0  0  0  0
   19.2792    9.2247   50.7823 H   0  0  0  0  0  0  0  0  0  0  0  0
   18.6012    7.6979   51.1360 H   0  0  0  0  0  0  0  0  0  0  0  0
   20.9653    6.2321   53.3059 N   0  0  0  0  0  0  0  0  0  0  0  0
   19.8068    5.4336   53.4128 C   0  0  0  0  0  0  0  0  0  0  0  0
   19.8468    3.9660   53.6121 C   0  0  0  0  0  0  0  0  0  0  0  0
   18.6841    5.9894   53.3358 O   0  0  0  0  0  0  0  0  0  0  0  0
   21.9003    5.7797   53.3688 H   0  0  0  0  0  0  0  0  0  0  0  0
   21.3207   11.2751   51.1992 C   0  0  0  0  0  0  0  0  0  0  0  0
   20.6627   11.3858   50.1267 O   0  0  0  0  0  0  0  0  0  0  0  0
   21.7847   12.4432   51.8097 O   0  0  0  0  0  0  0  0  0  0  0  0
   21.1532   13.2487   51.7694 H   0  0  0  0  0  0  0  0  0  0  0  0
   22.3689    8.4023   54.8888 O   0  0  0  0  0  0  0  0  0  0  0  0
   23.0334    9.5001   55.4450 C   0  0  0  0  0  0  0  0  0  0  0  0
   22.1842   10.4775   56.1557 C   0  0  0  0  0  0  0  0  0  0  0  0
   20.7205   10.3402   55.7323 C   0  0  0  0  0  0  0  0  0  0  0  0
   24.2528    9.1335   56.1703 C   0  0  0  0  0  0  0  0  0  0  0  0
   25.5765    9.7124   55.9384 C   0  0  0  0  0  0  0  0  0  0  0  0
   26.6620    8.7918   55.5766 C   0  0  0  0  0  0  0  0  0  0  0  0
   26.4758    8.3314   54.0883 C   0  0  0  0  0  0  0  0  0  0  0  0
   25.6212    7.0838   54.1870 C   0  0  0  0  0  0  0  0  0  0  0  0
   23.9191    5.6804   53.1598 C   0  0  0  0  0  0  0  0  0  0  0  0
   24.5821    7.0225   53.1075 C   0  0  0  0  0  0  0  0  0  0  0  0
 28 29  1  0  0  0
 29 27  1  0  0  0
 27 26  1  0  0  0
 26 25  1  0  0  0
 25 24  1  0  0  0
 24 23  1  0  0  0
 23 20  1  0  0  0
 20 21  1  0  0  0
 21 22  1  0  0  0
 20 19  1  0  0  0
 19  1  1  0  0  0
  1  2  1  0  0  0
  2  3  2  0  0  0
  3 15  1  0  0  0
 15 16  2  0  0  0
 15 17  1  0  0  0
  3  4  1  0  0  0
  4  5  1  0  0  0
  5  6  1  0  0  0
  5  7  1  0  0  0
  7 10  1  0  0  0
 10 11  1  0  0  0
 11 12  1  0  0  0
 11 13  2  0  0  0
  7  1  1  0  0  0
 17 18  1  0  0  0
  6  8  1  0  0  0
  6  9  1  0  0  0
 10 14  1  0  0  0
M  END
> <minimizedAffinity>
11.08821

> <CNNscore>
0.5849580765

> <CNNaffinity>
6.5904059410

> <CNN_VS>
3.8551111221

> <CNNaffinity_variance>
0.9284688234

$$$$
[H]OC(=O)C1=C([H])[C@@]([H])(O[C@@]([H])(C([H])([H])C([H])([H])[H])C([H])([H])C([H])([H])C([H])([H])C([H])([H])C([H])([H])C([H])([H])C([H])([H])[H])[C@]([H])(N([H])C(=O)C([H])([H])[H])[C@@]([H])(N([H])[H])C1([H])[H]


 29 29  0  0  0  0  0  0  0  0999 V2000
   22.8120    8.0143   52.7094 C   0  0  0  0  0  0  0  0  0  0  0  0
   22.8497    9.4588   52.2492 C   0  0  0  0  0  0  0  0  0  0  0  0
   21.6968   10.1280   52.2187 C   0  0  0  0  0  0  0  0  0  0  0  0
   20.5183    9.3028   52.6832 C   0  0  0  0  0  0  0  0  0  0  0  0
   20.8838    8.8782   54.0822 C   0  0  0  0  0  0  0  0  0  0  0  0
   20.9344   10.0469   54.9553 N   0  0  0  0  0  0  0  0  0  0  0  0
   22.1891    8.1313   54.0829 C   0  0  0  0  0  0  0  0  0  0  0  0
   20.5118   10.8821   54.4936 H   0  0  0  0  0  0  0  0  0  0  0  0
   20.3755    9.8359   55.8363 H   0  0  0  0  0  0  0  0  0  0  0  0
   21.9170    6.8646   54.7222 N   0  0  0  0  0  0  0  0  0  0  0  0
   21.7757    6.7257   56.1193 C   0  0  0  0  0  0  0  0  0  0  0  0
   21.4969    5.4308   56.7832 C   0  0  0  0  0  0  0  0  0  0  0  0
   21.8909    7.7468   56.8400 O   0  0  0  0  0  0  0  0  0  0  0  0
   21.8232    6.0233   54.1171 H   0  0  0  0  0  0  0  0  0  0  0  0
   21.5168   11.4900   51.8166 C   0  0  0  0  0  0  0  0  0  0  0  0
   21.3553   11.8442   50.6150 O   0  0  0  0  0  0  0  0  0  0  0  0
   21.5191   12.4823   52.8003 O   0  0  0  0  0  0  0  0  0  0  0  0
   20.8567   13.2510   52.6600 H   0  0  0  0  0  0  0  0  0  0  0  0
   24.0785    7.5391   52.7077 O   0  0  0  0  0  0  0  0  0  0  0  0
   24.8335    7.6781   53.8769 C   0  0  0  0  0  0  0  0  0  0  0  0
   25.0016    6.4546   54.6869 C   0  0  0  0  0  0  0  0  0  0  0  0
   24.1711    5.3029   54.1173 C   0  0  0  0  0  0  0  0  0  0  0  0
   26.0720    8.4364   53.6808 C   0  0  0  0  0  0  0  0  0  0  0  0
   27.1688    8.5213   54.6456 C   0  0  0  0  0  0  0  0  0  0  0  0
   26.8374    8.9584   56.0079 C   0  0  0  0  0  0  0  0  0  0  0  0
   28.0227    9.8124   56.5803 C   0  0  0  0  0  0  0  0  0  0  0  0
   28.1852    9.3196   58.0041 C   0  0  0  0  0  0  0  0  0  0  0  0
   29.0703    9.7322   60.2330 C   0  0  0  0  0  0  0  0  0  0  0  0
   28.8253   10.3469   58.8893 C   0  0  0  0  0  0  0  0  0  0  0  0
 28 29  1  0  0  0
 29 27  1  0  0  0
 27 26  1  0  0  0
 26 25  1  0  0  0
 25 24  1  0  0  0
 24 23  1  0  0  0
 23 20  1  0  0  0
 20 21  1  0  0  0
 21 22  1  0  0  0
 20 19  1  0  0  0
 19  1  1  0  0  0
  1  2  1  0  0  0
  2  3  2  0  0  0
  3 15  1  0  0  0
 15 16  2  0  0  0
 15 17  1  0  0  0
  3  4  1  0  0  0
  4  5  1  0  0  0
  5  6  1  0  0  0
  5  7  1  0  0  0
  7 10  1  0  0  0
 10 11  1  0  0  0
 11 12  1  0  0  0
 11 13  2  0  0  0
  7  1  1  0  0  0
 17 18  1  0  0  0
  6  8  1  0  0  0
  6  9  1  0  0  0
 10 14  1  0  0  0
M  END
> <minimizedAffinity>
6.75731

> <CNNscore>
0.5829638839

> <CNNaffinity>
6.1972455978

> <CNN_VS>
3.6127703190

> <CNNaffinity_variance>
0.5070853233

$$$$
[H]OC(=O)C1=C([H])[C@@]([H])(O[C@@]([H])(C([H])([H])C([H])([H])[H])C([H])([H])C([H])([H])C([H])([H])C([H])([H])C([H])([H])C([H])([H])C([H])([H])[H])[C@]([H])(N([H])C(=O)C([H])([H])[H])[C@@]([H])(N([H])[H])C1([H])[H]


 29 29  0  0  0  0  0  0  0  0999 V2000
   23.9385    8.1912   53.5956 C   0  0  0  0  0  0  0  0  0  0  0  0
   23.9586    6.9755   54.5020 C   0  0  0  0  0  0  0  0  0  0  0  0
   22.8919    6.7615   55.2729 C   0  0  0  0  0  0  0  0  0  0  0  0
   21.8058    7.7963   55.0848 C   0  0  0  0  0  0  0  0  0  0  0  0
   21.4632    7.7207   53.6192 C   0  0  0  0  0  0  0  0  0  0  0  0
   20.8532    6.4286   53.3209 N   0  0  0  0  0  0  0  0  0  0  0  0
   22.6866    7.9613   52.7783 C   0  0  0  0  0  0  0  0  0  0  0  0
   20.5932    5.9225   54.1959 H   0  0  0  0  0  0  0  0  0  0  0  0
   19.9659    6.5950   52.7570 H   0  0  0  0  0  0  0  0  0  0  0  0
   22.3467    9.0507   51.8922 N   0  0  0  0  0  0  0  0  0  0  0  0
   21.6860   10.2180   52.3305 C   0  0  0  0  0  0  0  0  0  0  0  0
   21.3336   11.3396   51.4288 C   0  0  0  0  0  0  0  0  0  0  0  0
   21.3795   10.3160   53.5437 O   0  0  0  0  0  0  0  0  0  0  0  0
   22.6044    8.9608   50.8880 H   0  0  0  0  0  0  0  0  0  0  0  0
   22.7136    5.6801   56.1935 C   0  0  0  0  0  0  0  0  0  0  0  0
   21.6971    5.5576   56.9331 O   0  0  0  0  0  0  0  0  0  0  0  0
   23.7128    4.7073   56.2822 O   0  0  0  0  0  0  0  0  0  0  0  0
   23.3879    3.7453   56.4170 H   0  0  0  0  0  0  0  0  0  0  0  0
   25.0837    8.1981   52.8756 O   0  0  0  0  0  0  0  0  0  0  0  0
   26.2487    8.6559   53.4996 C   0  0  0  0  0  0  0  0  0  0  0  0
   26.8917    7.7143   54.4385 C   0  0  0  0  0  0  0  0  0  0  0  0
   28.2596    8.2347   54.8843 C   0  0  0  0  0  0  0  0  0  0  0  0
   27.1829    9.3073   52.5776 C   0  0  0  0  0  0  0  0  0  0  0  0
   27.4896    8.8448   51.2237 C   0  0  0  0  0  0  0  0  0  0  0  0
   27.4334    9.8368   50.1423 C   0  0  0  0  0  0  0  0  0  0  0  0
   28.8139    9.8693   49.3974 C   0  0  0  0  0  0  0  0  0  0  0  0
   28.4743    9.5102   47.9648 C   0  0  0  0  0  0  0  0  0  0  0  0
   29.0111    8.0651   46.0819 C   0  0  0  0  0  0  0  0  0  0  0  0
   29.0091    8.1642   47.5764 C   0  0  0  0  0  0  0  0  0  0  0  0
 28 29  1  0  0  0
 29 27  1  0  0  0
 27 26  1  0  0  0
 26 25  1  0  0  0
 25 24  1  0  0  0
 24 23  1  0  0  0
 23 20  1  0  0  0
 20 21  1  0  0  0
 21 22  1  0  0  0
 20 19  1  0  0  0
 19  1  1  0  0  0
  1  2  1  0  0  0
  2  3  2  0  0  0
  3 15  1  0  0  0
 15 16  2  0  0  0
 15 17  1  0  0  0
  3  4  1  0  0  0
  4  5  1  0  0  0
  5  6  1  0  0  0
  5  7  1  0  0  0
  7 10  1  0  0  0
 10 11  1  0  0  0
 11 12  1  0  0  0
 11 13  2  0  0  0
  7  1  1  0  0  0
 17 18  1  0  0  0
  6  8  1  0  0  0
  6  9  1  0  0  0
 10 14  1  0  0  0
M  END
> <minimizedAffinity>
8.29642

> <CNNscore>
0.5767163634

> <CNNaffinity>
6.4134283066

> <CNN_VS>
3.6987290382

> <CNNaffinity_variance>
0.3845104575

$$$$
[H]OC(=O)C1=C([H])[C@@]([H])(O[C@@]([H])(C([H])([H])C([H])([H])[H])C([H])([H])C([H])([H])C([H])([H])C([H])([H])C([H])([H])C([H])([H])C([H])([H])[H])[C@]([H])(N([H])C(=O)C([H])([H])[H])[C@@]([H])(N([H])[H])C1([H])[H]


 29 29  0  0  0  0  0  0  0  0999 V2000
   22.7361    7.1341   52.5718 C   0  0  0  0  0  0  0  0  0  0  0  0
   22.7958    8.6364   52.7708 C   0  0  0  0  0  0  0  0  0  0  0  0
   21.7145    9.3462   52.4471 C   0  0  0  0  0  0  0  0  0  0  0  0
   20.5743    8.4936   51.9387 C   0  0  0  0  0  0  0  0  0  0  0  0
   20.2961    7.5281   53.0618 C   0  0  0  0  0  0  0  0  0  0  0  0
   19.7804    8.2528   54.2193 N   0  0  0  0  0  0  0  0  0  0  0  0
   21.5347    6.7476   53.4057 C   0  0  0  0  0  0  0  0  0  0  0  0
   19.5177    9.2307   53.9665 H   0  0  0  0  0  0  0  0  0  0  0  0
   18.9078    7.7542   54.5698 H   0  0  0  0  0  0  0  0  0  0  0  0
   21.1632    5.3551   53.3034 N   0  0  0  0  0  0  0  0  0  0  0  0
   19.8233    4.9141   53.3438 C   0  0  0  0  0  0  0  0  0  0  0  0
   19.4335    3.4884   53.2398 C   0  0  0  0  0  0  0  0  0  0  0  0
   18.9128    5.7680   53.4742 O   0  0  0  0  0  0  0  0  0  0  0  0
   21.9245    4.6540   53.1957 H   0  0  0  0  0  0  0  0  0  0  0  0
   21.5675   10.7658   52.5567 C   0  0  0  0  0  0  0  0  0  0  0  0
   21.4851   11.3726   53.6614 O   0  0  0  0  0  0  0  0  0  0  0  0
   21.5119   11.5238   51.3842 O   0  0  0  0  0  0  0  0  0  0  0  0
   21.9855   12.4314   51.4169 H   0  0  0  0  0  0  0  0  0  0  0  0
   23.9065    6.6065   52.9979 O   0  0  0  0  0  0  0  0  0  0  0  0
   24.2493    6.7705   54.3439 C   0  0  0  0  0  0  0  0  0  0  0  0
   23.9912    5.6116   55.2224 C   0  0  0  0  0  0  0  0  0  0  0  0
   22.6398    5.7488   55.9263 C   0  0  0  0  0  0  0  0  0  0  0  0
   25.5675    7.3808   54.5365 C   0  0  0  0  0  0  0  0  0  0  0  0
   26.2609    8.2145   53.5540 C   0  0  0  0  0  0  0  0  0  0  0  0
   27.6936    8.4574   53.7657 C   0  0  0  0  0  0  0  0  0  0  0  0
   28.1505    9.6668   52.8767 C   0  0  0  0  0  0  0  0  0  0  0  0
   27.7965    9.2474   51.4642 C   0  0  0  0  0  0  0  0  0  0  0  0
   28.0957    9.6100   49.0766 C   0  0  0  0  0  0  0  0  0  0  0  0
   28.3814   10.1693   50.4363 C   0  0  0  0  0  0  0  0  0  0  0  0
 28 29  1  0  0  0
 29 27  1  0  0  0
 27 26  1  0  0  0
 26 25  1  0  0  0
 25 24  1  0  0  0
 24 23  1  0  0  0
 23 20  1  0  0  0
 20 21  1  0  0  0
 21 22  1  0  0  0
 20 19  1  0  0  0
 19  1  1  0  0  0
  1  2  1  0  0  0
  2  3  2  0  0  0
  3 15  1  0  0  0
 15 16  2  0  0  0
 15 17  1  0  0  0
  3  4  1  0  0  0
  4  5  1  0  0  0
  5  6  1  0  0  0
  5  7  1  0  0  0
  7 10  1  0  0  0
 10 11  1  0  0  0
 11 12  1  0  0  0
 11 13  2  0  0  0
  7  1  1  0  0  0
 17 18  1  0  0  0
  6  8  1  0  0  0
  6  9  1  0  0  0
 10 14  1  0  0  0
M  END
> <minimizedAffinity>
9.63209

> <CNNscore>
0.5699452758

> <CNNaffinity>
6.3967170715

> <CNN_VS>
3.6457786560

> <CNNaffinity_variance>
0.4856423438

$$$$
[H]c1c([H])c(-c2c([H])c([H])c(C([H])(C(=O)N([H])C([H])([H])C([H])([H])C([H])([H])C([H])([H])C([H])([H])C([H])([H])N([H])c3c4c(nc5c([H])c([H])c([H])c([H])c35)C([H])([H])C([H])([H])C([H])([H])C4([H])[H])C([H])([H])[H])c([H])c2F)c([H])c([H])c1OC([H])([H])C([H])([H])C([H])([H])C([H])([H])C([H])([H])C([H])([H])O[N+](=O)[O-]


 52 56  0  0  0  0  0  0  0  0999 V2000
   21.9360   19.6738   53.2441 C   0  0  0  0  0  0  0  0  0  0  0  0
   23.0417   20.2281   52.3510 C   0  0  0  0  0  0  0  0  0  0  0  0
   22.7648   19.7671   50.9767 C   0  0  0  0  0  0  0  0  0  0  0  0
   21.8617   20.4585   50.2041 C   0  0  0  0  0  0  0  0  0  0  0  0
   21.5509   20.0545   48.9048 C   0  0  0  0  0  0  0  0  0  0  0  0
   22.1565   18.9507   48.3914 C   0  0  0  0  0  0  0  0  0  0  0  0
   23.0617   18.2456   49.1461 C   0  0  0  0  0  0  0  0  0  0  0  0
   23.6691   17.1405   48.6522 F   0  0  0  0  0  0  0  0  0  0  0  0
   23.3679   18.6582   50.4501 C   0  0  0  0  0  0  0  0  0  0  0  0
   21.8570   18.5108   47.0413 C   0  0  0  0  0  0  0  0  0  0  0  0
   22.0161   17.2007   46.6486 C   0  0  0  0  0  0  0  0  0  0  0  0
   21.7139   16.8022   45.3425 C   0  0  0  0  0  0  0  0  0  0  0  0
   21.2498   17.6763   44.3896 C   0  0  0  0  0  0  0  0  0  0  0  0
   21.0917   19.0134   44.8078 C   0  0  0  0  0  0  0  0  0  0  0  0
   21.3910   19.3866   46.0873 C   0  0  0  0  0  0  0  0  0  0  0  0
   20.9360   17.3689   43.0902 O   0  0  0  0  0  0  0  0  0  0  0  0
   21.1840   18.1398   41.9578 C   0  0  0  0  0  0  0  0  0  0  0  0
   20.3950   17.6287   40.7952 C   0  0  0  0  0  0  0  0  0  0  0  0
   20.7855   18.3456   39.5364 C   0  0  0  0  0  0  0  0  0  0  0  0
   20.7861   19.8203   39.7490 C   0  0  0  0  0  0  0  0  0  0  0  0
   21.9065   20.5264   39.0291 C   0  0  0  0  0  0  0  0  0  0  0  0
   22.3230   21.7394   39.8092 C   0  0  0  0  0  0  0  0  0  0  0  0
   22.3183   21.3967   41.2065 O   0  0  0  0  0  0  0  0  0  0  0  0
   23.5415   21.3955   41.8322 N   0  0  0  0  0  0  0  0  0  0  0  0
   23.6808   21.0693   43.0257 O   0  0  0  0  0  0  0  0  0  0  0  0
   24.6198   21.7799   41.0573 O   0  0  0  0  0  0  0  0  0  0  0  0
   24.3801   19.9340   52.8590 C   0  0  0  0  0  0  0  0  0  0  0  0
   25.4137   20.3786   52.2456 O   0  0  0  0  0  0  0  0  0  0  0  0
   24.6509   19.1709   54.0178 N   0  0  0  0  0  0  0  0  0  0  0  0
   23.8422   18.7892   54.5499 H   0  0  0  0  0  0  0  0  0  0  0  0
   25.9739   18.8939   54.5073 C   0  0  0  0  0  0  0  0  0  0  0  0
   26.3203   19.7110   55.7286 C   0  0  0  0  0  0  0  0  0  0  0  0
   27.4474   19.0430   56.4910 C   0  0  0  0  0  0  0  0  0  0  0  0
   27.6755   19.8727   57.7560 C   0  0  0  0  0  0  0  0  0  0  0  0
   29.0715   20.3603   57.8358 C   0  0  0  0  0  0  0  0  0  0  0  0
   29.4379   21.0647   59.0724 C   0  0  0  0  0  0  0  0  0  0  0  0
   30.1685   20.3814   60.0530 N   0  0  0  0  0  0  0  0  0  0  0  0
   30.2152   20.8708   61.0244 H   0  0  0  0  0  0  0  0  0  0  0  0
   30.8663   19.1723   60.0371 C   0  0  0  0  0  0  0  0  0  0  0  0
   32.2079   19.1629   59.7105 C   0  0  0  0  0  0  0  0  0  0  0  0
   32.9049   17.9777   59.7415 C   0  0  0  0  0  0  0  0  0  0  0  0
   32.2579   16.8309   60.0960 N   0  0  0  0  0  0  0  0  0  0  0  0
   30.9570   16.7974   60.4208 C   0  0  0  0  0  0  0  0  0  0  0  0
   30.3284   15.6288   60.7785 C   0  0  0  0  0  0  0  0  0  0  0  0
   29.0034   15.6107   61.1107 C   0  0  0  0  0  0  0  0  0  0  0  0
   28.3053   16.7999   61.0791 C   0  0  0  0  0  0  0  0  0  0  0  0
   28.9070   17.9732   60.7272 C   0  0  0  0  0  0  0  0  0  0  0  0
   30.2513   17.9818   60.3916 C   0  0  0  0  0  0  0  0  0  0  0  0
   34.3271   17.9629   59.3832 C   0  0  0  0  0  0  0  0  0  0  0  0
   35.0786   19.2180   59.6607 C   0  0  0  0  0  0  0  0  0  0  0  0
   34.2381   20.3648   60.1489 C   0  0  0  0  0  0  0  0  0  0  0  0
   32.9411   20.3964   59.3361 C   0  0  0  0  0  0  0  0  0  0  0  0
  1  2  1  0  0  0
  2 27  1  0  0  0
 27 28  2  0  0  0
 27 29  1  0  0  0
 29 31  1  0  0  0
 31 32  1  0  0  0
 32 33  1  0  0  0
 33 34  1  0  0  0
 34 35  1  0  0  0
 35 36  1  0  0  0
 36 37  1  0  0  0
 37 39  1  0  0  0
 39 40  2  0  0  0
 40 41  1  0  0  0
 41 42  2  0  0  0
 42 43  1  0  0  0
 43 44  2  0  0  0
 44 45  1  0  0  0
 45 46  2  0  0  0
 46 47  1  0  0  0
 47 48  2  0  0  0
 41 49  1  0  0  0
 49 50  1  0  0  0
 50 51  1  0  0  0
 51 52  1  0  0  0
  2  3  1  0  0  0
  3  4  2  0  0  0
  4  5  1  0  0  0
  5  6  2  0  0  0
  6 10  1  0  0  0
 10 11  2  0  0  0
 11 12  1  0  0  0
 12 13  2  0  0  0
 13 16  1  0  0  0
 16 17  1  0  0  0
 17 18  1  0  0  0
 18 19  1  0  0  0
 19 20  1  0  0  0
 20 21  1  0  0  0
 21 22  1  0  0  0
 22 23  1  0  0  0
 23 24  1  0  0  0
 24 25  2  0  0  0
 24 26  1  0  0  0
 13 14  1  0  0  0
 14 15  2  0  0  0
  6  7  1  0  0  0
  7  8  1  0  0  0
  7  9  2  0  0  0
 48 39  1  0  0  0
  9  3  1  0  0  0
 52 40  1  0  0  0
 15 10  1  0  0  0
 48 43  1  0  0  0
 29 30  1  0  0  0
 37 38  1  0  0  0
M  CHG 1  24   1
M  CHG 1  26  -1
M  END
> <minimizedAffinity>
-5.44347

> <CNNscore>
0.5984752774

> <CNNaffinity>
6.2278342247

> <CNN_VS>
3.7272047997

> <CNNaffinity_variance>
0.0242034234

$$$$
[H]c1c([H])c(-c2c([H])c([H])c(C([H])(C(=O)N([H])C([H])([H])C([H])([H])C([H])([H])C([H])([H])C([H])([H])C([H])([H])N([H])c3c4c(nc5c([H])c([H])c([H])c([H])c35)C([H])([H])C([H])([H])C([H])([H])C4([H])[H])C([H])([H])[H])c([H])c2F)c([H])c([H])c1OC([H])([H])C([H])([H])C([H])([H])C([H])([H])C([H])([H])C([H])([H])O[N+](=O)[O-]


 52 56  0  0  0  0  0  0  0  0999 V2000
   21.8493   19.5910   53.4265 C   0  0  0  0  0  0  0  0  0  0  0  0
   22.9074   20.2346   52.5355 C   0  0  0  0  0  0  0  0  0  0  0  0
   22.5637   19.9014   51.1396 C   0  0  0  0  0  0  0  0  0  0  0  0
   21.7683   20.7607   50.4189 C   0  0  0  0  0  0  0  0  0  0  0  0
   21.3995   20.4842   49.1014 C   0  0  0  0  0  0  0  0  0  0  0  0
   21.8380   19.3374   48.5174 C   0  0  0  0  0  0  0  0  0  0  0  0
   22.6335   18.4653   49.2195 C   0  0  0  0  0  0  0  0  0  0  0  0
   23.0736   17.3157   48.6547 F   0  0  0  0  0  0  0  0  0  0  0  0
   22.9990   18.7506   50.5420 C   0  0  0  0  0  0  0  0  0  0  0  0
   21.4751   19.0268   47.1471 C   0  0  0  0  0  0  0  0  0  0  0  0
   21.9776   17.9256   46.4909 C   0  0  0  0  0  0  0  0  0  0  0  0
   21.6062   17.6459   45.1718 C   0  0  0  0  0  0  0  0  0  0  0  0
   20.7350   18.4376   44.4635 C   0  0  0  0  0  0  0  0  0  0  0  0
   20.2289   19.5604   45.1497 C   0  0  0  0  0  0  0  0  0  0  0  0
   20.6013   19.8195   46.4382 C   0  0  0  0  0  0  0  0  0  0  0  0
   20.3247   18.2374   43.1700 O   0  0  0  0  0  0  0  0  0  0  0  0
   20.9833   17.5149   42.1788 C   0  0  0  0  0  0  0  0  0  0  0  0
   21.0167   18.2916   40.9016 C   0  0  0  0  0  0  0  0  0  0  0  0
   19.9800   19.3761   40.9162 C   0  0  0  0  0  0  0  0  0  0  0  0
   19.0333   19.2147   39.7769 C   0  0  0  0  0  0  0  0  0  0  0  0
   17.6060   19.0030   40.2127 C   0  0  0  0  0  0  0  0  0  0  0  0
   17.3951   17.5599   40.5680 C   0  0  0  0  0  0  0  0  0  0  0  0
   17.2942   16.8077   39.3459 O   0  0  0  0  0  0  0  0  0  0  0  0
   17.8930   15.5710   39.3464 N   0  0  0  0  0  0  0  0  0  0  0  0
   17.2392   14.5124   39.3034 O   0  0  0  0  0  0  0  0  0  0  0  0
   19.2744   15.5659   39.3981 O   0  0  0  0  0  0  0  0  0  0  0  0
   24.2703   19.9049   52.9471 C   0  0  0  0  0  0  0  0  0  0  0  0
   25.2706   20.4284   52.3407 O   0  0  0  0  0  0  0  0  0  0  0  0
   24.6012   19.0228   54.0011 N   0  0  0  0  0  0  0  0  0  0  0  0
   23.8213   18.5738   54.5236 H   0  0  0  0  0  0  0  0  0  0  0  0
   25.9477   18.7118   54.3969 C   0  0  0  0  0  0  0  0  0  0  0  0
   26.3783   19.4737   55.6271 C   0  0  0  0  0  0  0  0  0  0  0  0
   27.6812   18.9055   56.1536 C   0  0  0  0  0  0  0  0  0  0  0  0
   27.7946   19.3448   57.6147 C   0  0  0  0  0  0  0  0  0  0  0  0
   28.6680   20.5326   57.7538 C   0  0  0  0  0  0  0  0  0  0  0  0
   30.1117   20.2663   57.8193 C   0  0  0  0  0  0  0  0  0  0  0  0
   30.6858   19.9308   59.0522 N   0  0  0  0  0  0  0  0  0  0  0  0
   30.3207   20.4990   59.9060 H   0  0  0  0  0  0  0  0  0  0  0  0
   31.6550   18.9944   59.4170 C   0  0  0  0  0  0  0  0  0  0  0  0
   31.2722   17.8237   60.0410 C   0  0  0  0  0  0  0  0  0  0  0  0
   32.2230   16.8815   60.3569 C   0  0  0  0  0  0  0  0  0  0  0  0
   33.5292   17.1200   60.0465 N   0  0  0  0  0  0  0  0  0  0  0  0
   33.9421   18.2429   59.4402 C   0  0  0  0  0  0  0  0  0  0  0  0
   35.2645   18.4582   59.1345 C   0  0  0  0  0  0  0  0  0  0  0  0
   35.6698   19.6053   58.5132 C   0  0  0  0  0  0  0  0  0  0  0  0
   34.7154   20.5497   58.1971 C   0  0  0  0  0  0  0  0  0  0  0  0
   33.3963   20.3591   58.4904 C   0  0  0  0  0  0  0  0  0  0  0  0
   32.9946   19.1926   59.1208 C   0  0  0  0  0  0  0  0  0  0  0  0
   31.8206   15.6424   61.0308 C   0  0  0  0  0  0  0  0  0  0  0  0
   30.4400   15.1659   60.7412 C   0  0  0  0  0  0  0  0  0  0  0  0
   29.6121   16.0966   59.8997 C   0  0  0  0  0  0  0  0  0  0  0  0
   29.8578   17.5305   60.3769 C   0  0  0  0  0  0  0  0  0  0  0  0
  1  2  1  0  0  0
  2 27  1  0  0  0
 27 28  2  0  0  0
 27 29  1  0  0  0
 29 31  1  0  0  0
 31 32  1  0  0  0
 32 33  1  0  0  0
 33 34  1  0  0  0
 34 35  1  0  0  0
 35 36  1  0  0  0
 36 37  1  0  0  0
 37 39  1  0  0  0
 39 40  2  0  0  0
 40 41  1  0  0  0
 41 42  2  0  0  0
 42 43  1  0  0  0
 43 44  2  0  0  0
 44 45  1  0  0  0
 45 46  2  0  0  0
 46 47  1  0  0  0
 47 48  2  0  0  0
 41 49  1  0  0  0
 49 50  1  0  0  0
 50 51  1  0  0  0
 51 52  1  0  0  0
  2  3  1  0  0  0
  3  4  2  0  0  0
  4  5  1  0  0  0
  5  6  2  0  0  0
  6 10  1  0  0  0
 10 11  2  0  0  0
 11 12  1  0  0  0
 12 13  2  0  0  0
 13 16  1  0  0  0
 16 17  1  0  0  0
 17 18  1  0  0  0
 18 19  1  0  0  0
 19 20  1  0  0  0
 20 21  1  0  0  0
 21 22  1  0  0  0
 22 23  1  0  0  0
 23 24  1  0  0  0
 24 25  2  0  0  0
 24 26  1  0  0  0
 13 14  1  0  0  0
 14 15  2  0  0  0
  6  7  1  0  0  0
  7  8  1  0  0  0
  7  9  2  0  0  0
 48 39  1  0  0  0
  9  3  1  0  0  0
 52 40  1  0  0  0
 15 10  1  0  0  0
 48 43  1  0  0  0
 29 30  1  0  0  0
 37 38  1  0  0  0
M  CHG 1  24   1
M  CHG 1  26  -1
M  END
> <minimizedAffinity>
-4.93743

> <CNNscore>
0.5766997933

> <CNNaffinity>
6.1483469009

> <CNN_VS>
3.5457503796

> <CNNaffinity_variance>
0.0361982957

$$$$
[H]c1c([H])c(-c2c([H])c([H])c(C([H])(C(=O)N([H])C([H])([H])C([H])([H])C([H])([H])C([H])([H])C([H])([H])C([H])([H])N([H])c3c4c(nc5c([H])c([H])c([H])c([H])c35)C([H])([H])C([H])([H])C([H])([H])C4([H])[H])C([H])([H])[H])c([H])c2F)c([H])c([H])c1OC([H])([H])C([H])([H])C([H])([H])C([H])([H])C([H])([H])C([H])([H])O[N+](=O)[O-]


 52 56  0  0  0  0  0  0  0  0999 V2000
   28.1076    7.8855   63.5795 C   0  0  0  0  0  0  0  0  0  0  0  0
   28.6393    7.0194   62.4416 C   0  0  0  0  0  0  0  0  0  0  0  0
   28.2040    5.6346   62.7072 C   0  0  0  0  0  0  0  0  0  0  0  0
   28.3510    5.1136   63.9711 C   0  0  0  0  0  0  0  0  0  0  0  0
   27.9717    3.8043   64.2709 C   0  0  0  0  0  0  0  0  0  0  0  0
   27.4441    3.0259   63.2889 C   0  0  0  0  0  0  0  0  0  0  0  0
   27.2886    3.5267   62.0194 C   0  0  0  0  0  0  0  0  0  0  0  0
   26.7705    2.7628   61.0284 F   0  0  0  0  0  0  0  0  0  0  0  0
   27.6722    4.8425   61.7270 C   0  0  0  0  0  0  0  0  0  0  0  0
   27.0356    1.6627   63.5731 C   0  0  0  0  0  0  0  0  0  0  0  0
   25.7481    1.2263   63.3548 C   0  0  0  0  0  0  0  0  0  0  0  0
   25.3826   -0.0950   63.6315 C   0  0  0  0  0  0  0  0  0  0  0  0
   26.2681   -1.0202   64.1291 C   0  0  0  0  0  0  0  0  0  0  0  0
   27.5821   -0.5578   64.3462 C   0  0  0  0  0  0  0  0  0  0  0  0
   27.9233    0.7359   64.0705 C   0  0  0  0  0  0  0  0  0  0  0  0
   25.9902   -2.3290   64.4311 O   0  0  0  0  0  0  0  0  0  0  0  0
   25.8623   -3.3911   63.5403 C   0  0  0  0  0  0  0  0  0  0  0  0
   25.5384   -4.6526   64.2748 C   0  0  0  0  0  0  0  0  0  0  0  0
   24.4690   -4.4076   65.2981 C   0  0  0  0  0  0  0  0  0  0  0  0
   23.3243   -5.3400   65.0970 C   0  0  0  0  0  0  0  0  0  0  0  0
   21.9824   -4.6991   65.3431 C   0  0  0  0  0  0  0  0  0  0  0  0
   22.1763   -3.3258   65.9176 C   0  0  0  0  0  0  0  0  0  0  0  0
   22.7677   -2.4951   64.9028 O   0  0  0  0  0  0  0  0  0  0  0  0
   22.4345   -1.1627   64.9429 N   0  0  0  0  0  0  0  0  0  0  0  0
   22.6951   -0.4382   65.9213 O   0  0  0  0  0  0  0  0  0  0  0  0
   21.7876   -0.6653   63.8271 O   0  0  0  0  0  0  0  0  0  0  0  0
   30.0719    7.1994   62.2154 C   0  0  0  0  0  0  0  0  0  0  0  0
   30.8607    6.1899   62.2471 O   0  0  0  0  0  0  0  0  0  0  0  0
   30.6948    8.4407   61.9516 N   0  0  0  0  0  0  0  0  0  0  0  0
   30.0939    9.2895   61.9153 H   0  0  0  0  0  0  0  0  0  0  0  0
   32.1056    8.6009   61.7268 C   0  0  0  0  0  0  0  0  0  0  0  0
   32.5585   10.0311   61.8965 C   0  0  0  0  0  0  0  0  0  0  0  0
   31.4329   10.8603   62.4822 C   0  0  0  0  0  0  0  0  0  0  0  0
   31.3132   12.1151   61.6151 C   0  0  0  0  0  0  0  0  0  0  0  0
   32.6420   12.5832   61.1588 C   0  0  0  0  0  0  0  0  0  0  0  0
   32.8984   14.0240   61.2934 C   0  0  0  0  0  0  0  0  0  0  0  0
   32.3643   14.9014   60.3410 N   0  0  0  0  0  0  0  0  0  0  0  0
   32.2928   14.5039   59.3300 H   0  0  0  0  0  0  0  0  0  0  0  0
   31.8951   16.2135   60.4265 C   0  0  0  0  0  0  0  0  0  0  0  0
   32.7535   17.2635   60.1678 C   0  0  0  0  0  0  0  0  0  0  0  0
   32.2779   18.5534   60.2061 C   0  0  0  0  0  0  0  0  0  0  0  0
   30.9641   18.7729   60.4983 N   0  0  0  0  0  0  0  0  0  0  0  0
   30.0979   17.7815   60.7547 C   0  0  0  0  0  0  0  0  0  0  0  0
   28.7772   18.0285   61.0431 C   0  0  0  0  0  0  0  0  0  0  0  0
   27.9054   17.0080   61.2984 C   0  0  0  0  0  0  0  0  0  0  0  0
   28.3837   15.7148   61.2599 C   0  0  0  0  0  0  0  0  0  0  0  0
   29.6908   15.4439   60.9760 C   0  0  0  0  0  0  0  0  0  0  0  0
   30.5676   16.4854   60.7186 C   0  0  0  0  0  0  0  0  0  0  0  0
   33.1904   19.6713   59.9437 C   0  0  0  0  0  0  0  0  0  0  0  0
   34.3291   19.3778   59.0302 C   0  0  0  0  0  0  0  0  0  0  0  0
   34.4511   17.9391   58.6120 C   0  0  0  0  0  0  0  0  0  0  0  0
   34.1830   17.0545   59.8324 C   0  0  0  0  0  0  0  0  0  0  0  0
  1  2  1  0  0  0
  2 27  1  0  0  0
 27 28  2  0  0  0
 27 29  1  0  0  0
 29 31  1  0  0  0
 31 32  1  0  0  0
 32 33  1  0  0  0
 33 34  1  0  0  0
 34 35  1  0  0  0
 35 36  1  0  0  0
 36 37  1  0  0  0
 37 39  1  0  0  0
 39 40  2  0  0  0
 40 41  1  0  0  0
 41 42  2  0  0  0
 42 43  1  0  0  0
 43 44  2  0  0  0
 44 45  1  0  0  0
 45 46  2  0  0  0
 46 47  1  0  0  0
 47 48  2  0  0  0
 41 49  1  0  0  0
 49 50  1  0  0  0
 50 51  1  0  0  0
 51 52  1  0  0  0
  2  3  1  0  0  0
  3  4  2  0  0  0
  4  5  1  0  0  0
  5  6  2  0  0  0
  6 10  1  0  0  0
 10 11  2  0  0  0
 11 12  1  0  0  0
 12 13  2  0  0  0
 13 16  1  0  0  0
 16 17  1  0  0  0
 17 18  1  0  0  0
 18 19  1  0  0  0
 19 20  1  0  0  0
 20 21  1  0  0  0
 21 22  1  0  0  0
 22 23  1  0  0  0
 23 24  1  0  0  0
 24 25  2  0  0  0
 24 26  1  0  0  0
 13 14  1  0  0  0
 14 15  2  0  0  0
  6  7  1  0  0  0
  7  8  1  0  0  0
  7  9  2  0  0  0
 48 39  1  0  0  0
  9  3  1  0  0  0
 52 40  1  0  0  0
 15 10  1  0  0  0
 48 43  1  0  0  0
 29 30  1  0  0  0
 37 38  1  0  0  0
M  CHG 1  24   1
M  CHG 1  26  -1
M  END
> <minimizedAffinity>
1.04479

> <CNNscore>
0.5611076951

> <CNNaffinity>
6.0384140015

> <CNN_VS>
3.3882005215

> <CNNaffinity_variance>
0.6409626007

$$$$
[H]c1c([H])c(-c2c([H])c([H])c(C([H])(C(=O)N([H])C([H])([H])C([H])([H])C([H])([H])C([H])([H])C([H])([H])C([H])([H])N([H])c3c4c(nc5c([H])c([H])c([H])c([H])c35)C([H])([H])C([H])([H])C([H])([H])C4([H])[H])C([H])([H])[H])c([H])c2F)c([H])c([H])c1OC([H])([H])C([H])([H])C([H])([H])C([H])([H])C([H])([H])C([H])([H])O[N+](=O)[O-]


 52 56  0  0  0  0  0  0  0  0999 V2000
   23.2851   19.0762   53.5109 C   0  0  0  0  0  0  0  0  0  0  0  0
   24.6143   19.8251   53.5004 C   0  0  0  0  0  0  0  0  0  0  0  0
   24.9382   20.1193   52.0910 C   0  0  0  0  0  0  0  0  0  0  0  0
   24.1542   19.5864   51.0950 C   0  0  0  0  0  0  0  0  0  0  0  0
   24.4274   19.8192   49.7462 C   0  0  0  0  0  0  0  0  0  0  0  0
   25.4945   20.5918   49.4099 C   0  0  0  0  0  0  0  0  0  0  0  0
   26.2905   21.1338   50.3892 C   0  0  0  0  0  0  0  0  0  0  0  0
   27.3608   21.9003   50.0713 F   0  0  0  0  0  0  0  0  0  0  0  0
   26.0091   20.8949   51.7412 C   0  0  0  0  0  0  0  0  0  0  0  0
   25.7991   20.8554   48.0158 C   0  0  0  0  0  0  0  0  0  0  0  0
   26.8139   21.7061   47.6389 C   0  0  0  0  0  0  0  0  0  0  0  0
   27.0905   21.9376   46.2876 C   0  0  0  0  0  0  0  0  0  0  0  0
   26.3799   21.3428   45.2733 C   0  0  0  0  0  0  0  0  0  0  0  0
   25.3450   20.4742   45.6758 C   0  0  0  0  0  0  0  0  0  0  0  0
   25.0878   20.2584   47.0000 C   0  0  0  0  0  0  0  0  0  0  0  0
   26.5828   21.5194   43.9283 O   0  0  0  0  0  0  0  0  0  0  0  0
   25.6487   21.9307   42.9814 C   0  0  0  0  0  0  0  0  0  0  0  0
   25.9474   21.3153   41.6518 C   0  0  0  0  0  0  0  0  0  0  0  0
   24.6840   21.1129   40.8683 C   0  0  0  0  0  0  0  0  0  0  0  0
   23.5247   21.7333   41.5693 C   0  0  0  0  0  0  0  0  0  0  0  0
   22.2957   20.8606   41.5772 C   0  0  0  0  0  0  0  0  0  0  0  0
   22.3857   19.8716   42.7028 C   0  0  0  0  0  0  0  0  0  0  0  0
   21.1297   19.1754   42.7890 O   0  0  0  0  0  0  0  0  0  0  0  0
   20.9862   18.0843   41.9664 N   0  0  0  0  0  0  0  0  0  0  0  0
   21.2381   16.9251   42.3443 O   0  0  0  0  0  0  0  0  0  0  0  0
   20.5427   18.3460   40.6834 O   0  0  0  0  0  0  0  0  0  0  0  0
   25.6572   19.1373   54.2586 C   0  0  0  0  0  0  0  0  0  0  0  0
   26.2541   18.1205   53.7563 O   0  0  0  0  0  0  0  0  0  0  0  0
   26.0884   19.5084   55.5527 N   0  0  0  0  0  0  0  0  0  0  0  0
   25.6328   20.3294   56.0013 H   0  0  0  0  0  0  0  0  0  0  0  0
   27.1193   18.8238   56.2841 C   0  0  0  0  0  0  0  0  0  0  0  0
   28.0743   19.7756   56.9634 C   0  0  0  0  0  0  0  0  0  0  0  0
   27.3657   20.4947   58.0940 C   0  0  0  0  0  0  0  0  0  0  0  0
   28.0116   21.8768   58.2099 C   0  0  0  0  0  0  0  0  0  0  0  0
   29.1820   21.8501   59.1168 C   0  0  0  0  0  0  0  0  0  0  0  0
   30.1453   20.7630   58.8932 C   0  0  0  0  0  0  0  0  0  0  0  0
   30.6015   20.0224   59.9912 N   0  0  0  0  0  0  0  0  0  0  0  0
   29.8748   19.3381   60.4257 H   0  0  0  0  0  0  0  0  0  0  0  0
   31.8274   19.9835   60.6581 C   0  0  0  0  0  0  0  0  0  0  0  0
   32.9541   19.5463   59.9904 C   0  0  0  0  0  0  0  0  0  0  0  0
   34.1694   19.5534   60.6341 C   0  0  0  0  0  0  0  0  0  0  0  0
   34.2406   19.9942   61.9226 N   0  0  0  0  0  0  0  0  0  0  0  0
   33.1709   20.4276   62.6059 C   0  0  0  0  0  0  0  0  0  0  0  0
   33.2693   20.8706   63.9031 C   0  0  0  0  0  0  0  0  0  0  0  0
   32.1715   21.3130   64.5853 C   0  0  0  0  0  0  0  0  0  0  0  0
   30.9531   21.3051   63.9387 C   0  0  0  0  0  0  0  0  0  0  0  0
   30.8298   20.8699   62.6511 C   0  0  0  0  0  0  0  0  0  0  0  0
   31.9487   20.4229   61.9672 C   0  0  0  0  0  0  0  0  0  0  0  0
   35.3656   19.0780   59.9311 C   0  0  0  0  0  0  0  0  0  0  0  0
   35.3618   19.2548   58.4527 C   0  0  0  0  0  0  0  0  0  0  0  0
   34.0738   19.7778   57.8806 C   0  0  0  0  0  0  0  0  0  0  0  0
   32.9096   19.0758   58.5846 C   0  0  0  0  0  0  0  0  0  0  0  0
  1  2  1  0  0  0
  2 27  1  0  0  0
 27 28  2  0  0  0
 27 29  1  0  0  0
 29 31  1  0  0  0
 31 32  1  0  0  0
 32 33  1  0  0  0
 33 34  1  0  0  0
 34 35  1  0  0  0
 35 36  1  0  0  0
 36 37  1  0  0  0
 37 39  1  0  0  0
 39 40  2  0  0  0
 40 41  1  0  0  0
 41 42  2  0  0  0
 42 43  1  0  0  0
 43 44  2  0  0  0
 44 45  1  0  0  0
 45 46  2  0  0  0
 46 47  1  0  0  0
 47 48  2  0  0  0
 41 49  1  0  0  0
 49 50  1  0  0  0
 50 51  1  0  0  0
 51 52  1  0  0  0
  2  3  1  0  0  0
  3  4  2  0  0  0
  4  5  1  0  0  0
  5  6  2  0  0  0
  6 10  1  0  0  0
 10 11  2  0  0  0
 11 12  1  0  0  0
 12 13  2  0  0  0
 13 16  1  0  0  0
 16 17  1  0  0  0
 17 18  1  0  0  0
 18 19  1  0  0  0
 19 20  1  0  0  0
 20 21  1  0  0  0
 21 22  1  0  0  0
 22 23  1  0  0  0
 23 24  1  0  0  0
 24 25  2  0  0  0
 24 26  1  0  0  0
 13 14  1  0  0  0
 14 15  2  0  0  0
  6  7  1  0  0  0
  7  8  1  0  0  0
  7  9  2  0  0  0
 48 39  1  0  0  0
  9  3  1  0  0  0
 52 40  1  0  0  0
 15 10  1  0  0  0
 48 43  1  0  0  0
 29 30  1  0  0  0
 37 38  1  0  0  0
M  CHG 1  24   1
M  CHG 1  26  -1
M  END
> <minimizedAffinity>
-0.59675

> <CNNscore>
0.5546016097

> <CNNaffinity>
6.2255368233

> <CNN_VS>
3.4526927471

> <CNNaffinity_variance>
0.2283069640

$$$$
[H]c1c([H])c(-c2c([H])c([H])c(C([H])(C(=O)N([H])C([H])([H])C([H])([H])C([H])([H])C([H])([H])C([H])([H])C([H])([H])N([H])c3c4c(nc5c([H])c([H])c([H])c([H])c35)C([H])([H])C([H])([H])C([H])([H])C4([H])[H])C([H])([H])[H])c([H])c2F)c([H])c([H])c1OC([H])([H])C([H])([H])C([H])([H])C([H])([H])C([H])([H])C([H])([H])O[N+](=O)[O-]


 52 56  0  0  0  0  0  0  0  0999 V2000
   21.9597   19.6977   53.2643 C   0  0  0  0  0  0  0  0  0  0  0  0
   23.0847   20.2130   52.3718 C   0  0  0  0  0  0  0  0  0  0  0  0
   22.8091   19.7355   51.0029 C   0  0  0  0  0  0  0  0  0  0  0  0
   21.8885   20.4030   50.2299 C   0  0  0  0  0  0  0  0  0  0  0  0
   21.5785   19.9825   48.9356 C   0  0  0  0  0  0  0  0  0  0  0  0
   22.2023   18.8864   48.4277 C   0  0  0  0  0  0  0  0  0  0  0  0
   23.1252   18.2050   49.1830 C   0  0  0  0  0  0  0  0  0  0  0  0
   23.7509   17.1078   48.6945 F   0  0  0  0  0  0  0  0  0  0  0  0
   23.4306   18.6341   50.4818 C   0  0  0  0  0  0  0  0  0  0  0  0
   21.9039   18.4297   47.0829 C   0  0  0  0  0  0  0  0  0  0  0  0
   22.0400   17.1104   46.7134 C   0  0  0  0  0  0  0  0  0  0  0  0
   21.7393   16.6959   45.4119 C   0  0  0  0  0  0  0  0  0  0  0  0
   21.2994   17.5628   44.4411 C   0  0  0  0  0  0  0  0  0  0  0  0
   21.1647   18.9096   44.8357 C   0  0  0  0  0  0  0  0  0  0  0  0
   21.4621   19.2983   46.1110 C   0  0  0  0  0  0  0  0  0  0  0  0
   20.9890   17.2397   43.1447 O   0  0  0  0  0  0  0  0  0  0  0  0
   20.8910   15.9650   42.5936 C   0  0  0  0  0  0  0  0  0  0  0  0
   20.2189   16.0233   41.2593 C   0  0  0  0  0  0  0  0  0  0  0  0
   20.5011   17.3324   40.5829 C   0  0  0  0  0  0  0  0  0  0  0  0
   19.5136   17.5873   39.4966 C   0  0  0  0  0  0  0  0  0  0  0  0
   19.6262   18.9669   38.8998 C   0  0  0  0  0  0  0  0  0  0  0  0
   21.0696   19.2906   38.6445 C   0  0  0  0  0  0  0  0  0  0  0  0
   21.3747   20.5305   39.3071 O   0  0  0  0  0  0  0  0  0  0  0  0
   22.6361   20.6353   39.8417 N   0  0  0  0  0  0  0  0  0  0  0  0
   23.5271   21.3308   39.3195 O   0  0  0  0  0  0  0  0  0  0  0  0
   22.8646   19.9196   41.0020 O   0  0  0  0  0  0  0  0  0  0  0  0
   24.4120   19.8982   52.8960 C   0  0  0  0  0  0  0  0  0  0  0  0
   25.4603   20.2495   52.2480 O   0  0  0  0  0  0  0  0  0  0  0  0
   24.6564   19.2120   54.1076 N   0  0  0  0  0  0  0  0  0  0  0  0
   23.8351   18.9073   54.6692 H   0  0  0  0  0  0  0  0  0  0  0  0
   25.9690   18.9135   54.6122 C   0  0  0  0  0  0  0  0  0  0  0  0
   26.2622   19.6218   55.9129 C   0  0  0  0  0  0  0  0  0  0  0  0
   27.5844   19.1381   56.4746 C   0  0  0  0  0  0  0  0  0  0  0  0
   27.5296   19.3647   57.9866 C   0  0  0  0  0  0  0  0  0  0  0  0
   28.2892   20.5743   58.3779 C   0  0  0  0  0  0  0  0  0  0  0  0
   29.7517   20.4799   58.2680 C   0  0  0  0  0  0  0  0  0  0  0  0
   30.4959   20.1126   59.3965 N   0  0  0  0  0  0  0  0  0  0  0  0
   30.3400   20.7313   60.2786 H   0  0  0  0  0  0  0  0  0  0  0  0
   31.4196   19.0910   59.6249 C   0  0  0  0  0  0  0  0  0  0  0  0
   30.9989   17.9048   60.1925 C   0  0  0  0  0  0  0  0  0  0  0  0
   31.9006   16.8822   60.3731 C   0  0  0  0  0  0  0  0  0  0  0  0
   33.1964   17.0577   59.9865 N   0  0  0  0  0  0  0  0  0  0  0  0
   33.6450   18.1931   59.4310 C   0  0  0  0  0  0  0  0  0  0  0  0
   34.9556   18.3441   59.0462 C   0  0  0  0  0  0  0  0  0  0  0  0
   35.3973   19.5053   58.4780 C   0  0  0  0  0  0  0  0  0  0  0  0
   34.4921   20.5303   58.2975 C   0  0  0  0  0  0  0  0  0  0  0  0
   33.1856   20.4046   58.6714 C   0  0  0  0  0  0  0  0  0  0  0  0
   32.7468   19.2232   59.2472 C   0  0  0  0  0  0  0  0  0  0  0  0
   31.4590   15.6255   60.9872 C   0  0  0  0  0  0  0  0  0  0  0  0
   30.0321   15.2622   60.7658 C   0  0  0  0  0  0  0  0  0  0  0  0
   29.2164   16.3042   60.0525 C   0  0  0  0  0  0  0  0  0  0  0  0
   29.5932   17.6799   60.6086 C   0  0  0  0  0  0  0  0  0  0  0  0
  1  2  1  0  0  0
  2 27  1  0  0  0
 27 28  2  0  0  0
 27 29  1  0  0  0
 29 31  1  0  0  0
 31 32  1  0  0  0
 32 33  1  0  0  0
 33 34  1  0  0  0
 34 35  1  0  0  0
 35 36  1  0  0  0
 36 37  1  0  0  0
 37 39  1  0  0  0
 39 40  2  0  0  0
 40 41  1  0  0  0
 41 42  2  0  0  0
 42 43  1  0  0  0
 43 44  2  0  0  0
 44 45  1  0  0  0
 45 46  2  0  0  0
 46 47  1  0  0  0
 47 48  2  0  0  0
 41 49  1  0  0  0
 49 50  1  0  0  0
 50 51  1  0  0  0
 51 52  1  0  0  0
  2  3  1  0  0  0
  3  4  2  0  0  0
  4  5  1  0  0  0
  5  6  2  0  0  0
  6 10  1  0  0  0
 10 11  2  0  0  0
 11 12  1  0  0  0
 12 13  2  0  0  0
 13 16  1  0  0  0
 16 17  1  0  0  0
 17 18  1  0  0  0
 18 19  1  0  0  0
 19 20  1  0  0  0
 20 21  1  0  0  0
 21 22  1  0  0  0
 22 23  1  0  0  0
 23 24  1  0  0  0
 24 25  2  0  0  0
 24 26  1  0  0  0
 13 14  1  0  0  0
 14 15  2  0  0  0
  6  7  1  0  0  0
  7  8  1  0  0  0
  7  9  2  0  0  0
 48 39  1  0  0  0
  9  3  1  0  0  0
 52 40  1  0  0  0
 15 10  1  0  0  0
 48 43  1  0  0  0
 29 30  1  0  0  0
 37 38  1  0  0  0
M  CHG 1  24   1
M  CHG 1  26  -1
M  END
> <minimizedAffinity>
-5.21588

> <CNNscore>
0.5397068858

> <CNNaffinity>
6.1448264122

> <CNN_VS>
3.3164050579

> <CNNaffinity_variance>
0.0161558986

$$$$
[H]c1c([H])c(-c2c([H])c([H])c(C([H])(C(=O)N([H])C([H])([H])C([H])([H])C([H])([H])C([H])([H])C([H])([H])C([H])([H])N([H])c3c4c(nc5c([H])c([H])c([H])c([H])c35)C([H])([H])C([H])([H])C([H])([H])C4([H])[H])C([H])([H])[H])c([H])c2F)c([H])c([H])c1OC([H])([H])C([H])([H])C([H])([H])C([H])([H])C([H])([H])C([H])([H])O[N+](=O)[O-]


 52 56  0  0  0  0  0  0  0  0999 V2000
   23.6060   18.5522   53.4936 C   0  0  0  0  0  0  0  0  0  0  0  0
   24.8886   19.3771   53.4483 C   0  0  0  0  0  0  0  0  0  0  0  0
   25.1279   19.7345   52.0367 C   0  0  0  0  0  0  0  0  0  0  0  0
   24.4332   19.0771   51.0489 C   0  0  0  0  0  0  0  0  0  0  0  0
   24.6348   19.3646   49.6981 C   0  0  0  0  0  0  0  0  0  0  0  0
   25.5400   20.3180   49.3514 C   0  0  0  0  0  0  0  0  0  0  0  0
   26.2447   20.9867   50.3223 C   0  0  0  0  0  0  0  0  0  0  0  0
   27.1545   21.9347   49.9939 F   0  0  0  0  0  0  0  0  0  0  0  0
   26.0362   20.6917   51.6765 C   0  0  0  0  0  0  0  0  0  0  0  0
   25.7661   20.6418   47.9550 C   0  0  0  0  0  0  0  0  0  0  0  0
   26.7440   21.5271   47.5604 C   0  0  0  0  0  0  0  0  0  0  0  0
   26.9449   21.8166   46.2069 C   0  0  0  0  0  0  0  0  0  0  0  0
   26.1931   21.2473   45.2078 C   0  0  0  0  0  0  0  0  0  0  0  0
   25.1968   20.3427   45.6284 C   0  0  0  0  0  0  0  0  0  0  0  0
   25.0135   20.0704   46.9544 C   0  0  0  0  0  0  0  0  0  0  0  0
   26.3218   21.4802   43.8622 O   0  0  0  0  0  0  0  0  0  0  0  0
   25.3393   21.9358   42.9875 C   0  0  0  0  0  0  0  0  0  0  0  0
   25.5699   21.3918   41.6140 C   0  0  0  0  0  0  0  0  0  0  0  0
   24.2693   21.2385   40.8819 C   0  0  0  0  0  0  0  0  0  0  0  0
   23.1439   21.7916   41.6865 C   0  0  0  0  0  0  0  0  0  0  0  0
   21.8298   21.0994   41.4290 C   0  0  0  0  0  0  0  0  0  0  0  0
   20.9639   21.1884   42.6520 C   0  0  0  0  0  0  0  0  0  0  0  0
   20.3630   19.8996   42.8703 O   0  0  0  0  0  0  0  0  0  0  0  0
   19.1739   19.8962   43.5585 N   0  0  0  0  0  0  0  0  0  0  0  0
   18.0892   20.1834   43.0190 O   0  0  0  0  0  0  0  0  0  0  0  0
   19.2478   19.5535   44.8957 O   0  0  0  0  0  0  0  0  0  0  0  0
   26.0037   18.7272   54.1338 C   0  0  0  0  0  0  0  0  0  0  0  0
   26.5305   17.6665   53.6441 O   0  0  0  0  0  0  0  0  0  0  0  0
   26.5814   19.1827   55.3410 N   0  0  0  0  0  0  0  0  0  0  0  0
   26.1871   20.0418   55.7761 H   0  0  0  0  0  0  0  0  0  0  0  0
   27.6815   18.5343   56.0011 C   0  0  0  0  0  0  0  0  0  0  0  0
   28.4273   19.4636   56.9281 C   0  0  0  0  0  0  0  0  0  0  0  0
   27.4998   19.9494   58.0242 C   0  0  0  0  0  0  0  0  0  0  0  0
   27.8779   21.4043   58.3083 C   0  0  0  0  0  0  0  0  0  0  0  0
   29.1089   21.4909   59.1270 C   0  0  0  0  0  0  0  0  0  0  0  0
   30.2387   20.6639   58.6807 C   0  0  0  0  0  0  0  0  0  0  0  0
   30.8317   19.7765   59.5879 N   0  0  0  0  0  0  0  0  0  0  0  0
   30.5074   18.7405   59.5055 H   0  0  0  0  0  0  0  0  0  0  0  0
   31.7756   19.9550   60.6011 C   0  0  0  0  0  0  0  0  0  0  0  0
   31.3934   19.8214   61.9211 C   0  0  0  0  0  0  0  0  0  0  0  0
   32.3343   19.9507   62.9158 C   0  0  0  0  0  0  0  0  0  0  0  0
   33.6307   20.2078   62.5801 N   0  0  0  0  0  0  0  0  0  0  0  0
   34.0429   20.3437   61.3111 C   0  0  0  0  0  0  0  0  0  0  0  0
   35.3565   20.5991   60.9983 C   0  0  0  0  0  0  0  0  0  0  0  0
   35.7625   20.7311   59.7006 C   0  0  0  0  0  0  0  0  0  0  0  0
   34.8179   20.6014   58.7038 C   0  0  0  0  0  0  0  0  0  0  0  0
   33.5075   20.3480   58.9890 C   0  0  0  0  0  0  0  0  0  0  0  0
   33.1050   20.2158   60.3081 C   0  0  0  0  0  0  0  0  0  0  0  0
   31.9287   19.8215   64.3194 C   0  0  0  0  0  0  0  0  0  0  0  0
   30.7624   18.9326   64.5779 C   0  0  0  0  0  0  0  0  0  0  0  0
   30.0878   18.3982   63.3454 C   0  0  0  0  0  0  0  0  0  0  0  0
   29.9943   19.5269   62.3153 C   0  0  0  0  0  0  0  0  0  0  0  0
  1  2  1  0  0  0
  2 27  1  0  0  0
 27 28  2  0  0  0
 27 29  1  0  0  0
 29 31  1  0  0  0
 31 32  1  0  0  0
 32 33  1  0  0  0
 33 34  1  0  0  0
 34 35  1  0  0  0
 35 36  1  0  0  0
 36 37  1  0  0  0
 37 39  1  0  0  0
 39 40  2  0  0  0
 40 41  1  0  0  0
 41 42  2  0  0  0
 42 43  1  0  0  0
 43 44  2  0  0  0
 44 45  1  0  0  0
 45 46  2  0  0  0
 46 47  1  0  0  0
 47 48  2  0  0  0
 41 49  1  0  0  0
 49 50  1  0  0  0
 50 51  1  0  0  0
 51 52  1  0  0  0
  2  3  1  0  0  0
  3  4  2  0  0  0
  4  5  1  0  0  0
  5  6  2  0  0  0
  6 10  1  0  0  0
 10 11  2  0  0  0
 11 12  1  0  0  0
 12 13  2  0  0  0
 13 16  1  0  0  0
 16 17  1  0  0  0
 17 18  1  0  0  0
 18 19  1  0  0  0
 19 20  1  0  0  0
 20 21  1  0  0  0
 21 22  1  0  0  0
 22 23  1  0  0  0
 23 24  1  0  0  0
 24 25  2  0  0  0
 24 26  1  0  0  0
 13 14  1  0  0  0
 14 15  2  0  0  0
  6  7  1  0  0  0
  7  8  1  0  0  0
  7  9  2  0  0  0
 48 39  1  0  0  0
  9  3  1  0  0  0
 52 40  1  0  0  0
 15 10  1  0  0  0
 48 43  1  0  0  0
 29 30  1  0  0  0
 37 38  1  0  0  0
M  CHG 1  24   1
M  CHG 1  26  -1
M  END
> <minimizedAffinity>
-0.24815

> <CNNscore>
0.5361095667

> <CNNaffinity>
6.1781759262

> <CNN_VS>
3.3121793270

> <CNNaffinity_variance>
0.2615118623

$$$$
[H]c1c([H])c(-c2c([H])c([H])c(C([H])(C(=O)N([H])C([H])([H])C([H])([H])C([H])([H])C([H])([H])C([H])([H])C([H])([H])N([H])c3c4c(nc5c([H])c([H])c([H])c([H])c35)C([H])([H])C([H])([H])C([H])([H])C4([H])[H])C([H])([H])[H])c([H])c2F)c([H])c([H])c1OC([H])([H])C([H])([H])C([H])([H])C([H])([H])C([H])([H])C([H])([H])O[N+](=O)[O-]


 52 56  0  0  0  0  0  0  0  0999 V2000
   28.3485    7.5169   63.9287 C   0  0  0  0  0  0  0  0  0  0  0  0
   28.3542    6.8077   62.5779 C   0  0  0  0  0  0  0  0  0  0  0  0
   27.8759    5.4304   62.8062 C   0  0  0  0  0  0  0  0  0  0  0  0
   28.0674    4.8467   64.0363 C   0  0  0  0  0  0  0  0  0  0  0  0
   27.6499    3.5410   64.2990 C   0  0  0  0  0  0  0  0  0  0  0  0
   27.0390    2.8299   63.3142 C   0  0  0  0  0  0  0  0  0  0  0  0
   26.8378    3.3941   62.0782 C   0  0  0  0  0  0  0  0  0  0  0  0
   26.2366    2.6975   61.0845 F   0  0  0  0  0  0  0  0  0  0  0  0
   27.2603    4.7058   61.8229 C   0  0  0  0  0  0  0  0  0  0  0  0
   26.5893    1.4724   63.5605 C   0  0  0  0  0  0  0  0  0  0  0  0
   25.3009    1.0700   63.2891 C   0  0  0  0  0  0  0  0  0  0  0  0
   24.8954   -0.2466   63.5301 C   0  0  0  0  0  0  0  0  0  0  0  0
   25.7408   -1.2003   64.0434 C   0  0  0  0  0  0  0  0  0  0  0  0
   27.0564   -0.7725   64.3151 C   0  0  0  0  0  0  0  0  0  0  0  0
   27.4369    0.5170   64.0736 C   0  0  0  0  0  0  0  0  0  0  0  0
   25.4222   -2.5069   64.3131 O   0  0  0  0  0  0  0  0  0  0  0  0
   25.4349   -3.5786   63.4247 C   0  0  0  0  0  0  0  0  0  0  0  0
   25.3317   -4.8728   64.1663 C   0  0  0  0  0  0  0  0  0  0  0  0
   24.0638   -4.9226   64.9669 C   0  0  0  0  0  0  0  0  0  0  0  0
   23.2622   -6.1266   64.6092 C   0  0  0  0  0  0  0  0  0  0  0  0
   21.8050   -5.8238   64.3706 C   0  0  0  0  0  0  0  0  0  0  0  0
   21.5918   -4.3379   64.3675 C   0  0  0  0  0  0  0  0  0  0  0  0
   21.8104   -3.8567   63.0295 O   0  0  0  0  0  0  0  0  0  0  0  0
   21.4410   -2.5556   62.7875 N   0  0  0  0  0  0  0  0  0  0  0  0
   21.8628   -1.6036   63.4700 O   0  0  0  0  0  0  0  0  0  0  0  0
   20.5667   -2.3590   61.7348 O   0  0  0  0  0  0  0  0  0  0  0  0
   29.6343    6.9253   61.8827 C   0  0  0  0  0  0  0  0  0  0  0  0
   29.8845    6.1876   60.8651 O   0  0  0  0  0  0  0  0  0  0  0  0
   30.6674    7.8195   62.2452 N   0  0  0  0  0  0  0  0  0  0  0  0
   30.5093    8.4399   63.0655 H   0  0  0  0  0  0  0  0  0  0  0  0
   31.9201    7.9263   61.5480 C   0  0  0  0  0  0  0  0  0  0  0  0
   32.9245    8.7727   62.2924 C   0  0  0  0  0  0  0  0  0  0  0  0
   32.6073    8.7622   63.7746 C   0  0  0  0  0  0  0  0  0  0  0  0
   32.6752   10.2149   64.2496 C   0  0  0  0  0  0  0  0  0  0  0  0
   33.5842   11.0176   63.3997 C   0  0  0  0  0  0  0  0  0  0  0  0
   33.1730   12.4061   63.1492 C   0  0  0  0  0  0  0  0  0  0  0  0
   32.6359   12.7411   61.8996 N   0  0  0  0  0  0  0  0  0  0  0  0
   33.1781   12.3510   61.0399 H   0  0  0  0  0  0  0  0  0  0  0  0
   31.5208   13.4924   61.5236 C   0  0  0  0  0  0  0  0  0  0  0  0
   31.6801   14.8147   61.1594 C   0  0  0  0  0  0  0  0  0  0  0  0
   30.5878   15.5398   60.7439 C   0  0  0  0  0  0  0  0  0  0  0  0
   29.3647   14.9386   60.6978 N   0  0  0  0  0  0  0  0  0  0  0  0
   29.1678   13.6573   61.0420 C   0  0  0  0  0  0  0  0  0  0  0  0
   27.9253   13.0731   60.9833 C   0  0  0  0  0  0  0  0  0  0  0  0
   27.7406   11.7655   61.3335 C   0  0  0  0  0  0  0  0  0  0  0  0
   28.8367   11.0394   61.7502 C   0  0  0  0  0  0  0  0  0  0  0  0
   30.0805   11.5970   61.8171 C   0  0  0  0  0  0  0  0  0  0  0  0
   30.2582   12.9240   61.4601 C   0  0  0  0  0  0  0  0  0  0  0  0
   30.7521   16.9480   60.3680 C   0  0  0  0  0  0  0  0  0  0  0  0
   32.0838   17.3204   59.8158 C   0  0  0  0  0  0  0  0  0  0  0  0
   33.1111   16.2234   59.8454 C   0  0  0  0  0  0  0  0  0  0  0  0
   33.0000   15.4904   61.1849 C   0  0  0  0  0  0  0  0  0  0  0  0
  1  2  1  0  0  0
  2 27  1  0  0  0
 27 28  2  0  0  0
 27 29  1  0  0  0
 29 31  1  0  0  0
 31 32  1  0  0  0
 32 33  1  0  0  0
 33 34  1  0  0  0
 34 35  1  0  0  0
 35 36  1  0  0  0
 36 37  1  0  0  0
 37 39  1  0  0  0
 39 40  2  0  0  0
 40 41  1  0  0  0
 41 42  2  0  0  0
 42 43  1  0  0  0
 43 44  2  0  0  0
 44 45  1  0  0  0
 45 46  2  0  0  0
 46 47  1  0  0  0
 47 48  2  0  0  0
 41 49  1  0  0  0
 49 50  1  0  0  0
 50 51  1  0  0  0
 51 52  1  0  0  0
  2  3  1  0  0  0
  3  4  2  0  0  0
  4  5  1  0  0  0
  5  6  2  0  0  0
  6 10  1  0  0  0
 10 11  2  0  0  0
 11 12  1  0  0  0
 12 13  2  0  0  0
 13 16  1  0  0  0
 16 17  1  0  0  0
 17 18  1  0  0  0
 18 19  1  0  0  0
 19 20  1  0  0  0
 20 21  1  0  0  0
 21 22  1  0  0  0
 22 23  1  0  0  0
 23 24  1  0  0  0
 24 25  2  0  0  0
 24 26  1  0  0  0
 13 14  1  0  0  0
 14 15  2  0  0  0
  6  7  1  0  0  0
  7  8  1  0  0  0
  7  9  2  0  0  0
 48 39  1  0  0  0
  9  3  1  0  0  0
 52 40  1  0  0  0
 15 10  1  0  0  0
 48 43  1  0  0  0
 29 30  1  0  0  0
 37 38  1  0  0  0
M  CHG 1  24   1
M  CHG 1  26  -1
M  END
> <minimizedAffinity>
-0.13196

> <CNNscore>
0.5206263065

> <CNNaffinity>
6.3341455460

> <CNN_VS>
3.2977228165

> <CNNaffinity_variance>
0.0623411648

$$$$
[H]c1c([H])c(-c2c([H])c([H])c(C([H])(C(=O)N([H])C([H])([H])C([H])([H])C([H])([H])C([H])([H])C([H])([H])C([H])([H])N([H])c3c4c(nc5c([H])c([H])c([H])c([H])c35)C([H])([H])C([H])([H])C([H])([H])C4([H])[H])C([H])([H])[H])c([H])c2F)c([H])c([H])c1OC([H])([H])C([H])([H])C([H])([H])C([H])([H])C([H])([H])C([H])([H])O[N+](=O)[O-]


 52 56  0  0  0  0  0  0  0  0999 V2000
   21.9380   19.6791   53.2504 C   0  0  0  0  0  0  0  0  0  0  0  0
   23.0545   20.2089   52.3556 C   0  0  0  0  0  0  0  0  0  0  0  0
   22.7742   19.7405   50.9846 C   0  0  0  0  0  0  0  0  0  0  0  0
   21.8798   20.4358   50.2055 C   0  0  0  0  0  0  0  0  0  0  0  0
   21.5663   20.0253   48.9088 C   0  0  0  0  0  0  0  0  0  0  0  0
   22.1601   18.9109   48.4047 C   0  0  0  0  0  0  0  0  0  0  0  0
   23.0566   18.2017   49.1662 C   0  0  0  0  0  0  0  0  0  0  0  0
   23.6522   17.0861   48.6815 F   0  0  0  0  0  0  0  0  0  0  0  0
   23.3657   18.6208   50.4673 C   0  0  0  0  0  0  0  0  0  0  0  0
   21.8576   18.4639   47.0577 C   0  0  0  0  0  0  0  0  0  0  0  0
   22.0040   17.1495   46.6749 C   0  0  0  0  0  0  0  0  0  0  0  0
   21.6991   16.7443   45.3715 C   0  0  0  0  0  0  0  0  0  0  0  0
   21.2445   17.6158   44.4117 C   0  0  0  0  0  0  0  0  0  0  0  0
   21.0992   18.9575   44.8198 C   0  0  0  0  0  0  0  0  0  0  0  0
   21.4011   19.3372   46.0968 C   0  0  0  0  0  0  0  0  0  0  0  0
   20.9288   17.3018   43.1143 O   0  0  0  0  0  0  0  0  0  0  0  0
   21.0698   18.1135   41.9921 C   0  0  0  0  0  0  0  0  0  0  0  0
   20.4353   17.4714   40.8002 C   0  0  0  0  0  0  0  0  0  0  0  0
   19.9498   18.5129   39.8355 C   0  0  0  0  0  0  0  0  0  0  0  0
   19.2952   19.6378   40.5608 C   0  0  0  0  0  0  0  0  0  0  0  0
   17.8556   19.3632   40.9132 C   0  0  0  0  0  0  0  0  0  0  0  0
   17.6647   19.4941   42.3964 C   0  0  0  0  0  0  0  0  0  0  0  0
   16.9008   18.3632   42.8513 O   0  0  0  0  0  0  0  0  0  0  0  0
   15.8672   18.6396   43.7132 N   0  0  0  0  0  0  0  0  0  0  0  0
   14.8371   17.9423   43.7662 O   0  0  0  0  0  0  0  0  0  0  0  0
   16.0344   19.7451   44.5263 O   0  0  0  0  0  0  0  0  0  0  0  0
   24.3868   19.8988   52.8698 C   0  0  0  0  0  0  0  0  0  0  0  0
   25.4289   20.3183   52.2530 O   0  0  0  0  0  0  0  0  0  0  0  0
   24.6428   19.1460   54.0386 N   0  0  0  0  0  0  0  0  0  0  0  0
   23.8270   18.7845   54.5739 H   0  0  0  0  0  0  0  0  0  0  0  0
   25.9601   18.8529   54.5341 C   0  0  0  0  0  0  0  0  0  0  0  0
   26.2824   19.6103   55.7997 C   0  0  0  0  0  0  0  0  0  0  0  0
   27.5728   19.0860   56.3978 C   0  0  0  0  0  0  0  0  0  0  0  0
   27.7862   19.8383   57.7127 C   0  0  0  0  0  0  0  0  0  0  0  0
   29.1114   20.4983   57.7467 C   0  0  0  0  0  0  0  0  0  0  0  0
   29.4559   21.1872   58.9984 C   0  0  0  0  0  0  0  0  0  0  0  0
   30.2680   20.5325   59.9333 N   0  0  0  0  0  0  0  0  0  0  0  0
   30.4597   21.0852   60.8515 H   0  0  0  0  0  0  0  0  0  0  0  0
   30.8974   19.2863   59.9263 C   0  0  0  0  0  0  0  0  0  0  0  0
   32.2248   19.1942   59.5578 C   0  0  0  0  0  0  0  0  0  0  0  0
   32.8563   17.9731   59.5971 C   0  0  0  0  0  0  0  0  0  0  0  0
   32.1592   16.8730   60.0011 N   0  0  0  0  0  0  0  0  0  0  0  0
   30.8699   16.9198   60.3677 C   0  0  0  0  0  0  0  0  0  0  0  0
   30.1901   15.7970   60.7749 C   0  0  0  0  0  0  0  0  0  0  0  0
   28.8778   15.8608   61.1492 C   0  0  0  0  0  0  0  0  0  0  0  0
   28.2455   17.0860   61.1093 C   0  0  0  0  0  0  0  0  0  0  0  0
   28.8990   18.2152   60.7085 C   0  0  0  0  0  0  0  0  0  0  0  0
   30.2298   18.1408   60.3305 C   0  0  0  0  0  0  0  0  0  0  0  0
   34.2629   17.8704   59.1944 C   0  0  0  0  0  0  0  0  0  0  0  0
   35.0911   19.0879   59.4158 C   0  0  0  0  0  0  0  0  0  0  0  0
   34.3315   20.2911   59.9007 C   0  0  0  0  0  0  0  0  0  0  0  0
   33.0121   20.3756   59.1288 C   0  0  0  0  0  0  0  0  0  0  0  0
  1  2  1  0  0  0
  2 27  1  0  0  0
 27 28  2  0  0  0
 27 29  1  0  0  0
 29 31  1  0  0  0
 31 32  1  0  0  0
 32 33  1  0  0  0
 33 34  1  0  0  0
 34 35  1  0  0  0
 35 36  1  0  0  0
 36 37  1  0  0  0
 37 39  1  0  0  0
 39 40  2  0  0  0
 40 41  1  0  0  0
 41 42  2  0  0  0
 42 43  1  0  0  0
 43 44  2  0  0  0
 44 45  1  0  0  0
 45 46  2  0  0  0
 46 47  1  0  0  0
 47 48  2  0  0  0
 41 49  1  0  0  0
 49 50  1  0  0  0
 50 51  1  0  0  0
 51 52  1  0  0  0
  2  3  1  0  0  0
  3  4  2  0  0  0
  4  5  1  0  0  0
  5  6  2  0  0  0
  6 10  1  0  0  0
 10 11  2  0  0  0
 11 12  1  0  0  0
 12 13  2  0  0  0
 13 16  1  0  0  0
 16 17  1  0  0  0
 17 18  1  0  0  0
 18 19  1  0  0  0
 19 20  1  0  0  0
 20 21  1  0  0  0
 21 22  1  0  0  0
 22 23  1  0  0  0
 23 24  1  0  0  0
 24 25  2  0  0  0
 24 26  1  0  0  0
 13 14  1  0  0  0
 14 15  2  0  0  0
  6  7  1  0  0  0
  7  8  1  0  0  0
  7  9  2  0  0  0
 48 39  1  0  0  0
  9  3  1  0  0  0
 52 40  1  0  0  0
 15 10  1  0  0  0
 48 43  1  0  0  0
 29 30  1  0  0  0
 37 38  1  0  0  0
M  CHG 1  24   1
M  CHG 1  26  -1
M  END
> <minimizedAffinity>
-5.13247

> <CNNscore>
0.5170463324

> <CNNaffinity>
6.2900934219

> <CNN_VS>
3.2522697449

> <CNNaffinity_variance>
0.0715718865

$$$$
[H]c1c([H])c(-c2c([H])c([H])c(C([H])(C(=O)N([H])C([H])([H])C([H])([H])C([H])([H])C([H])([H])C([H])([H])C([H])([H])N([H])c3c4c(nc5c([H])c([H])c([H])c([H])c35)C([H])([H])C([H])([H])C([H])([H])C4([H])[H])C([H])([H])[H])c([H])c2F)c([H])c([H])c1OC([H])([H])C([H])([H])C([H])([H])C([H])([H])C([H])([H])C([H])([H])O[N+](=O)[O-]


 52 56  0  0  0  0  0  0  0  0999 V2000
   22.1799   19.7252   53.6548 C   0  0  0  0  0  0  0  0  0  0  0  0
   23.3305   20.0263   52.6992 C   0  0  0  0  0  0  0  0  0  0  0  0
   22.8307   19.7994   51.3293 C   0  0  0  0  0  0  0  0  0  0  0  0
   22.0092   20.7368   50.7488 C   0  0  0  0  0  0  0  0  0  0  0  0
   21.4953   20.5624   49.4629 C   0  0  0  0  0  0  0  0  0  0  0  0
   21.8154   19.4383   48.7682 C   0  0  0  0  0  0  0  0  0  0  0  0
   22.6345   18.4894   49.3294 C   0  0  0  0  0  0  0  0  0  0  0  0
   22.9580   17.3613   48.6535 F   0  0  0  0  0  0  0  0  0  0  0  0
   23.1461   18.6724   50.6213 C   0  0  0  0  0  0  0  0  0  0  0  0
   21.3002   19.2331   47.4271 C   0  0  0  0  0  0  0  0  0  0  0  0
   21.8316   18.2884   46.5780 C   0  0  0  0  0  0  0  0  0  0  0  0
   21.3117   18.1069   45.2924 C   0  0  0  0  0  0  0  0  0  0  0  0
   20.2603   18.8460   44.8070 C   0  0  0  0  0  0  0  0  0  0  0  0
   19.7272   19.8083   45.6888 C   0  0  0  0  0  0  0  0  0  0  0  0
   20.2461   19.9730   46.9416 C   0  0  0  0  0  0  0  0  0  0  0  0
   19.6964   18.7347   43.5616 O   0  0  0  0  0  0  0  0  0  0  0  0
   18.4967   19.2909   43.1263 C   0  0  0  0  0  0  0  0  0  0  0  0
   18.7395   20.2326   41.9906 C   0  0  0  0  0  0  0  0  0  0  0  0
   19.6752   19.6219   40.9894 C   0  0  0  0  0  0  0  0  0  0  0  0
   19.0048   18.5168   40.2481 C   0  0  0  0  0  0  0  0  0  0  0  0
   19.9685   17.6218   39.5116 C   0  0  0  0  0  0  0  0  0  0  0  0
   19.7950   16.2041   39.9737 C   0  0  0  0  0  0  0  0  0  0  0  0
   18.4085   16.0066   40.3026 O   0  0  0  0  0  0  0  0  0  0  0  0
   17.6441   15.3812   39.3475 N   0  0  0  0  0  0  0  0  0  0  0  0
   18.0626   14.4131   38.6857 O   0  0  0  0  0  0  0  0  0  0  0  0
   16.3728   15.8903   39.1589 O   0  0  0  0  0  0  0  0  0  0  0  0
   24.5582   19.3155   53.0502 C   0  0  0  0  0  0  0  0  0  0  0  0
   25.2622   18.7564   52.1368 O   0  0  0  0  0  0  0  0  0  0  0  0
   25.0637   19.1834   54.3637 N   0  0  0  0  0  0  0  0  0  0  0  0
   24.5260   19.6220   55.1392 H   0  0  0  0  0  0  0  0  0  0  0  0
   26.2760   18.4843   54.6924 C   0  0  0  0  0  0  0  0  0  0  0  0
   27.0996   19.2121   55.7275 C   0  0  0  0  0  0  0  0  0  0  0  0
   26.1871   19.9796   56.6633 C   0  0  0  0  0  0  0  0  0  0  0  0
   27.0163   20.3249   57.9018 C   0  0  0  0  0  0  0  0  0  0  0  0
   28.1592   21.2015   57.5575 C   0  0  0  0  0  0  0  0  0  0  0  0
   29.4680   20.5416   57.4521 C   0  0  0  0  0  0  0  0  0  0  0  0
   30.2132   20.3194   58.6172 N   0  0  0  0  0  0  0  0  0  0  0  0
   30.3056   21.1769   59.2815 H   0  0  0  0  0  0  0  0  0  0  0  0
   30.8781   19.1954   59.1109 C   0  0  0  0  0  0  0  0  0  0  0  0
   32.2336   19.0526   58.8901 C   0  0  0  0  0  0  0  0  0  0  0  0
   32.8960   17.9689   59.4175 C   0  0  0  0  0  0  0  0  0  0  0  0
   32.2014   17.0535   60.1516 N   0  0  0  0  0  0  0  0  0  0  0  0
   30.8854   17.1558   60.3898 C   0  0  0  0  0  0  0  0  0  0  0  0
   30.2084   16.2214   61.1363 C   0  0  0  0  0  0  0  0  0  0  0  0
   28.8684   16.3409   61.3739 C   0  0  0  0  0  0  0  0  0  0  0  0
   28.2050   17.4281   60.8442 C   0  0  0  0  0  0  0  0  0  0  0  0
   28.8551   18.3691   60.0997 C   0  0  0  0  0  0  0  0  0  0  0  0
   30.2142   18.2395   59.8637 C   0  0  0  0  0  0  0  0  0  0  0  0
   34.3335   17.8084   59.1742 C   0  0  0  0  0  0  0  0  0  0  0  0
   35.1037   19.0687   58.9855 C   0  0  0  0  0  0  0  0  0  0  0  0
   34.2710   20.3195   58.9424 C   0  0  0  0  0  0  0  0  0  0  0  0
   33.0177   20.0397   58.1089 C   0  0  0  0  0  0  0  0  0  0  0  0
  1  2  1  0  0  0
  2 27  1  0  0  0
 27 28  2  0  0  0
 27 29  1  0  0  0
 29 31  1  0  0  0
 31 32  1  0  0  0
 32 33  1  0  0  0
 33 34  1  0  0  0
 34 35  1  0  0  0
 35 36  1  0  0  0
 36 37  1  0  0  0
 37 39  1  0  0  0
 39 40  2  0  0  0
 40 41  1  0  0  0
 41 42  2  0  0  0
 42 43  1  0  0  0
 43 44  2  0  0  0
 44 45  1  0  0  0
 45 46  2  0  0  0
 46 47  1  0  0  0
 47 48  2  0  0  0
 41 49  1  0  0  0
 49 50  1  0  0  0
 50 51  1  0  0  0
 51 52  1  0  0  0
  2  3  1  0  0  0
  3  4  2  0  0  0
  4  5  1  0  0  0
  5  6  2  0  0  0
  6 10  1  0  0  0
 10 11  2  0  0  0
 11 12  1  0  0  0
 12 13  2  0  0  0
 13 16  1  0  0  0
 16 17  1  0  0  0
 17 18  1  0  0  0
 18 19  1  0  0  0
 19 20  1  0  0  0
 20 21  1  0  0  0
 21 22  1  0  0  0
 22 23  1  0  0  0
 23 24  1  0  0  0
 24 25  2  0  0  0
 24 26  1  0  0  0
 13 14  1  0  0  0
 14 15  2  0  0  0
  6  7  1  0  0  0
  7  8  1  0  0  0
  7  9  2  0  0  0
 48 39  1  0  0  0
  9  3  1  0  0  0
 52 40  1  0  0  0
 15 10  1  0  0  0
 48 43  1  0  0  0
 29 30  1  0  0  0
 37 38  1  0  0  0
M  CHG 1  24   1
M  CHG 1  26  -1
M  END
> <minimizedAffinity>
-5.08793

> <CNNscore>
0.5102428794

> <CNNaffinity>
6.2681365013

> <CNN_VS>
3.1982719898

> <CNNaffinity_variance>
0.0449444018

$$$$
[H]OC(=O)[C@@]([H])(N([H])[H])C([H])([H])OP(=O)(O[H])O[C@]1([H])C([H])([H])C([H])([H])C([H])([H])O[C@]1([H])C([H])([H])OC(=O)C([H])([H])C([H])([H])c1c([H])c([H])c([H])c([H])c1OC([H])([H])c1c([H])c([H])c([H])c(Oc2c([H])c([H])c(C([H])([H])[H])c([H])c2[H])c1[H]


 49 52  0  0  0  0  0  0  0  0999 V2000
   25.7936   13.3311   48.5616 C   0  0  0  0  0  0  0  0  0  0  0  0
   25.0072   12.3744   48.6556 O   0  0  0  0  0  0  0  0  0  0  0  0
   25.3331   14.4794   47.8744 O   0  0  0  0  0  0  0  0  0  0  0  0
   25.7041   15.7604   48.1354 C   0  0  0  0  0  0  0  0  0  0  0  0
   24.8427   16.8904   47.6582 C   0  0  0  0  0  0  0  0  0  0  0  0
   23.5023   16.6084   47.6716 O   0  0  0  0  0  0  0  0  0  0  0  0
   22.6602   17.6519   47.9646 C   0  0  0  0  0  0  0  0  0  0  0  0
   23.0877   18.9942   47.4622 C   0  0  0  0  0  0  0  0  0  0  0  0
   24.5326   19.2942   47.6497 C   0  0  0  0  0  0  0  0  0  0  0  0
   25.1653   18.1666   48.4462 C   0  0  0  0  0  0  0  0  0  0  0  0
   24.7600   18.1392   49.7472 O   0  0  0  0  0  0  0  0  0  0  0  0
   25.9708   18.1211   50.8936 P   0  0  0  0  0  0  0  0  0  0  0  0
   27.1191   17.2210   50.5777 O   0  0  0  0  0  0  0  0  0  0  0  0
   26.6349   19.6837   51.1205 O   0  0  0  0  0  0  0  0  0  0  0  0
   26.1307   20.1483   51.8058 H   0  0  0  0  0  0  0  0  0  0  0  0
   25.2516   17.7046   52.3823 O   0  0  0  0  0  0  0  0  0  0  0  0
   25.7182   18.4941   53.4300 C   0  0  0  0  0  0  0  0  0  0  0  0
   24.6633   19.5676   53.6484 C   0  0  0  0  0  0  0  0  0  0  0  0
   24.4285   19.6848   55.0598 N   0  0  0  0  0  0  0  0  0  0  0  0
   25.1144   20.2722   55.5389 H   0  0  0  0  0  0  0  0  0  0  0  0
   23.4440   19.8235   55.3221 H   0  0  0  0  0  0  0  0  0  0  0  0
   23.4494   19.3678   52.8516 C   0  0  0  0  0  0  0  0  0  0  0  0
   22.4047   18.9082   53.3617 O   0  0  0  0  0  0  0  0  0  0  0  0
   23.4392   19.6872   51.5074 O   0  0  0  0  0  0  0  0  0  0  0  0
   23.5059   20.5927   51.1066 H   0  0  0  0  0  0  0  0  0  0  0  0
   27.1481   13.3376   49.1038 C   0  0  0  0  0  0  0  0  0  0  0  0
   27.6383   12.1767   49.8654 C   0  0  0  0  0  0  0  0  0  0  0  0
   28.0670    9.7024   49.5624 C   0  0  0  0  0  0  0  0  0  0  0  0
   28.4028    8.6823   48.7144 C   0  0  0  0  0  0  0  0  0  0  0  0
   28.7982    8.8990   47.3880 C   0  0  0  0  0  0  0  0  0  0  0  0
   28.8427   10.1981   46.9429 C   0  0  0  0  0  0  0  0  0  0  0  0
   28.5088   11.2367   47.7699 C   0  0  0  0  0  0  0  0  0  0  0  0
   28.1182   11.0086   49.0771 C   0  0  0  0  0  0  0  0  0  0  0  0
   27.7034    9.4680   50.8427 O   0  0  0  0  0  0  0  0  0  0  0  0
   27.8847    8.4176   51.7000 C   0  0  0  0  0  0  0  0  0  0  0  0
   25.4825    8.9026   54.5912 C   0  0  0  0  0  0  0  0  0  0  0  0
   26.3383    8.9528   55.6945 C   0  0  0  0  0  0  0  0  0  0  0  0
   27.6803    8.8268   55.4312 C   0  0  0  0  0  0  0  0  0  0  0  0
   28.1643    8.6597   54.1552 C   0  0  0  0  0  0  0  0  0  0  0  0
   27.2943    8.6121   53.0769 C   0  0  0  0  0  0  0  0  0  0  0  0
   25.9575    8.7354   53.3140 C   0  0  0  0  0  0  0  0  0  0  0  0
   24.1324    9.0357   54.8706 O   0  0  0  0  0  0  0  0  0  0  0  0
   20.0721    5.6106   53.0757 C   0  0  0  0  0  0  0  0  0  0  0  0
   21.1471    6.5067   53.5454 C   0  0  0  0  0  0  0  0  0  0  0  0
   22.4164    5.9985   53.7874 C   0  0  0  0  0  0  0  0  0  0  0  0
   23.4054    6.8722   54.2322 C   0  0  0  0  0  0  0  0  0  0  0  0
   23.1555    8.2046   54.4344 C   0  0  0  0  0  0  0  0  0  0  0  0
   21.8720    8.6898   54.1837 C   0  0  0  0  0  0  0  0  0  0  0  0
   20.8711    7.8575   53.7433 C   0  0  0  0  0  0  0  0  0  0  0  0
 43 44  1  0  0  0
 44 45  2  0  0  0
 45 46  1  0  0  0
 46 47  2  0  0  0
 47 42  1  0  0  0
 42 36  1  0  0  0
 36 37  2  0  0  0
 37 38  1  0  0  0
 38 39  2  0  0  0
 39 40  1  0  0  0
 40 35  1  0  0  0
 35 34  1  0  0  0
 34 28  1  0  0  0
 28 29  2  0  0  0
 29 30  1  0  0  0
 30 31  2  0  0  0
 31 32  1  0  0  0
 32 33  2  0  0  0
 33 27  1  0  0  0
 27 26  1  0  0  0
 26  1  1  0  0  0
  1  2  2  0  0  0
  1  3  1  0  0  0
  3  4  1  0  0  0
  4  5  1  0  0  0
  5  6  1  0  0  0
  6  7  1  0  0  0
  7  8  1  0  0  0
  8  9  1  0  0  0
  9 10  1  0  0  0
 10 11  1  0  0  0
 11 12  1  0  0  0
 12 13  2  0  0  0
 12 14  1  0  0  0
 12 16  1  0  0  0
 16 17  1  0  0  0
 17 18  1  0  0  0
 18 19  1  0  0  0
 18 22  1  0  0  0
 22 23  2  0  0  0
 22 24  1  0  0  0
 40 41  2  0  0  0
 47 48  1  0  0  0
 48 49  2  0  0  0
 49 44  1  0  0  0
 41 36  1  0  0  0
 33 28  1  0  0  0
 10  5  1  0  0  0
 14 15  1  0  0  0
 19 20  1  0  0  0
 19 21  1  0  0  0
 24 25  1  0  0  0
M  END
> <minimizedAffinity>
15.73271

> <CNNscore>
0.6007409692

> <CNNaffinity>
6.0906167030

> <CNN_VS>
3.6588830948

> <CNNaffinity_variance>
0.2010682076

$$$$
[H]OC(=O)[C@@]([H])(N([H])[H])C([H])([H])OP(=O)(O[H])O[C@]1([H])C([H])([H])C([H])([H])C([H])([H])O[C@]1([H])C([H])([H])OC(=O)C([H])([H])C([H])([H])c1c([H])c([H])c([H])c([H])c1OC([H])([H])c1c([H])c([H])c([H])c(Oc2c([H])c([H])c(C([H])([H])[H])c([H])c2[H])c1[H]


 49 52  0  0  0  0  0  0  0  0999 V2000
   27.4474    9.4322   56.3716 C   0  0  0  0  0  0  0  0  0  0  0  0
   28.2832    9.2162   55.4787 O   0  0  0  0  0  0  0  0  0  0  0  0
   26.1083    9.6423   55.9646 O   0  0  0  0  0  0  0  0  0  0  0  0
   25.0173    9.0146   56.4769 C   0  0  0  0  0  0  0  0  0  0  0  0
   23.6485    9.5368   56.1600 C   0  0  0  0  0  0  0  0  0  0  0  0
   23.6522   10.6545   55.3682 O   0  0  0  0  0  0  0  0  0  0  0  0
   22.6158   10.7765   54.4766 C   0  0  0  0  0  0  0  0  0  0  0  0
   21.2940   10.2511   54.9391 C   0  0  0  0  0  0  0  0  0  0  0  0
   21.3589    8.9386   55.6361 C   0  0  0  0  0  0  0  0  0  0  0  0
   22.7839    8.4183   55.5643 C   0  0  0  0  0  0  0  0  0  0  0  0
   23.1498    8.0359   54.3083 O   0  0  0  0  0  0  0  0  0  0  0  0
   23.3966    6.4025   54.0804 P   0  0  0  0  0  0  0  0  0  0  0  0
   24.3245    6.0592   52.9625 O   0  0  0  0  0  0  0  0  0  0  0  0
   24.0473    5.6705   55.4856 O   0  0  0  0  0  0  0  0  0  0  0  0
   23.3218    5.3789   56.0587 H   0  0  0  0  0  0  0  0  0  0  0  0
   21.8658    5.6867   53.8536 O   0  0  0  0  0  0  0  0  0  0  0  0
   21.2763    6.0765   52.6540 C   0  0  0  0  0  0  0  0  0  0  0  0
   20.7807    7.4977   52.8724 C   0  0  0  0  0  0  0  0  0  0  0  0
   19.4760    7.4309   53.4676 N   0  0  0  0  0  0  0  0  0  0  0  0
   19.4974    7.2910   54.4800 H   0  0  0  0  0  0  0  0  0  0  0  0
   18.8064    8.1274   53.1156 H   0  0  0  0  0  0  0  0  0  0  0  0
   20.8514    8.3347   51.6713 C   0  0  0  0  0  0  0  0  0  0  0  0
   20.5500    7.8833   50.5451 O   0  0  0  0  0  0  0  0  0  0  0  0
   21.2578    9.6520   51.7643 O   0  0  0  0  0  0  0  0  0  0  0  0
   20.7754   10.3975   52.2075 H   0  0  0  0  0  0  0  0  0  0  0  0
   27.7622    9.4888   57.7952 C   0  0  0  0  0  0  0  0  0  0  0  0
   28.8469   10.3631   58.2717 C   0  0  0  0  0  0  0  0  0  0  0  0
   28.9734   10.5531   60.7908 C   0  0  0  0  0  0  0  0  0  0  0  0
   28.8474   11.3466   61.8984 C   0  0  0  0  0  0  0  0  0  0  0  0
   28.3710   12.6627   61.8370 C   0  0  0  0  0  0  0  0  0  0  0  0
   28.0225   13.1549   60.6025 C   0  0  0  0  0  0  0  0  0  0  0  0
   28.1418   12.3828   59.4783 C   0  0  0  0  0  0  0  0  0  0  0  0
   28.6155   11.0854   59.5526 C   0  0  0  0  0  0  0  0  0  0  0  0
   29.4213    9.2811   60.8785 O   0  0  0  0  0  0  0  0  0  0  0  0
   30.6674    8.7177   60.9139 C   0  0  0  0  0  0  0  0  0  0  0  0
   33.1104   11.6086   61.1138 C   0  0  0  0  0  0  0  0  0  0  0  0
   33.8516   11.3038   62.2584 C   0  0  0  0  0  0  0  0  0  0  0  0
   33.5107   10.1467   62.9150 C   0  0  0  0  0  0  0  0  0  0  0  0
   32.4969    9.3274   62.4779 C   0  0  0  0  0  0  0  0  0  0  0  0
   31.7753    9.6524   61.3398 C   0  0  0  0  0  0  0  0  0  0  0  0
   32.0962   10.7962   60.6709 C   0  0  0  0  0  0  0  0  0  0  0  0
   33.4678   12.7755   60.4588 O   0  0  0  0  0  0  0  0  0  0  0  0
   30.7057   17.6438   60.7912 C   0  0  0  0  0  0  0  0  0  0  0  0
   31.4405   16.3664   60.7035 C   0  0  0  0  0  0  0  0  0  0  0  0
   32.7337   16.3443   60.1985 C   0  0  0  0  0  0  0  0  0  0  0  0
   33.3958   15.1212   60.1279 C   0  0  0  0  0  0  0  0  0  0  0  0
   32.8057   13.9547   60.5396 C   0  0  0  0  0  0  0  0  0  0  0  0
   31.5058   14.0044   61.0431 C   0  0  0  0  0  0  0  0  0  0  0  0
   30.8218   15.1931   61.1284 C   0  0  0  0  0  0  0  0  0  0  0  0
 43 44  1  0  0  0
 44 45  2  0  0  0
 45 46  1  0  0  0
 46 47  2  0  0  0
 47 42  1  0  0  0
 42 36  1  0  0  0
 36 37  2  0  0  0
 37 38  1  0  0  0
 38 39  2  0  0  0
 39 40  1  0  0  0
 40 35  1  0  0  0
 35 34  1  0  0  0
 34 28  1  0  0  0
 28 29  2  0  0  0
 29 30  1  0  0  0
 30 31  2  0  0  0
 31 32  1  0  0  0
 32 33  2  0  0  0
 33 27  1  0  0  0
 27 26  1  0  0  0
 26  1  1  0  0  0
  1  2  2  0  0  0
  1  3  1  0  0  0
  3  4  1  0  0  0
  4  5  1  0  0  0
  5  6  1  0  0  0
  6  7  1  0  0  0
  7  8  1  0  0  0
  8  9  1  0  0  0
  9 10  1  0  0  0
 10 11  1  0  0  0
 11 12  1  0  0  0
 12 13  2  0  0  0
 12 14  1  0  0  0
 12 16  1  0  0  0
 16 17  1  0  0  0
 17 18  1  0  0  0
 18 19  1  0  0  0
 18 22  1  0  0  0
 22 23  2  0  0  0
 22 24  1  0  0  0
 40 41  2  0  0  0
 47 48  1  0  0  0
 48 49  2  0  0  0
 49 44  1  0  0  0
 41 36  1  0  0  0
 33 28  1  0  0  0
 10  5  1  0  0  0
 14 15  1  0  0  0
 19 20  1  0  0  0
 19 21  1  0  0  0
 24 25  1  0  0  0
M  END
> <minimizedAffinity>
0.14490

> <CNNscore>
0.6006471515

> <CNNaffinity>
6.5021705627

> <CNN_VS>
3.9055101871

> <CNNaffinity_variance>
0.3145038784

$$$$
[H]OC(=O)[C@@]([H])(N([H])[H])C([H])([H])OP(=O)(O[H])O[C@]1([H])C([H])([H])C([H])([H])C([H])([H])O[C@]1([H])C([H])([H])OC(=O)C([H])([H])C([H])([H])c1c([H])c([H])c([H])c([H])c1OC([H])([H])c1c([H])c([H])c([H])c(Oc2c([H])c([H])c(C([H])([H])[H])c([H])c2[H])c1[H]


 49 52  0  0  0  0  0  0  0  0999 V2000
   28.5164   10.4166   58.5793 C   0  0  0  0  0  0  0  0  0  0  0  0
   28.4315   11.4864   57.9542 O   0  0  0  0  0  0  0  0  0  0  0  0
   28.0649    9.2477   57.9216 O   0  0  0  0  0  0  0  0  0  0  0  0
   27.0327    9.1837   57.0399 C   0  0  0  0  0  0  0  0  0  0  0  0
   27.3204    9.0857   55.5722 C   0  0  0  0  0  0  0  0  0  0  0  0
   28.4093    8.3109   55.2722 O   0  0  0  0  0  0  0  0  0  0  0  0
   28.3456    7.5910   54.1053 C   0  0  0  0  0  0  0  0  0  0  0  0
   27.6214    8.2482   52.9737 C   0  0  0  0  0  0  0  0  0  0  0  0
   26.3496    8.9174   53.3577 C   0  0  0  0  0  0  0  0  0  0  0  0
   26.0659    8.6227   54.8203 C   0  0  0  0  0  0  0  0  0  0  0  0
   25.7251    7.3225   55.0464 O   0  0  0  0  0  0  0  0  0  0  0  0
   24.2547    6.8311   54.4324 P   0  0  0  0  0  0  0  0  0  0  0  0
   24.3116    6.2538   53.0569 O   0  0  0  0  0  0  0  0  0  0  0  0
   23.5354    5.6347   55.4250 O   0  0  0  0  0  0  0  0  0  0  0  0
   22.9944    6.0662   56.1039 H   0  0  0  0  0  0  0  0  0  0  0  0
   23.2062    8.1742   54.4950 O   0  0  0  0  0  0  0  0  0  0  0  0
   22.7472    8.5413   53.2328 C   0  0  0  0  0  0  0  0  0  0  0  0
   21.2304    8.5846   53.3343 C   0  0  0  0  0  0  0  0  0  0  0  0
   20.8721    8.5246   54.7232 N   0  0  0  0  0  0  0  0  0  0  0  0
   20.9218    9.4297   55.1956 H   0  0  0  0  0  0  0  0  0  0  0  0
   20.0488    7.9445   54.9304 H   0  0  0  0  0  0  0  0  0  0  0  0
   20.5578    7.5878   52.4963 C   0  0  0  0  0  0  0  0  0  0  0  0
   20.3030    7.8142   51.2935 O   0  0  0  0  0  0  0  0  0  0  0  0
   20.1890    6.3669   53.0278 O   0  0  0  0  0  0  0  0  0  0  0  0
   20.7920    5.6421   53.3376 H   0  0  0  0  0  0  0  0  0  0  0  0
   29.0400   10.2971   59.9359 C   0  0  0  0  0  0  0  0  0  0  0  0
   29.8166    9.1064   60.3196 C   0  0  0  0  0  0  0  0  0  0  0  0
   31.3821    8.4180   62.1832 C   0  0  0  0  0  0  0  0  0  0  0  0
   32.5575    8.6404   62.8474 C   0  0  0  0  0  0  0  0  0  0  0  0
   33.3811    9.7421   62.5814 C   0  0  0  0  0  0  0  0  0  0  0  0
   32.9706   10.6217   61.6090 C   0  0  0  0  0  0  0  0  0  0  0  0
   31.8003   10.4207   60.9276 C   0  0  0  0  0  0  0  0  0  0  0  0
   30.9973    9.3275   61.1987 C   0  0  0  0  0  0  0  0  0  0  0  0
   30.5975    7.3554   62.4690 O   0  0  0  0  0  0  0  0  0  0  0  0
   29.3426    6.9747   62.0798 C   0  0  0  0  0  0  0  0  0  0  0  0
   27.7387    3.6361   62.8838 C   0  0  0  0  0  0  0  0  0  0  0  0
   27.8257    3.5829   64.2773 C   0  0  0  0  0  0  0  0  0  0  0  0
   28.4113    4.6619   64.8931 C   0  0  0  0  0  0  0  0  0  0  0  0
   28.8890    5.7395   64.1853 C   0  0  0  0  0  0  0  0  0  0  0  0
   28.7918    5.7679   62.8027 C   0  0  0  0  0  0  0  0  0  0  0  0
   28.2138    4.7079   62.1695 C   0  0  0  0  0  0  0  0  0  0  0  0
   27.1418    2.5438   62.2763 O   0  0  0  0  0  0  0  0  0  0  0  0
   23.1555   -0.6597   64.5756 C   0  0  0  0  0  0  0  0  0  0  0  0
   24.2105    0.1769   63.9703 C   0  0  0  0  0  0  0  0  0  0  0  0
   25.5438   -0.1883   64.0998 C   0  0  0  0  0  0  0  0  0  0  0  0
   26.5125    0.6259   63.5183 C   0  0  0  0  0  0  0  0  0  0  0  0
   26.1823    1.7650   62.8313 C   0  0  0  0  0  0  0  0  0  0  0  0
   24.8355    2.1093   62.7157 C   0  0  0  0  0  0  0  0  0  0  0  0
   23.8521    1.3298   63.2758 C   0  0  0  0  0  0  0  0  0  0  0  0
 43 44  1  0  0  0
 44 45  2  0  0  0
 45 46  1  0  0  0
 46 47  2  0  0  0
 47 42  1  0  0  0
 42 36  1  0  0  0
 36 37  2  0  0  0
 37 38  1  0  0  0
 38 39  2  0  0  0
 39 40  1  0  0  0
 40 35  1  0  0  0
 35 34  1  0  0  0
 34 28  1  0  0  0
 28 29  2  0  0  0
 29 30  1  0  0  0
 30 31  2  0  0  0
 31 32  1  0  0  0
 32 33  2  0  0  0
 33 27  1  0  0  0
 27 26  1  0  0  0
 26  1  1  0  0  0
  1  2  2  0  0  0
  1  3  1  0  0  0
  3  4  1  0  0  0
  4  5  1  0  0  0
  5  6  1  0  0  0
  6  7  1  0  0  0
  7  8  1  0  0  0
  8  9  1  0  0  0
  9 10  1  0  0  0
 10 11  1  0  0  0
 11 12  1  0  0  0
 12 13  2  0  0  0
 12 14  1  0  0  0
 12 16  1  0  0  0
 16 17  1  0  0  0
 17 18  1  0  0  0
 18 19  1  0  0  0
 18 22  1  0  0  0
 22 23  2  0  0  0
 22 24  1  0  0  0
 40 41  2  0  0  0
 47 48  1  0  0  0
 48 49  2  0  0  0
 49 44  1  0  0  0
 41 36  1  0  0  0
 33 28  1  0  0  0
 10  5  1  0  0  0
 14 15  1  0  0  0
 19 20  1  0  0  0
 19 21  1  0  0  0
 24 25  1  0  0  0
M  END
> <minimizedAffinity>
-5.50704

> <CNNscore>
0.6006084085

> <CNNaffinity>
6.4816808701

> <CNN_VS>
3.8929519653

> <CNNaffinity_variance>
0.3749495745

$$$$
[H]OC(=O)[C@@]([H])(N([H])[H])C([H])([H])OP(=O)(O[H])O[C@]1([H])C([H])([H])C([H])([H])C([H])([H])O[C@]1([H])C([H])([H])OC(=O)C([H])([H])C([H])([H])c1c([H])c([H])c([H])c([H])c1OC([H])([H])c1c([H])c([H])c([H])c(Oc2c([H])c([H])c(C([H])([H])[H])c([H])c2[H])c1[H]


 49 52  0  0  0  0  0  0  0  0999 V2000
   27.4996    9.1665   56.1985 C   0  0  0  0  0  0  0  0  0  0  0  0
   28.2607    9.2364   55.2197 O   0  0  0  0  0  0  0  0  0  0  0  0
   28.0799    9.3247   57.4795 O   0  0  0  0  0  0  0  0  0  0  0  0
   28.3027   10.5092   58.1072 C   0  0  0  0  0  0  0  0  0  0  0  0
   28.7873   10.5135   59.5256 C   0  0  0  0  0  0  0  0  0  0  0  0
   30.1245   10.2461   59.6544 O   0  0  0  0  0  0  0  0  0  0  0  0
   30.7824   10.8908   60.6719 C   0  0  0  0  0  0  0  0  0  0  0  0
   29.9902   11.1144   61.9206 C   0  0  0  0  0  0  0  0  0  0  0  0
   28.5953   11.5787   61.6942 C   0  0  0  0  0  0  0  0  0  0  0  0
   28.4003   11.8312   60.2094 C   0  0  0  0  0  0  0  0  0  0  0  0
   29.0865   12.9190   59.7583 O   0  0  0  0  0  0  0  0  0  0  0  0
   28.9988   14.2879   60.7067 P   0  0  0  0  0  0  0  0  0  0  0  0
   27.7093   14.4612   61.4386 O   0  0  0  0  0  0  0  0  0  0  0  0
   30.2308   14.2992   61.8967 O   0  0  0  0  0  0  0  0  0  0  0  0
   31.0224   14.7240   61.5325 H   0  0  0  0  0  0  0  0  0  0  0  0
   29.3198   15.6239   59.6973 O   0  0  0  0  0  0  0  0  0  0  0  0
   29.2916   16.8282   60.3953 C   0  0  0  0  0  0  0  0  0  0  0  0
   30.5850   17.5471   60.0441 C   0  0  0  0  0  0  0  0  0  0  0  0
   31.6806   16.6657   60.3335 N   0  0  0  0  0  0  0  0  0  0  0  0
   31.8646   15.9880   59.5907 H   0  0  0  0  0  0  0  0  0  0  0  0
   32.5020   17.1228   60.7502 H   0  0  0  0  0  0  0  0  0  0  0  0
   30.7033   18.8740   60.6555 C   0  0  0  0  0  0  0  0  0  0  0  0
   31.5760   19.6872   60.2815 O   0  0  0  0  0  0  0  0  0  0  0  0
   29.8426   19.2527   61.6678 O   0  0  0  0  0  0  0  0  0  0  0  0
   28.8666   19.4171   61.5937 H   0  0  0  0  0  0  0  0  0  0  0  0
   26.0632    8.9266   56.1068 C   0  0  0  0  0  0  0  0  0  0  0  0
   25.3764    9.0756   54.8130 C   0  0  0  0  0  0  0  0  0  0  0  0
   22.9124    8.7020   54.3810 C   0  0  0  0  0  0  0  0  0  0  0  0
   21.9193    7.8285   54.0297 C   0  0  0  0  0  0  0  0  0  0  0  0
   22.1430    6.4559   53.8600 C   0  0  0  0  0  0  0  0  0  0  0  0
   23.4204    5.9912   54.0597 C   0  0  0  0  0  0  0  0  0  0  0  0
   24.4326    6.8444   54.4088 C   0  0  0  0  0  0  0  0  0  0  0  0
   24.1986    8.1980   54.5713 C   0  0  0  0  0  0  0  0  0  0  0  0
   22.6677   10.0198   54.5536 O   0  0  0  0  0  0  0  0  0  0  0  0
   21.5425   10.7925   54.4624 C   0  0  0  0  0  0  0  0  0  0  0  0
   20.9421   13.5705   51.9550 C   0  0  0  0  0  0  0  0  0  0  0  0
   21.2630   12.9602   50.7398 C   0  0  0  0  0  0  0  0  0  0  0  0
   21.6627   11.6477   50.8038 C   0  0  0  0  0  0  0  0  0  0  0  0
   21.7460   10.9641   51.9937 C   0  0  0  0  0  0  0  0  0  0  0  0
   21.4230   11.5926   53.1864 C   0  0  0  0  0  0  0  0  0  0  0  0
   21.0231   12.8953   53.1476 C   0  0  0  0  0  0  0  0  0  0  0  0
   20.5360   14.8924   51.8753 O   0  0  0  0  0  0  0  0  0  0  0  0
   23.4217   19.0498   49.4610 C   0  0  0  0  0  0  0  0  0  0  0  0
   22.6629   17.9504   50.0894 C   0  0  0  0  0  0  0  0  0  0  0  0
   22.0548   16.9865   49.2963 C   0  0  0  0  0  0  0  0  0  0  0  0
   21.3449   15.9654   49.9230 C   0  0  0  0  0  0  0  0  0  0  0  0
   21.2344   15.8933   51.2873 C   0  0  0  0  0  0  0  0  0  0  0  0
   21.8549   16.8741   52.0611 C   0  0  0  0  0  0  0  0  0  0  0  0
   22.5643   17.8962   51.4777 C   0  0  0  0  0  0  0  0  0  0  0  0
 43 44  1  0  0  0
 44 45  2  0  0  0
 45 46  1  0  0  0
 46 47  2  0  0  0
 47 42  1  0  0  0
 42 36  1  0  0  0
 36 37  2  0  0  0
 37 38  1  0  0  0
 38 39  2  0  0  0
 39 40  1  0  0  0
 40 35  1  0  0  0
 35 34  1  0  0  0
 34 28  1  0  0  0
 28 29  2  0  0  0
 29 30  1  0  0  0
 30 31  2  0  0  0
 31 32  1  0  0  0
 32 33  2  0  0  0
 33 27  1  0  0  0
 27 26  1  0  0  0
 26  1  1  0  0  0
  1  2  2  0  0  0
  1  3  1  0  0  0
  3  4  1  0  0  0
  4  5  1  0  0  0
  5  6  1  0  0  0
  6  7  1  0  0  0
  7  8  1  0  0  0
  8  9  1  0  0  0
  9 10  1  0  0  0
 10 11  1  0  0  0
 11 12  1  0  0  0
 12 13  2  0  0  0
 12 14  1  0  0  0
 12 16  1  0  0  0
 16 17  1  0  0  0
 17 18  1  0  0  0
 18 19  1  0  0  0
 18 22  1  0  0  0
 22 23  2  0  0  0
 22 24  1  0  0  0
 40 41  2  0  0  0
 47 48  1  0  0  0
 48 49  2  0  0  0
 49 44  1  0  0  0
 41 36  1  0  0  0
 33 28  1  0  0  0
 10  5  1  0  0  0
 14 15  1  0  0  0
 19 20  1  0  0  0
 19 21  1  0  0  0
 24 25  1  0  0  0
M  END
> <minimizedAffinity>
7.50695

> <CNNscore>
0.5843634009

> <CNNaffinity>
6.2073717117

> <CNN_VS>
3.6273608208

> <CNNaffinity_variance>
0.1085292101

$$$$
[H]OC(=O)[C@@]([H])(N([H])[H])C([H])([H])OP(=O)(O[H])O[C@]1([H])C([H])([H])C([H])([H])C([H])([H])O[C@]1([H])C([H])([H])OC(=O)C([H])([H])C([H])([H])c1c([H])c([H])c([H])c([H])c1OC([H])([H])c1c([H])c([H])c([H])c(Oc2c([H])c([H])c(C([H])([H])[H])c([H])c2[H])c1[H]


 49 52  0  0  0  0  0  0  0  0999 V2000
   26.0685    9.1689   55.7072 C   0  0  0  0  0  0  0  0  0  0  0  0
   26.6584    8.7400   54.7020 O   0  0  0  0  0  0  0  0  0  0  0  0
   26.8705    9.6156   56.7843 O   0  0  0  0  0  0  0  0  0  0  0  0
   27.6426    8.8267   57.5769 C   0  0  0  0  0  0  0  0  0  0  0  0
   28.5789    9.4602   58.5611 C   0  0  0  0  0  0  0  0  0  0  0  0
   27.9676   10.3278   59.4271 O   0  0  0  0  0  0  0  0  0  0  0  0
   28.4772   10.3823   60.7004 C   0  0  0  0  0  0  0  0  0  0  0  0
   29.9576   10.2041   60.8173 C   0  0  0  0  0  0  0  0  0  0  0  0
   30.5189    9.1159   59.9726 C   0  0  0  0  0  0  0  0  0  0  0  0
   29.3729    8.3776   59.3035 C   0  0  0  0  0  0  0  0  0  0  0  0
   28.6316    7.6389   60.1767 O   0  0  0  0  0  0  0  0  0  0  0  0
   29.4617    6.9607   61.4541 P   0  0  0  0  0  0  0  0  0  0  0  0
   30.9462    7.1002   61.3812 O   0  0  0  0  0  0  0  0  0  0  0  0
   28.9872    7.6593   62.9444 O   0  0  0  0  0  0  0  0  0  0  0  0
   28.2336    7.1658   63.3026 H   0  0  0  0  0  0  0  0  0  0  0  0
   28.9996    5.3220   61.5446 O   0  0  0  0  0  0  0  0  0  0  0  0
   27.7791    5.1557   62.1936 C   0  0  0  0  0  0  0  0  0  0  0  0
   28.0960    4.4719   63.5145 C   0  0  0  0  0  0  0  0  0  0  0  0
   29.0188    5.3001   64.2380 N   0  0  0  0  0  0  0  0  0  0  0  0
   28.5673    6.0615   64.7494 H   0  0  0  0  0  0  0  0  0  0  0  0
   29.7567    4.7873   64.7377 H   0  0  0  0  0  0  0  0  0  0  0  0
   28.5279    3.0792   63.3652 C   0  0  0  0  0  0  0  0  0  0  0  0
   28.7511    2.3569   64.3609 O   0  0  0  0  0  0  0  0  0  0  0  0
   28.6984    2.5349   62.1068 O   0  0  0  0  0  0  0  0  0  0  0  0
   27.9924    2.3467   61.4352 H   0  0  0  0  0  0  0  0  0  0  0  0
   24.6171    9.2314   55.8438 C   0  0  0  0  0  0  0  0  0  0  0  0
   23.8149    9.9332   54.8280 C   0  0  0  0  0  0  0  0  0  0  0  0
   21.7601    9.7771   53.3613 C   0  0  0  0  0  0  0  0  0  0  0  0
   20.8071    8.9807   52.7869 C   0  0  0  0  0  0  0  0  0  0  0  0
   20.6937    7.6128   53.0675 C   0  0  0  0  0  0  0  0  0  0  0  0
   21.5877    7.0712   53.9592 C   0  0  0  0  0  0  0  0  0  0  0  0
   22.5526    7.8453   54.5455 C   0  0  0  0  0  0  0  0  0  0  0  0
   22.6549    9.1945   54.2582 C   0  0  0  0  0  0  0  0  0  0  0  0
   21.8391   11.0977   53.0855 O   0  0  0  0  0  0  0  0  0  0  0  0
   22.0280   11.8139   51.9354 C   0  0  0  0  0  0  0  0  0  0  0  0
   20.9955   15.3456   51.0265 C   0  0  0  0  0  0  0  0  0  0  0  0
   20.0164   15.6330   51.9810 C   0  0  0  0  0  0  0  0  0  0  0  0
   19.7422   14.6411   52.8907 C   0  0  0  0  0  0  0  0  0  0  0  0
   20.3901   13.4287   52.8705 C   0  0  0  0  0  0  0  0  0  0  0  0
   21.3572   13.1673   51.9123 C   0  0  0  0  0  0  0  0  0  0  0  0
   21.6466   14.1373   50.9990 C   0  0  0  0  0  0  0  0  0  0  0  0
   21.2653   16.3562   50.1186 O   0  0  0  0  0  0  0  0  0  0  0  0
   25.7755   19.6863   50.2114 C   0  0  0  0  0  0  0  0  0  0  0  0
   24.5843   18.8144   50.1932 C   0  0  0  0  0  0  0  0  0  0  0  0
   23.7372   18.7758   51.2926 C   0  0  0  0  0  0  0  0  0  0  0  0
   22.6245   17.9400   51.2416 C   0  0  0  0  0  0  0  0  0  0  0  0
   22.3522   17.1645   50.1448 C   0  0  0  0  0  0  0  0  0  0  0  0
   23.2191   17.2219   49.0535 C   0  0  0  0  0  0  0  0  0  0  0  0
   24.3264   18.0354   49.0677 C   0  0  0  0  0  0  0  0  0  0  0  0
 43 44  1  0  0  0
 44 45  2  0  0  0
 45 46  1  0  0  0
 46 47  2  0  0  0
 47 42  1  0  0  0
 42 36  1  0  0  0
 36 37  2  0  0  0
 37 38  1  0  0  0
 38 39  2  0  0  0
 39 40  1  0  0  0
 40 35  1  0  0  0
 35 34  1  0  0  0
 34 28  1  0  0  0
 28 29  2  0  0  0
 29 30  1  0  0  0
 30 31  2  0  0  0
 31 32  1  0  0  0
 32 33  2  0  0  0
 33 27  1  0  0  0
 27 26  1  0  0  0
 26  1  1  0  0  0
  1  2  2  0  0  0
  1  3  1  0  0  0
  3  4  1  0  0  0
  4  5  1  0  0  0
  5  6  1  0  0  0
  6  7  1  0  0  0
  7  8  1  0  0  0
  8  9  1  0  0  0
  9 10  1  0  0  0
 10 11  1  0  0  0
 11 12  1  0  0  0
 12 13  2  0  0  0
 12 14  1  0  0  0
 12 16  1  0  0  0
 16 17  1  0  0  0
 17 18  1  0  0  0
 18 19  1  0  0  0
 18 22  1  0  0  0
 22 23  2  0  0  0
 22 24  1  0  0  0
 40 41  2  0  0  0
 47 48  1  0  0  0
 48 49  2  0  0  0
 49 44  1  0  0  0
 41 36  1  0  0  0
 33 28  1  0  0  0
 10  5  1  0  0  0
 14 15  1  0  0  0
 19 20  1  0  0  0
 19 21  1  0  0  0
 24 25  1  0  0  0
M  END
> <minimizedAffinity>
10.73508

> <CNNscore>
0.5802902579

> <CNNaffinity>
5.8653893471

> <CNN_VS>
3.4036283493

> <CNNaffinity_variance>
0.1388191730

$$$$
[H]OC(=O)[C@@]([H])(N([H])[H])C([H])([H])OP(=O)(O[H])O[C@]1([H])C([H])([H])C([H])([H])C([H])([H])O[C@]1([H])C([H])([H])OC(=O)C([H])([H])C([H])([H])c1c([H])c([H])c([H])c([H])c1OC([H])([H])c1c([H])c([H])c([H])c(Oc2c([H])c([H])c(C([H])([H])[H])c([H])c2[H])c1[H]


 49 52  0  0  0  0  0  0  0  0999 V2000
   21.5964   10.9692   52.5059 C   0  0  0  0  0  0  0  0  0  0  0  0
   21.3255   10.1209   51.6403 O   0  0  0  0  0  0  0  0  0  0  0  0
   22.2775   12.1334   52.0773 O   0  0  0  0  0  0  0  0  0  0  0  0
   21.8804   12.9587   51.0733 C   0  0  0  0  0  0  0  0  0  0  0  0
   20.7493   13.9140   51.3065 C   0  0  0  0  0  0  0  0  0  0  0  0
   20.4243   14.0750   52.6274 O   0  0  0  0  0  0  0  0  0  0  0  0
   19.9962   15.3233   53.0047 C   0  0  0  0  0  0  0  0  0  0  0  0
   19.1896   16.0692   51.9898 C   0  0  0  0  0  0  0  0  0  0  0  0
   19.7155   15.9894   50.6006 C   0  0  0  0  0  0  0  0  0  0  0  0
   21.0449   15.2557   50.6239 C   0  0  0  0  0  0  0  0  0  0  0  0
   22.0417   15.9757   51.2118 O   0  0  0  0  0  0  0  0  0  0  0  0
   22.5561   17.3293   50.3847 P   0  0  0  0  0  0  0  0  0  0  0  0
   22.2331   18.6279   51.0462 O   0  0  0  0  0  0  0  0  0  0  0  0
   24.2545   17.3136   50.1627 O   0  0  0  0  0  0  0  0  0  0  0  0
   24.4642   16.8521   49.3364 H   0  0  0  0  0  0  0  0  0  0  0  0
   21.8853   17.2506   48.8192 O   0  0  0  0  0  0  0  0  0  0  0  0
   22.8084   17.5927   47.8346 C   0  0  0  0  0  0  0  0  0  0  0  0
   22.1927   18.7524   47.0671 C   0  0  0  0  0  0  0  0  0  0  0  0
   21.6559   19.6845   48.0179 N   0  0  0  0  0  0  0  0  0  0  0  0
   22.3565   20.3215   48.4032 H   0  0  0  0  0  0  0  0  0  0  0  0
   20.7554   20.1023   47.7497 H   0  0  0  0  0  0  0  0  0  0  0  0
   21.2416   18.3329   46.0338 C   0  0  0  0  0  0  0  0  0  0  0  0
   20.0292   18.1716   46.2923 O   0  0  0  0  0  0  0  0  0  0  0  0
   21.6740   18.1052   44.7414 O   0  0  0  0  0  0  0  0  0  0  0  0
   22.0165   18.7782   44.0974 H   0  0  0  0  0  0  0  0  0  0  0  0
   21.2650   10.8343   53.9205 C   0  0  0  0  0  0  0  0  0  0  0  0
   21.8950    9.7726   54.7228 C   0  0  0  0  0  0  0  0  0  0  0  0
   22.9243    7.5347   54.1479 C   0  0  0  0  0  0  0  0  0  0  0  0
   22.7282    6.2368   53.7613 C   0  0  0  0  0  0  0  0  0  0  0  0
   21.4713    5.7368   53.3967 C   0  0  0  0  0  0  0  0  0  0  0  0
   20.4066    6.6042   53.4372 C   0  0  0  0  0  0  0  0  0  0  0  0
   20.5751    7.9069   53.8232 C   0  0  0  0  0  0  0  0  0  0  0  0
   21.8214    8.3874   54.1826 C   0  0  0  0  0  0  0  0  0  0  0  0
   24.1499    7.9970   54.4803 O   0  0  0  0  0  0  0  0  0  0  0  0
   25.3555    8.0288   53.8347 C   0  0  0  0  0  0  0  0  0  0  0  0
   27.5089    9.1969   56.7267 C   0  0  0  0  0  0  0  0  0  0  0  0
   28.7908    9.2022   56.1706 C   0  0  0  0  0  0  0  0  0  0  0  0
   28.8859    8.8204   54.8547 C   0  0  0  0  0  0  0  0  0  0  0  0
   27.7859    8.4511   54.1174 C   0  0  0  0  0  0  0  0  0  0  0  0
   26.5245    8.4531   54.6925 C   0  0  0  0  0  0  0  0  0  0  0  0
   26.4054    8.8289   55.9976 C   0  0  0  0  0  0  0  0  0  0  0  0
   27.4269    9.5887   58.0526 O   0  0  0  0  0  0  0  0  0  0  0  0
   31.6880    9.6062   61.6972 C   0  0  0  0  0  0  0  0  0  0  0  0
   30.5636    9.5938   60.7406 C   0  0  0  0  0  0  0  0  0  0  0  0
   29.9765    8.3892   60.3773 C   0  0  0  0  0  0  0  0  0  0  0  0
   28.9199    8.4149   59.4705 C   0  0  0  0  0  0  0  0  0  0  0  0
   28.4543    9.5878   58.9357 C   0  0  0  0  0  0  0  0  0  0  0  0
   29.0616   10.7842   59.3175 C   0  0  0  0  0  0  0  0  0  0  0  0
   30.1061   10.7977   60.2102 C   0  0  0  0  0  0  0  0  0  0  0  0
 43 44  1  0  0  0
 44 45  2  0  0  0
 45 46  1  0  0  0
 46 47  2  0  0  0
 47 42  1  0  0  0
 42 36  1  0  0  0
 36 37  2  0  0  0
 37 38  1  0  0  0
 38 39  2  0  0  0
 39 40  1  0  0  0
 40 35  1  0  0  0
 35 34  1  0  0  0
 34 28  1  0  0  0
 28 29  2  0  0  0
 29 30  1  0  0  0
 30 31  2  0  0  0
 31 32  1  0  0  0
 32 33  2  0  0  0
 33 27  1  0  0  0
 27 26  1  0  0  0
 26  1  1  0  0  0
  1  2  2  0  0  0
  1  3  1  0  0  0
  3  4  1  0  0  0
  4  5  1  0  0  0
  5  6  1  0  0  0
  6  7  1  0  0  0
  7  8  1  0  0  0
  8  9  1  0  0  0
  9 10  1  0  0  0
 10 11  1  0  0  0
 11 12  1  0  0  0
 12 13  2  0  0  0
 12 14  1  0  0  0
 12 16  1  0  0  0
 16 17  1  0  0  0
 17 18  1  0  0  0
 18 19  1  0  0  0
 18 22  1  0  0  0
 22 23  2  0  0  0
 22 24  1  0  0  0
 40 41  2  0  0  0
 47 48  1  0  0  0
 48 49  2  0  0  0
 49 44  1  0  0  0
 41 36  1  0  0  0
 33 28  1  0  0  0
 10  5  1  0  0  0
 14 15  1  0  0  0
 19 20  1  0  0  0
 19 21  1  0  0  0
 24 25  1  0  0  0
M  END
> <minimizedAffinity>
7.46938

> <CNNscore>
0.5757973194

> <CNNaffinity>
6.0164637566

> <CNN_VS>
3.4642636776

> <CNNaffinity_variance>
0.0601016097

$$$$
[H]OC(=O)[C@@]([H])(N([H])[H])C([H])([H])OP(=O)(O[H])O[C@]1([H])C([H])([H])C([H])([H])C([H])([H])O[C@]1([H])C([H])([H])OC(=O)C([H])([H])C([H])([H])c1c([H])c([H])c([H])c([H])c1OC([H])([H])c1c([H])c([H])c([H])c(Oc2c([H])c([H])c(C([H])([H])[H])c([H])c2[H])c1[H]


 49 52  0  0  0  0  0  0  0  0999 V2000
   27.5345    9.1316   55.9399 C   0  0  0  0  0  0  0  0  0  0  0  0
   28.1267    8.7797   54.9065 O   0  0  0  0  0  0  0  0  0  0  0  0
   28.3282    9.6302   57.0002 O   0  0  0  0  0  0  0  0  0  0  0  0
   27.8588   10.2154   58.1334 C   0  0  0  0  0  0  0  0  0  0  0  0
   28.7754   11.0672   58.9585 C   0  0  0  0  0  0  0  0  0  0  0  0
   28.1230   11.9015   59.8272 O   0  0  0  0  0  0  0  0  0  0  0  0
   28.7440   12.1426   61.0272 C   0  0  0  0  0  0  0  0  0  0  0  0
   30.2378   12.2047   60.9863 C   0  0  0  0  0  0  0  0  0  0  0  0
   30.8791   11.1474   60.1595 C   0  0  0  0  0  0  0  0  0  0  0  0
   29.8058   10.1871   59.6777 C   0  0  0  0  0  0  0  0  0  0  0  0
   29.2869    9.4209   60.6784 O   0  0  0  0  0  0  0  0  0  0  0  0
   30.2533    8.1782   61.2284 P   0  0  0  0  0  0  0  0  0  0  0  0
   31.2392    7.6636   60.2326 O   0  0  0  0  0  0  0  0  0  0  0  0
   31.1620    8.6577   62.5989 O   0  0  0  0  0  0  0  0  0  0  0  0
   30.6480    8.4790   63.4012 H   0  0  0  0  0  0  0  0  0  0  0  0
   29.2194    6.9360   61.7717 O   0  0  0  0  0  0  0  0  0  0  0  0
   29.6235    6.4153   62.9981 C   0  0  0  0  0  0  0  0  0  0  0  0
   28.4302    5.6437   63.5400 C   0  0  0  0  0  0  0  0  0  0  0  0
   28.7200    5.2624   64.8934 N   0  0  0  0  0  0  0  0  0  0  0  0
   28.5389    6.0045   65.5727 H   0  0  0  0  0  0  0  0  0  0  0  0
   28.4045    4.3184   65.1514 H   0  0  0  0  0  0  0  0  0  0  0  0
   28.0095    4.5340   62.6798 C   0  0  0  0  0  0  0  0  0  0  0  0
   27.6976    3.4220   63.1582 O   0  0  0  0  0  0  0  0  0  0  0  0
   27.9506    4.6999   61.3094 O   0  0  0  0  0  0  0  0  0  0  0  0
   27.3234    5.2787   60.8027 H   0  0  0  0  0  0  0  0  0  0  0  0
   26.0892    9.0551   56.1251 C   0  0  0  0  0  0  0  0  0  0  0  0
   25.1882    9.4255   55.0210 C   0  0  0  0  0  0  0  0  0  0  0  0
   22.7816    8.8771   54.4687 C   0  0  0  0  0  0  0  0  0  0  0  0
   21.8772    7.9438   54.0404 C   0  0  0  0  0  0  0  0  0  0  0  0
   22.2177    6.6018   53.8257 C   0  0  0  0  0  0  0  0  0  0  0  0
   23.5196    6.2315   54.0617 C   0  0  0  0  0  0  0  0  0  0  0  0
   24.4448    7.1462   54.4878 C   0  0  0  0  0  0  0  0  0  0  0  0
   24.0957    8.4687   54.6940 C   0  0  0  0  0  0  0  0  0  0  0  0
   22.4245   10.1627   54.6830 O   0  0  0  0  0  0  0  0  0  0  0  0
   21.2816   10.8778   54.4510 C   0  0  0  0  0  0  0  0  0  0  0  0
   20.8997   13.6585   51.9041 C   0  0  0  0  0  0  0  0  0  0  0  0
   21.3618   13.0616   50.7283 C   0  0  0  0  0  0  0  0  0  0  0  0
   21.7782   11.7568   50.8300 C   0  0  0  0  0  0  0  0  0  0  0  0
   21.7463   11.0679   52.0194 C   0  0  0  0  0  0  0  0  0  0  0  0
   21.2844   11.6829   53.1727 C   0  0  0  0  0  0  0  0  0  0  0  0
   20.8652   12.9780   53.0959 C   0  0  0  0  0  0  0  0  0  0  0  0
   20.4785   14.9727   51.7861 O   0  0  0  0  0  0  0  0  0  0  0  0
   23.6488   19.2718   50.0811 C   0  0  0  0  0  0  0  0  0  0  0  0
   22.8164   18.1354   50.5229 C   0  0  0  0  0  0  0  0  0  0  0  0
   22.3748   17.1992   49.5975 C   0  0  0  0  0  0  0  0  0  0  0  0
   21.5892   16.1418   50.0493 C   0  0  0  0  0  0  0  0  0  0  0  0
   21.2466   16.0081   51.3696 C   0  0  0  0  0  0  0  0  0  0  0  0
   21.7033   16.9622   52.2788 C   0  0  0  0  0  0  0  0  0  0  0  0
   22.4809   18.0187   51.8697 C   0  0  0  0  0  0  0  0  0  0  0  0
 43 44  1  0  0  0
 44 45  2  0  0  0
 45 46  1  0  0  0
 46 47  2  0  0  0
 47 42  1  0  0  0
 42 36  1  0  0  0
 36 37  2  0  0  0
 37 38  1  0  0  0
 38 39  2  0  0  0
 39 40  1  0  0  0
 40 35  1  0  0  0
 35 34  1  0  0  0
 34 28  1  0  0  0
 28 29  2  0  0  0
 29 30  1  0  0  0
 30 31  2  0  0  0
 31 32  1  0  0  0
 32 33  2  0  0  0
 33 27  1  0  0  0
 27 26  1  0  0  0
 26  1  1  0  0  0
  1  2  2  0  0  0
  1  3  1  0  0  0
  3  4  1  0  0  0
  4  5  1  0  0  0
  5  6  1  0  0  0
  6  7  1  0  0  0
  7  8  1  0  0  0
  8  9  1  0  0  0
  9 10  1  0  0  0
 10 11  1  0  0  0
 11 12  1  0  0  0
 12 13  2  0  0  0
 12 14  1  0  0  0
 12 16  1  0  0  0
 16 17  1  0  0  0
 17 18  1  0  0  0
 18 19  1  0  0  0
 18 22  1  0  0  0
 22 23  2  0  0  0
 22 24  1  0  0  0
 40 41  2  0  0  0
 47 48  1  0  0  0
 48 49  2  0  0  0
 49 44  1  0  0  0
 41 36  1  0  0  0
 33 28  1  0  0  0
 10  5  1  0  0  0
 14 15  1  0  0  0
 19 20  1  0  0  0
 19 21  1  0  0  0
 24 25  1  0  0  0
M  END
> <minimizedAffinity>
8.24354

> <CNNscore>
0.5754699707

> <CNNaffinity>
6.1621985435

> <CNN_VS>
3.5461602211

> <CNNaffinity_variance>
0.1328701079

$$$$
[H]OC(=O)[C@@]([H])(N([H])[H])C([H])([H])OP(=O)(O[H])O[C@]1([H])C([H])([H])C([H])([H])C([H])([H])O[C@]1([H])C([H])([H])OC(=O)C([H])([H])C([H])([H])c1c([H])c([H])c([H])c([H])c1OC([H])([H])c1c([H])c([H])c([H])c(Oc2c([H])c([H])c(C([H])([H])[H])c([H])c2[H])c1[H]


 49 52  0  0  0  0  0  0  0  0999 V2000
   25.1056    9.2888   55.8119 C   0  0  0  0  0  0  0  0  0  0  0  0
   25.6250    8.5108   54.9950 O   0  0  0  0  0  0  0  0  0  0  0  0
   25.9782   10.0042   56.6661 O   0  0  0  0  0  0  0  0  0  0  0  0
   27.1372    9.5284   57.1926 C   0  0  0  0  0  0  0  0  0  0  0  0
   28.1428   10.4886   57.7523 C   0  0  0  0  0  0  0  0  0  0  0  0
   27.7017   11.7844   57.8041 O   0  0  0  0  0  0  0  0  0  0  0  0
   28.1469   12.5409   58.8591 C   0  0  0  0  0  0  0  0  0  0  0  0
   29.5411   12.2575   59.3208 C   0  0  0  0  0  0  0  0  0  0  0  0
   29.8827   10.8124   59.4083 C   0  0  0  0  0  0  0  0  0  0  0  0
   28.6338    9.9978   59.1204 C   0  0  0  0  0  0  0  0  0  0  0  0
   27.7025   10.0799   60.1122 O   0  0  0  0  0  0  0  0  0  0  0  0
   28.2867   10.3778   61.6454 P   0  0  0  0  0  0  0  0  0  0  0  0
   28.3448   11.8205   62.0242 O   0  0  0  0  0  0  0  0  0  0  0  0
   27.3265    9.6077   62.8366 O   0  0  0  0  0  0  0  0  0  0  0  0
   27.6655    8.7125   62.9901 H   0  0  0  0  0  0  0  0  0  0  0  0
   29.8248    9.6497   61.7508 O   0  0  0  0  0  0  0  0  0  0  0  0
   30.7886   10.5269   62.2410 C   0  0  0  0  0  0  0  0  0  0  0  0
   32.0859    9.7354   62.2984 C   0  0  0  0  0  0  0  0  0  0  0  0
   33.0157   10.3315   61.3813 N   0  0  0  0  0  0  0  0  0  0  0  0
   33.5030   11.1435   61.7664 H   0  0  0  0  0  0  0  0  0  0  0  0
   33.5894    9.6610   60.8536 H   0  0  0  0  0  0  0  0  0  0  0  0
   31.9016    8.2929   62.1149 C   0  0  0  0  0  0  0  0  0  0  0  0
   31.8905    7.7782   60.9758 O   0  0  0  0  0  0  0  0  0  0  0  0
   31.7344    7.4681   63.2107 O   0  0  0  0  0  0  0  0  0  0  0  0
   32.4083    7.2536   63.9070 H   0  0  0  0  0  0  0  0  0  0  0  0
   23.6681    9.5000   55.9457 C   0  0  0  0  0  0  0  0  0  0  0  0
   22.9365   10.2428   54.9060 C   0  0  0  0  0  0  0  0  0  0  0  0
   21.5719    9.9796   52.7926 C   0  0  0  0  0  0  0  0  0  0  0  0
   20.9465    9.1334   51.9177 C   0  0  0  0  0  0  0  0  0  0  0  0
   20.8262    7.7571   52.1503 C   0  0  0  0  0  0  0  0  0  0  0  0
   21.3664    7.2597   53.3115 C   0  0  0  0  0  0  0  0  0  0  0  0
   21.9998    8.0842   54.2021 C   0  0  0  0  0  0  0  0  0  0  0  0
   22.1135    9.4412   53.9593 C   0  0  0  0  0  0  0  0  0  0  0  0
   21.6615   11.3065   52.5524 O   0  0  0  0  0  0  0  0  0  0  0  0
   21.9685   12.0483   51.4448 C   0  0  0  0  0  0  0  0  0  0  0  0
   21.6739   15.7985   50.9822 C   0  0  0  0  0  0  0  0  0  0  0  0
   20.4722   16.0931   51.6315 C   0  0  0  0  0  0  0  0  0  0  0  0
   19.8107   15.0323   52.2001 C   0  0  0  0  0  0  0  0  0  0  0  0
   20.2962   13.7475   52.1383 C   0  0  0  0  0  0  0  0  0  0  0  0
   21.4906   13.4808   51.4871 C   0  0  0  0  0  0  0  0  0  0  0  0
   22.1654   14.5184   50.9154 C   0  0  0  0  0  0  0  0  0  0  0  0
   22.3328   16.8781   50.4176 O   0  0  0  0  0  0  0  0  0  0  0  0
   21.4982   18.8146   45.2221 C   0  0  0  0  0  0  0  0  0  0  0  0
   21.7198   18.3128   46.5927 C   0  0  0  0  0  0  0  0  0  0  0  0
   22.4834   19.0522   47.4861 C   0  0  0  0  0  0  0  0  0  0  0  0
   22.6738   18.5471   48.7698 C   0  0  0  0  0  0  0  0  0  0  0  0
   22.1318   17.3516   49.1643 C   0  0  0  0  0  0  0  0  0  0  0  0
   21.3686   16.6285   48.2475 C   0  0  0  0  0  0  0  0  0  0  0  0
   21.1588   17.0958   46.9724 C   0  0  0  0  0  0  0  0  0  0  0  0
 43 44  1  0  0  0
 44 45  2  0  0  0
 45 46  1  0  0  0
 46 47  2  0  0  0
 47 42  1  0  0  0
 42 36  1  0  0  0
 36 37  2  0  0  0
 37 38  1  0  0  0
 38 39  2  0  0  0
 39 40  1  0  0  0
 40 35  1  0  0  0
 35 34  1  0  0  0
 34 28  1  0  0  0
 28 29  2  0  0  0
 29 30  1  0  0  0
 30 31  2  0  0  0
 31 32  1  0  0  0
 32 33  2  0  0  0
 33 27  1  0  0  0
 27 26  1  0  0  0
 26  1  1  0  0  0
  1  2  2  0  0  0
  1  3  1  0  0  0
  3  4  1  0  0  0
  4  5  1  0  0  0
  5  6  1  0  0  0
  6  7  1  0  0  0
  7  8  1  0  0  0
  8  9  1  0  0  0
  9 10  1  0  0  0
 10 11  1  0  0  0
 11 12  1  0  0  0
 12 13  2  0  0  0
 12 14  1  0  0  0
 12 16  1  0  0  0
 16 17  1  0  0  0
 17 18  1  0  0  0
 18 19  1  0  0  0
 18 22  1  0  0  0
 22 23  2  0  0  0
 22 24  1  0  0  0
 40 41  2  0  0  0
 47 48  1  0  0  0
 48 49  2  0  0  0
 49 44  1  0  0  0
 41 36  1  0  0  0
 33 28  1  0  0  0
 10  5  1  0  0  0
 14 15  1  0  0  0
 19 20  1  0  0  0
 19 21  1  0  0  0
 24 25  1  0  0  0
M  END
> <minimizedAffinity>
10.66417

> <CNNscore>
0.5683484077

> <CNNaffinity>
5.9167680740

> <CNN_VS>
3.3627858162

> <CNNaffinity_variance>
0.2020008266

$$$$
[H]OC(=O)[C@@]([H])(N([H])[H])C([H])([H])OP(=O)(O[H])O[C@]1([H])C([H])([H])C([H])([H])C([H])([H])O[C@]1([H])C([H])([H])OC(=O)C([H])([H])C([H])([H])c1c([H])c([H])c([H])c([H])c1OC([H])([H])c1c([H])c([H])c([H])c(Oc2c([H])c([H])c(C([H])([H])[H])c([H])c2[H])c1[H]


 49 52  0  0  0  0  0  0  0  0999 V2000
   28.1085    9.9554   57.5559 C   0  0  0  0  0  0  0  0  0  0  0  0
   28.3494   10.5223   56.4774 O   0  0  0  0  0  0  0  0  0  0  0  0
   26.9433    9.1546   57.6175 O   0  0  0  0  0  0  0  0  0  0  0  0
   25.9776    9.0869   56.6637 C   0  0  0  0  0  0  0  0  0  0  0  0
   26.3701    9.0295   55.2183 C   0  0  0  0  0  0  0  0  0  0  0  0
   27.5996    8.4662   55.0006 O   0  0  0  0  0  0  0  0  0  0  0  0
   27.7427    7.7356   53.8476 C   0  0  0  0  0  0  0  0  0  0  0  0
   26.9828    8.2368   52.6609 C   0  0  0  0  0  0  0  0  0  0  0  0
   25.5882    8.6633   52.9536 C   0  0  0  0  0  0  0  0  0  0  0  0
   25.2719    8.3355   54.4023 C   0  0  0  0  0  0  0  0  0  0  0  0
   25.1623    6.9970   54.6350 O   0  0  0  0  0  0  0  0  0  0  0  0
   23.6196    6.3660   54.5808 P   0  0  0  0  0  0  0  0  0  0  0  0
   23.3426    5.4892   53.4048 O   0  0  0  0  0  0  0  0  0  0  0  0
   23.2847    5.4233   55.9711 O   0  0  0  0  0  0  0  0  0  0  0  0
   22.9186    5.9946   56.6635 H   0  0  0  0  0  0  0  0  0  0  0  0
   22.5338    7.6791   54.6409 O   0  0  0  0  0  0  0  0  0  0  0  0
   21.2622    7.3299   54.1939 C   0  0  0  0  0  0  0  0  0  0  0  0
   21.0199    8.1497   52.9361 C   0  0  0  0  0  0  0  0  0  0  0  0
   21.6929    7.5050   51.8442 N   0  0  0  0  0  0  0  0  0  0  0  0
   21.1596    6.7346   51.4355 H   0  0  0  0  0  0  0  0  0  0  0  0
   22.1520    8.1453   51.1835 H   0  0  0  0  0  0  0  0  0  0  0  0
   21.3473    9.5702   53.0896 C   0  0  0  0  0  0  0  0  0  0  0  0
   21.4820   10.0884   54.2192 O   0  0  0  0  0  0  0  0  0  0  0  0
   21.5139   10.3700   51.9753 O   0  0  0  0  0  0  0  0  0  0  0  0
   22.2414   10.3154   51.3025 H   0  0  0  0  0  0  0  0  0  0  0  0
   28.9408   10.0711   58.7487 C   0  0  0  0  0  0  0  0  0  0  0  0
   29.1945   11.3957   59.3397 C   0  0  0  0  0  0  0  0  0  0  0  0
   28.6863   10.9036   61.7681 C   0  0  0  0  0  0  0  0  0  0  0  0
   28.1374   11.3348   62.9451 C   0  0  0  0  0  0  0  0  0  0  0  0
   27.4161   12.5311   63.0510 C   0  0  0  0  0  0  0  0  0  0  0  0
   27.2672   13.2858   61.9126 C   0  0  0  0  0  0  0  0  0  0  0  0
   27.8090   12.8786   60.7231 C   0  0  0  0  0  0  0  0  0  0  0  0
   28.5207   11.6959   60.6327 C   0  0  0  0  0  0  0  0  0  0  0  0
   29.3649    9.7377   61.6887 O   0  0  0  0  0  0  0  0  0  0  0  0
   30.6856    9.4022   61.8098 C   0  0  0  0  0  0  0  0  0  0  0  0
   32.6723   12.6299   61.7973 C   0  0  0  0  0  0  0  0  0  0  0  0
   33.3093   12.6015   63.0406 C   0  0  0  0  0  0  0  0  0  0  0  0
   33.0547   11.5076   63.8310 C   0  0  0  0  0  0  0  0  0  0  0  0
   32.2199   10.4916   63.4297 C   0  0  0  0  0  0  0  0  0  0  0  0
   31.5986   10.5437   62.1914 C   0  0  0  0  0  0  0  0  0  0  0  0
   31.8368   11.6199   61.3891 C   0  0  0  0  0  0  0  0  0  0  0  0
   32.9417   13.7361   61.0086 O   0  0  0  0  0  0  0  0  0  0  0  0
   29.5566   18.1539   60.3273 C   0  0  0  0  0  0  0  0  0  0  0  0
   30.4411   16.9855   60.5053 C   0  0  0  0  0  0  0  0  0  0  0  0
   29.8995   15.7508   60.8371 C   0  0  0  0  0  0  0  0  0  0  0  0
   30.7639   14.6711   60.9997 C   0  0  0  0  0  0  0  0  0  0  0  0
   32.1194   14.7999   60.8424 C   0  0  0  0  0  0  0  0  0  0  0  0
   32.6378   16.0511   60.5088 C   0  0  0  0  0  0  0  0  0  0  0  0
   31.8155   17.1389   60.3396 C   0  0  0  0  0  0  0  0  0  0  0  0
 43 44  1  0  0  0
 44 45  2  0  0  0
 45 46  1  0  0  0
 46 47  2  0  0  0
 47 42  1  0  0  0
 42 36  1  0  0  0
 36 37  2  0  0  0
 37 38  1  0  0  0
 38 39  2  0  0  0
 39 40  1  0  0  0
 40 35  1  0  0  0
 35 34  1  0  0  0
 34 28  1  0  0  0
 28 29  2  0  0  0
 29 30  1  0  0  0
 30 31  2  0  0  0
 31 32  1  0  0  0
 32 33  2  0  0  0
 33 27  1  0  0  0
 27 26  1  0  0  0
 26  1  1  0  0  0
  1  2  2  0  0  0
  1  3  1  0  0  0
  3  4  1  0  0  0
  4  5  1  0  0  0
  5  6  1  0  0  0
  6  7  1  0  0  0
  7  8  1  0  0  0
  8  9  1  0  0  0
  9 10  1  0  0  0
 10 11  1  0  0  0
 11 12  1  0  0  0
 12 13  2  0  0  0
 12 14  1  0  0  0
 12 16  1  0  0  0
 16 17  1  0  0  0
 17 18  1  0  0  0
 18 19  1  0  0  0
 18 22  1  0  0  0
 22 23  2  0  0  0
 22 24  1  0  0  0
 40 41  2  0  0  0
 47 48  1  0  0  0
 48 49  2  0  0  0
 49 44  1  0  0  0
 41 36  1  0  0  0
 33 28  1  0  0  0
 10  5  1  0  0  0
 14 15  1  0  0  0
 19 20  1  0  0  0
 19 21  1  0  0  0
 24 25  1  0  0  0
M  END
> <minimizedAffinity>
-0.51477

> <CNNscore>
0.5639953613

> <CNNaffinity>
6.6252646446

> <CNN_VS>
3.7366185188

> <CNNaffinity_variance>
0.2459239513

$$$$
[H]C([H])([H])C1([H])OC([H])(C([H])([H])[N+](C([H])([H])[H])(C([H])([H])[H])C([H])([H])[H])C([H])([H])OC1([H])[H].[I-]


 12 12  0  0  0  0  0  0  0  0999 V2000
   27.5543    8.6580   53.6726 C   0  0  0  0  0  0  0  0  0  0  0  0
   26.3159    7.9436   54.2243 C   0  0  0  0  0  0  0  0  0  0  0  0
   26.0957    8.5122   55.6156 C   0  0  0  0  0  0  0  0  0  0  0  0
   25.1024    9.5087   55.4629 O   0  0  0  0  0  0  0  0  0  0  0  0
   23.9117    8.7941   55.2236 C   0  0  0  0  0  0  0  0  0  0  0  0
   24.0178    7.9797   53.9393 C   0  0  0  0  0  0  0  0  0  0  0  0
   25.2658    8.1724   53.3739 O   0  0  0  0  0  0  0  0  0  0  0  0
   22.9412    8.4509   53.0165 C   0  0  0  0  0  0  0  0  0  0  0  0
   21.6846    7.8199   53.1604 N   0  0  0  0  0  0  0  0  0  0  0  0
   21.8830    6.3856   53.4247 C   0  0  0  0  0  0  0  0  0  0  0  0
   20.9488    7.9254   51.8906 C   0  0  0  0  0  0  0  0  0  0  0  0
   20.8361    8.3276   54.1835 C   0  0  0  0  0  0  0  0  0  0  0  0
  1  2  1  0  0  0
  2  3  1  0  0  0
  3  4  1  0  0  0
  4  5  1  0  0  0
  5  6  1  0  0  0
  6  8  1  0  0  0
  8  9  1  0  0  0
  9 10  1  0  0  0
  9 11  1  0  0  0
  9 12  1  0  0  0
  6  7  1  0  0  0
  7  2  1  0  0  0
M  CHG 1   9   1
M  END
> <minimizedAffinity>
-1.84942

> <CNNscore>
0.5896530747

> <CNNaffinity>
3.9001278877

> <CNN_VS>
2.2997224331

> <CNNaffinity_variance>
0.6033985019

$$$$
[H]C([H])([H])C1([H])OC([H])(C([H])([H])[N+](C([H])([H])[H])(C([H])([H])[H])C([H])([H])[H])C([H])([H])OC1([H])[H].[I-]


 12 12  0  0  0  0  0  0  0  0999 V2000
   27.5278    8.6512   53.6481 C   0  0  0  0  0  0  0  0  0  0  0  0
   26.2876    7.9516   54.2144 C   0  0  0  0  0  0  0  0  0  0  0  0
   26.0827    8.5326   55.6029 C   0  0  0  0  0  0  0  0  0  0  0  0
   25.0967    9.5363   55.4500 O   0  0  0  0  0  0  0  0  0  0  0  0
   23.8982    8.8302   55.2249 C   0  0  0  0  0  0  0  0  0  0  0  0
   23.9878    8.0052   53.9461 C   0  0  0  0  0  0  0  0  0  0  0  0
   25.2331    8.1829   53.3701 O   0  0  0  0  0  0  0  0  0  0  0  0
   22.9083    8.4786   53.0279 C   0  0  0  0  0  0  0  0  0  0  0  0
   21.6861    7.7720   53.0954 N   0  0  0  0  0  0  0  0  0  0  0  0
   20.8521    8.3353   54.1696 C   0  0  0  0  0  0  0  0  0  0  0  0
   21.9625    6.3722   53.4548 C   0  0  0  0  0  0  0  0  0  0  0  0
   20.8991    7.7560   51.9100 C   0  0  0  0  0  0  0  0  0  0  0  0
  1  2  1  0  0  0
  2  3  1  0  0  0
  3  4  1  0  0  0
  4  5  1  0  0  0
  5  6  1  0  0  0
  6  8  1  0  0  0
  8  9  1  0  0  0
  9 10  1  0  0  0
  9 11  1  0  0  0
  9 12  1  0  0  0
  6  7  1  0  0  0
  7  2  1  0  0  0
M  CHG 1   9   1
M  END
> <minimizedAffinity>
-1.79294

> <CNNscore>
0.5882143378

> <CNNaffinity>
3.8991668224

> <CNN_VS>
2.2935457230

> <CNNaffinity_variance>
0.5956833959

$$$$
[H]C([H])([H])C1([H])OC([H])(C([H])([H])[N+](C([H])([H])[H])(C([H])([H])[H])C([H])([H])[H])C([H])([H])OC1([H])[H].[I-]


 12 12  0  0  0  0  0  0  0  0999 V2000
   26.9271    8.9774   56.2832 C   0  0  0  0  0  0  0  0  0  0  0  0
   26.1425    9.1404   54.9769 C   0  0  0  0  0  0  0  0  0  0  0  0
   26.7644    8.1614   53.9959 C   0  0  0  0  0  0  0  0  0  0  0  0
   25.9293    7.0191   54.0227 O   0  0  0  0  0  0  0  0  0  0  0  0
   24.7514    7.4205   53.3617 C   0  0  0  0  0  0  0  0  0  0  0  0
   24.0743    8.5640   54.1087 C   0  0  0  0  0  0  0  0  0  0  0  0
   24.8193    8.8871   55.2288 O   0  0  0  0  0  0  0  0  0  0  0  0
   22.7080    8.1012   54.4983 C   0  0  0  0  0  0  0  0  0  0  0  0
   21.6291    8.8344   53.9541 N   0  0  0  0  0  0  0  0  0  0  0  0
   21.4887   10.1097   54.6756 C   0  0  0  0  0  0  0  0  0  0  0  0
   20.3835    8.0807   54.1668 C   0  0  0  0  0  0  0  0  0  0  0  0
   21.7074    9.1375   52.5660 C   0  0  0  0  0  0  0  0  0  0  0  0
  1  2  1  0  0  0
  2  3  1  0  0  0
  3  4  1  0  0  0
  4  5  1  0  0  0
  5  6  1  0  0  0
  6  8  1  0  0  0
  8  9  1  0  0  0
  9 10  1  0  0  0
  9 11  1  0  0  0
  9 12  1  0  0  0
  6  7  1  0  0  0
  7  2  1  0  0  0
M  CHG 1   9   1
M  END
> <minimizedAffinity>
-1.43166

> <CNNscore>
0.5602604747

> <CNNaffinity>
4.0006885529

> <CNN_VS>
2.2414276600

> <CNNaffinity_variance>
0.5216789246

$$$$
[H]C([H])([H])C1([H])OC([H])(C([H])([H])[N+](C([H])([H])[H])(C([H])([H])[H])C([H])([H])[H])C([H])([H])OC1([H])[H].[I-]


 12 12  0  0  0  0  0  0  0  0999 V2000
   25.1726    9.4445   55.9129 C   0  0  0  0  0  0  0  0  0  0  0  0
   24.9640    8.8295   54.5248 C   0  0  0  0  0  0  0  0  0  0  0  0
   25.9366    7.6659   54.4375 C   0  0  0  0  0  0  0  0  0  0  0  0
   25.1756    6.5142   54.7494 O   0  0  0  0  0  0  0  0  0  0  0  0
   24.3477    6.3166   53.6263 C   0  0  0  0  0  0  0  0  0  0  0  0
   23.4141    7.5050   53.4261 C   0  0  0  0  0  0  0  0  0  0  0  0
   23.6526    8.4484   54.4095 O   0  0  0  0  0  0  0  0  0  0  0  0
   22.0119    6.9959   53.5110 C   0  0  0  0  0  0  0  0  0  0  0  0
   20.9933    7.9573   53.3215 N   0  0  0  0  0  0  0  0  0  0  0  0
   19.7227    7.2748   53.0276 C   0  0  0  0  0  0  0  0  0  0  0  0
   21.3230    8.7775   52.1453 C   0  0  0  0  0  0  0  0  0  0  0  0
   20.7565    8.8489   54.4049 C   0  0  0  0  0  0  0  0  0  0  0  0
  1  2  1  0  0  0
  2  3  1  0  0  0
  3  4  1  0  0  0
  4  5  1  0  0  0
  5  6  1  0  0  0
  6  8  1  0  0  0
  8  9  1  0  0  0
  9 10  1  0  0  0
  9 11  1  0  0  0
  9 12  1  0  0  0
  6  7  1  0  0  0
  7  2  1  0  0  0
M  CHG 1   9   1
M  END
> <minimizedAffinity>
-0.26127

> <CNNscore>
0.5428075790

> <CNNaffinity>
4.1911425591

> <CNN_VS>
2.2749838829

> <CNNaffinity_variance>
0.3263003826

$$$$
[H]C([H])([H])C1([H])OC([H])(C([H])([H])[N+](C([H])([H])[H])(C([H])([H])[H])C([H])([H])[H])C([H])([H])OC1([H])[H].[I-]


 12 12  0  0  0  0  0  0  0  0999 V2000
   23.5543    5.2536   55.2276 C   0  0  0  0  0  0  0  0  0  0  0  0
   23.7791    6.7681   55.1639 C   0  0  0  0  0  0  0  0  0  0  0  0
   25.1273    6.9583   54.4904 C   0  0  0  0  0  0  0  0  0  0  0  0
   24.8355    7.2312   53.1327 O   0  0  0  0  0  0  0  0  0  0  0  0
   24.2994    8.5343   53.1361 C   0  0  0  0  0  0  0  0  0  0  0  0
   23.0142    8.5889   53.9542 C   0  0  0  0  0  0  0  0  0  0  0  0
   22.7423    7.3337   54.4685 O   0  0  0  0  0  0  0  0  0  0  0  0
   21.9180    9.0352   53.0422 C   0  0  0  0  0  0  0  0  0  0  0  0
   21.0934    8.0124   52.5210 N   0  0  0  0  0  0  0  0  0  0  0  0
   20.4823    8.4684   51.2620 C   0  0  0  0  0  0  0  0  0  0  0  0
   19.9940    7.7572   53.4649 C   0  0  0  0  0  0  0  0  0  0  0  0
   21.7241    6.7639   52.2599 C   0  0  0  0  0  0  0  0  0  0  0  0
  1  2  1  0  0  0
  2  3  1  0  0  0
  3  4  1  0  0  0
  4  5  1  0  0  0
  5  6  1  0  0  0
  6  8  1  0  0  0
  8  9  1  0  0  0
  9 10  1  0  0  0
  9 11  1  0  0  0
  9 12  1  0  0  0
  6  7  1  0  0  0
  7  2  1  0  0  0
M  CHG 1   9   1
M  END
> <minimizedAffinity>
1.55822

> <CNNscore>
0.4730037749

> <CNNaffinity>
3.9279942513

> <CNN_VS>
1.8579560518

> <CNNaffinity_variance>
0.2310445309

$$$$
[H]C([H])([H])C1([H])OC([H])(C([H])([H])[N+](C([H])([H])[H])(C([H])([H])[H])C([H])([H])[H])C([H])([H])OC1([H])[H].[I-]


 12 12  0  0  0  0  0  0  0  0999 V2000
   20.8008    7.8770   51.8139 C   0  0  0  0  0  0  0  0  0  0  0  0
   21.8371    8.7729   52.5008 C   0  0  0  0  0  0  0  0  0  0  0  0
   21.1416    9.3486   53.7224 C   0  0  0  0  0  0  0  0  0  0  0  0
   21.5469    8.5335   54.8061 O   0  0  0  0  0  0  0  0  0  0  0  0
   22.8970    8.8726   55.0244 C   0  0  0  0  0  0  0  0  0  0  0  0
   23.7422    8.5468   53.7983 C   0  0  0  0  0  0  0  0  0  0  0  0
   22.9339    8.0119   52.8111 O   0  0  0  0  0  0  0  0  0  0  0  0
   24.7851    7.5627   54.2183 C   0  0  0  0  0  0  0  0  0  0  0  0
   26.1152    8.0409   54.2331 N   0  0  0  0  0  0  0  0  0  0  0  0
   26.2751    9.0133   55.3265 C   0  0  0  0  0  0  0  0  0  0  0  0
   26.3787    8.7595   52.9765 C   0  0  0  0  0  0  0  0  0  0  0  0
   27.1369    7.0618   54.3819 C   0  0  0  0  0  0  0  0  0  0  0  0
  1  2  1  0  0  0
  2  3  1  0  0  0
  3  4  1  0  0  0
  4  5  1  0  0  0
  5  6  1  0  0  0
  6  8  1  0  0  0
  8  9  1  0  0  0
  9 10  1  0  0  0
  9 11  1  0  0  0
  9 12  1  0  0  0
  6  7  1  0  0  0
  7  2  1  0  0  0
M  CHG 1   9   1
M  END
> <minimizedAffinity>
0.53189

> <CNNscore>
0.4706251323

> <CNNaffinity>
3.6684334278

> <CNN_VS>
1.7264569998

> <CNNaffinity_variance>
0.6364203095

$$$$
[H]C([H])([H])C1([H])OC([H])(C([H])([H])[N+](C([H])([H])[H])(C([H])([H])[H])C([H])([H])[H])C([H])([H])OC1([H])[H].[I-]


 12 12  0  0  0  0  0  0  0  0999 V2000
   27.6519    9.1427   57.0649 C   0  0  0  0  0  0  0  0  0  0  0  0
   26.8988    9.4223   55.7599 C   0  0  0  0  0  0  0  0  0  0  0  0
   27.8835    9.1251   54.6421 C   0  0  0  0  0  0  0  0  0  0  0  0
   27.5752    7.8143   54.2066 O   0  0  0  0  0  0  0  0  0  0  0  0
   26.3510    7.9431   53.5207 C   0  0  0  0  0  0  0  0  0  0  0  0
   25.2553    8.4395   54.4573 C   0  0  0  0  0  0  0  0  0  0  0  0
   25.7821    8.6286   55.7225 O   0  0  0  0  0  0  0  0  0  0  0  0
   24.1798    7.4027   54.4822 C   0  0  0  0  0  0  0  0  0  0  0  0
   22.8646    7.8716   54.2623 N   0  0  0  0  0  0  0  0  0  0  0  0
   22.5643    7.8335   52.8219 C   0  0  0  0  0  0  0  0  0  0  0  0
   22.7829    9.2796   54.6816 C   0  0  0  0  0  0  0  0  0  0  0  0
   21.8236    7.1704   54.9325 C   0  0  0  0  0  0  0  0  0  0  0  0
  1  2  1  0  0  0
  2  3  1  0  0  0
  3  4  1  0  0  0
  4  5  1  0  0  0
  5  6  1  0  0  0
  6  8  1  0  0  0
  8  9  1  0  0  0
  9 10  1  0  0  0
  9 11  1  0  0  0
  9 12  1  0  0  0
  6  7  1  0  0  0
  7  2  1  0  0  0
M  CHG 1   9   1
M  END
> <minimizedAffinity>
0.05074

> <CNNscore>
0.4635491669

> <CNNaffinity>
3.6401047707

> <CNN_VS>
1.6873675585

> <CNNaffinity_variance>
0.7734452486

$$$$
[H]C([H])([H])C1([H])OC([H])(C([H])([H])[N+](C([H])([H])[H])(C([H])([H])[H])C([H])([H])[H])C([H])([H])OC1([H])[H].[I-]


 12 12  0  0  0  0  0  0  0  0999 V2000
   21.5567    5.2816   53.6500 C   0  0  0  0  0  0  0  0  0  0  0  0
   22.5138    6.1636   54.4589 C   0  0  0  0  0  0  0  0  0  0  0  0
   23.9134    5.7074   54.0840 C   0  0  0  0  0  0  0  0  0  0  0  0
   24.3569    6.6217   53.0990 O   0  0  0  0  0  0  0  0  0  0  0  0
   24.5947    7.8192   53.8025 C   0  0  0  0  0  0  0  0  0  0  0  0
   23.3098    8.3384   54.4376 C   0  0  0  0  0  0  0  0  0  0  0  0
   22.2696    7.4748   54.1437 O   0  0  0  0  0  0  0  0  0  0  0  0
   23.0448    9.6963   53.8733 C   0  0  0  0  0  0  0  0  0  0  0  0
   21.6942    9.9892   53.5771 N   0  0  0  0  0  0  0  0  0  0  0  0
   21.3119    9.3248   52.3206 C   0  0  0  0  0  0  0  0  0  0  0  0
   21.5565   11.4375   53.3569 C   0  0  0  0  0  0  0  0  0  0  0  0
   20.7366    9.6191   54.5624 C   0  0  0  0  0  0  0  0  0  0  0  0
  1  2  1  0  0  0
  2  3  1  0  0  0
  3  4  1  0  0  0
  4  5  1  0  0  0
  5  6  1  0  0  0
  6  8  1  0  0  0
  8  9  1  0  0  0
  9 10  1  0  0  0
  9 11  1  0  0  0
  9 12  1  0  0  0
  6  7  1  0  0  0
  7  2  1  0  0  0
M  CHG 1   9   1
M  END
> <minimizedAffinity>
0.28889

> <CNNscore>
0.4197156429

> <CNNaffinity>
3.9261028767

> <CNN_VS>
1.6478468180

> <CNNaffinity_variance>
0.3267871737

$$$$
[H]C([H])([H])C1([H])OC([H])(C([H])([H])[N+](C([H])([H])[H])(C([H])([H])[H])C([H])([H])[H])C([H])([H])OC1([H])[H].[I-]


 12 12  0  0  0  0  0  0  0  0999 V2000
   20.7575    5.5824   53.5549 C   0  0  0  0  0  0  0  0  0  0  0  0
   21.0717    6.8849   52.8112 C   0  0  0  0  0  0  0  0  0  0  0  0
   20.2392    7.9596   53.4890 C   0  0  0  0  0  0  0  0  0  0  0  0
   21.1163    8.5995   54.3968 O   0  0  0  0  0  0  0  0  0  0  0  0
   21.9915    9.3466   53.5834 C   0  0  0  0  0  0  0  0  0  0  0  0
   22.7904    8.4303   52.6635 C   0  0  0  0  0  0  0  0  0  0  0  0
   22.4204    7.1163   52.8883 O   0  0  0  0  0  0  0  0  0  0  0  0
   24.2381    8.6321   52.9730 C   0  0  0  0  0  0  0  0  0  0  0  0
   24.6983    8.0550   54.1784 N   0  0  0  0  0  0  0  0  0  0  0  0
   24.1309    6.7047   54.3242 C   0  0  0  0  0  0  0  0  0  0  0  0
   24.2031    8.8541   55.3103 C   0  0  0  0  0  0  0  0  0  0  0  0
   26.1090    7.9419   54.3266 C   0  0  0  0  0  0  0  0  0  0  0  0
  1  2  1  0  0  0
  2  3  1  0  0  0
  3  4  1  0  0  0
  4  5  1  0  0  0
  5  6  1  0  0  0
  6  8  1  0  0  0
  8  9  1  0  0  0
  9 10  1  0  0  0
  9 11  1  0  0  0
  9 12  1  0  0  0
  6  7  1  0  0  0
  7  2  1  0  0  0
M  CHG 1   9   1
M  END
> <minimizedAffinity>
0.09817

> <CNNscore>
0.4160112739

> <CNNaffinity>
3.8039417267

> <CNN_VS>
1.5824826956

> <CNNaffinity_variance>
0.3970322013

$$$$
[H]Sc1nnc(N([H])C(=O)N([H])N=C([H])c2c([H])c([H])c([H])c(OC([H])([H])[H])c2[H])s1


 23 24  0  0  0  0  0  0  0  0999 V2000
   22.7100    7.8904   52.7958 N   0  0  0  0  0  0  0  0  0  0  0  0
   21.8094    6.8975   53.2410 C   0  0  0  0  0  0  0  0  0  0  0  0
   22.1928    6.0322   54.0669 O   0  0  0  0  0  0  0  0  0  0  0  0
   20.4793    6.8489   52.7804 N   0  0  0  0  0  0  0  0  0  0  0  0
   22.3703    8.6020   52.1075 H   0  0  0  0  0  0  0  0  0  0  0  0
   20.1405    7.5488   52.1016 H   0  0  0  0  0  0  0  0  0  0  0  0
   19.5677    5.8438   53.2311 C   0  0  0  0  0  0  0  0  0  0  0  0
   19.7522    4.5346   53.3765 N   0  0  0  0  0  0  0  0  0  0  0  0
   18.8106    3.8032   53.7939 N   0  0  0  0  0  0  0  0  0  0  0  0
   17.6349    4.3435   54.0877 C   0  0  0  0  0  0  0  0  0  0  0  0
   16.2101    3.4534   54.6855 S   0  0  0  0  0  0  0  0  0  0  0  0
   17.9303    5.9858   53.7358 S   0  0  0  0  0  0  0  0  0  0  0  0
   16.5694    2.5022   55.6795 H   0  0  0  0  0  0  0  0  0  0  0  0
   24.3948    8.5169   54.3208 C   0  0  0  0  0  0  0  0  0  0  0  0
   24.0221    7.9948   53.2056 N   0  0  0  0  0  0  0  0  0  0  0  0
   27.5325    9.2434   56.2332 C   0  0  0  0  0  0  0  0  0  0  0  0
   28.4683    8.7266   55.3625 C   0  0  0  0  0  0  0  0  0  0  0  0
   28.0617    8.1544   54.1752 C   0  0  0  0  0  0  0  0  0  0  0  0
   26.7302    8.0815   53.8262 C   0  0  0  0  0  0  0  0  0  0  0  0
   25.8005    8.5942   54.6900 C   0  0  0  0  0  0  0  0  0  0  0  0
   26.2087    9.1638   55.8725 C   0  0  0  0  0  0  0  0  0  0  0  0
   28.2648    9.0373   58.5384 C   0  0  0  0  0  0  0  0  0  0  0  0
   27.9055    9.8210   57.4257 O   0  0  0  0  0  0  0  0  0  0  0  0
 22 23  1  0  0  0
 23 16  1  0  0  0
 16 17  2  0  0  0
 17 18  1  0  0  0
 18 19  2  0  0  0
 19 20  1  0  0  0
 20 14  1  0  0  0
 14 15  2  0  0  0
 15  1  1  0  0  0
  1  2  1  0  0  0
  2  3  2  0  0  0
  2  4  1  0  0  0
  4  7  1  0  0  0
  7  8  2  0  0  0
  8  9  1  0  0  0
  9 10  2  0  0  0
 10 11  1  0  0  0
 10 12  1  0  0  0
 20 21  2  0  0  0
 21 16  1  0  0  0
 12  7  1  0  0  0
  1  5  1  0  0  0
  4  6  1  0  0  0
 11 13  1  0  0  0
M  END
> <minimizedAffinity>
9.30088

> <CNNscore>
0.5349193215

> <CNNaffinity>
5.5893850327

> <CNN_VS>
2.9898700714

> <CNNaffinity_variance>
0.2710964680

$$$$
[H]Sc1nnc(N([H])C(=O)N([H])N=C([H])c2c([H])c([H])c([H])c(OC([H])([H])[H])c2[H])s1


 23 24  0  0  0  0  0  0  0  0999 V2000
   23.9405    7.2189   52.6406 N   0  0  0  0  0  0  0  0  0  0  0  0
   22.7273    6.7314   53.1753 C   0  0  0  0  0  0  0  0  0  0  0  0
   22.6609    6.4215   54.3907 O   0  0  0  0  0  0  0  0  0  0  0  0
   21.5774    6.5810   52.3762 N   0  0  0  0  0  0  0  0  0  0  0  0
   23.9743    7.4714   51.6254 H   0  0  0  0  0  0  0  0  0  0  0  0
   21.6067    6.8288   51.3746 H   0  0  0  0  0  0  0  0  0  0  0  0
   20.3494    6.0876   52.9175 C   0  0  0  0  0  0  0  0  0  0  0  0
   19.2674    6.7534   53.3112 N   0  0  0  0  0  0  0  0  0  0  0  0
   18.2689    6.1291   53.7684 N   0  0  0  0  0  0  0  0  0  0  0  0
   18.3009    4.8055   53.8557 C   0  0  0  0  0  0  0  0  0  0  0  0
   16.9806    3.7795   54.4754 S   0  0  0  0  0  0  0  0  0  0  0  0
   19.8568    4.4726   53.2422 S   0  0  0  0  0  0  0  0  0  0  0  0
   15.7161    4.2032   53.9820 H   0  0  0  0  0  0  0  0  0  0  0  0
   25.4278    8.4804   53.9645 C   0  0  0  0  0  0  0  0  0  0  0  0
   25.1004    7.3899   53.3655 N   0  0  0  0  0  0  0  0  0  0  0  0
   27.8678    9.1884   56.7169 C   0  0  0  0  0  0  0  0  0  0  0  0
   29.0381    8.7883   56.1076 C   0  0  0  0  0  0  0  0  0  0  0  0
   29.0105    8.2982   54.8188 C   0  0  0  0  0  0  0  0  0  0  0  0
   27.8330    8.1939   54.1098 C   0  0  0  0  0  0  0  0  0  0  0  0
   26.6706    8.5908   54.7137 C   0  0  0  0  0  0  0  0  0  0  0  0
   26.7013    9.0788   55.9983 C   0  0  0  0  0  0  0  0  0  0  0  0
   28.6354    9.0901   59.0177 C   0  0  0  0  0  0  0  0  0  0  0  0
   27.8613    9.6819   58.0018 O   0  0  0  0  0  0  0  0  0  0  0  0
 22 23  1  0  0  0
 23 16  1  0  0  0
 16 17  2  0  0  0
 17 18  1  0  0  0
 18 19  2  0  0  0
 19 20  1  0  0  0
 20 14  1  0  0  0
 14 15  2  0  0  0
 15  1  1  0  0  0
  1  2  1  0  0  0
  2  3  2  0  0  0
  2  4  1  0  0  0
  4  7  1  0  0  0
  7  8  2  0  0  0
  8  9  1  0  0  0
  9 10  2  0  0  0
 10 11  1  0  0  0
 10 12  1  0  0  0
 20 21  2  0  0  0
 21 16  1  0  0  0
 12  7  1  0  0  0
  1  5  1  0  0  0
  4  6  1  0  0  0
 11 13  1  0  0  0
M  END
> <minimizedAffinity>
12.34813

> <CNNscore>
0.5345870852

> <CNNaffinity>
5.7495179176

> <CNN_VS>
3.0736179352

> <CNNaffinity_variance>
0.5094272494

$$$$
[H]Sc1nnc(N([H])C(=O)N([H])N=C([H])c2c([H])c([H])c([H])c(OC([H])([H])[H])c2[H])s1


 23 24  0  0  0  0  0  0  0  0999 V2000
   22.6055    7.8648   52.8348 N   0  0  0  0  0  0  0  0  0  0  0  0
   21.6834    6.8981   53.2935 C   0  0  0  0  0  0  0  0  0  0  0  0
   22.0051    6.1225   54.2276 O   0  0  0  0  0  0  0  0  0  0  0  0
   20.3994    6.7773   52.7273 N   0  0  0  0  0  0  0  0  0  0  0  0
   22.3174    8.5013   52.0555 H   0  0  0  0  0  0  0  0  0  0  0  0
   20.1116    7.4030   51.9585 H   0  0  0  0  0  0  0  0  0  0  0  0
   19.4660    5.7987   53.1916 C   0  0  0  0  0  0  0  0  0  0  0  0
   19.6160    4.4853   53.3379 N   0  0  0  0  0  0  0  0  0  0  0  0
   18.6598    3.7811   53.7686 N   0  0  0  0  0  0  0  0  0  0  0  0
   17.5033    4.3544   54.0756 C   0  0  0  0  0  0  0  0  0  0  0  0
   16.0618    3.5053   54.6932 S   0  0  0  0  0  0  0  0  0  0  0  0
   17.8396    5.9871   53.7162 S   0  0  0  0  0  0  0  0  0  0  0  0
   16.4070    2.5465   55.6849 H   0  0  0  0  0  0  0  0  0  0  0  0
   24.1341    8.5792   54.4808 C   0  0  0  0  0  0  0  0  0  0  0  0
   23.8752    8.0360   53.3437 N   0  0  0  0  0  0  0  0  0  0  0  0
   27.8688    8.3750   54.6843 C   0  0  0  0  0  0  0  0  0  0  0  0
   28.0788    9.0243   55.8823 C   0  0  0  0  0  0  0  0  0  0  0  0
   27.0057    9.5138   56.5973 C   0  0  0  0  0  0  0  0  0  0  0  0
   25.7110    9.3725   56.1459 C   0  0  0  0  0  0  0  0  0  0  0  0
   25.5014    8.7280   54.9567 C   0  0  0  0  0  0  0  0  0  0  0  0
   26.5729    8.2413   54.2464 C   0  0  0  0  0  0  0  0  0  0  0  0
   28.9516    6.5275   53.5412 C   0  0  0  0  0  0  0  0  0  0  0  0
   28.9179    7.8750   53.9469 O   0  0  0  0  0  0  0  0  0  0  0  0
 22 23  1  0  0  0
 23 16  1  0  0  0
 16 17  2  0  0  0
 17 18  1  0  0  0
 18 19  2  0  0  0
 19 20  1  0  0  0
 20 14  1  0  0  0
 14 15  2  0  0  0
 15  1  1  0  0  0
  1  2  1  0  0  0
  2  3  2  0  0  0
  2  4  1  0  0  0
  4  7  1  0  0  0
  7  8  2  0  0  0
  8  9  1  0  0  0
  9 10  2  0  0  0
 10 11  1  0  0  0
 10 12  1  0  0  0
 20 21  2  0  0  0
 21 16  1  0  0  0
 12  7  1  0  0  0
  1  5  1  0  0  0
  4  6  1  0  0  0
 11 13  1  0  0  0
M  END
> <minimizedAffinity>
15.95423

> <CNNscore>
0.5064250827

> <CNNaffinity>
5.4787073135

> <CNN_VS>
2.7745547295

> <CNNaffinity_variance>
0.3567084968

$$$$
[H]Sc1nnc(N([H])C(=O)N([H])N=C([H])c2c([H])c([H])c([H])c(OC([H])([H])[H])c2[H])s1


 23 24  0  0  0  0  0  0  0  0999 V2000
   22.2304    5.1952   53.3087 N   0  0  0  0  0  0  0  0  0  0  0  0
   23.4726    4.5417   53.1505 C   0  0  0  0  0  0  0  0  0  0  0  0
   24.5279    5.2182   53.0701 O   0  0  0  0  0  0  0  0  0  0  0  0
   23.5632    3.1380   53.0794 N   0  0  0  0  0  0  0  0  0  0  0  0
   21.3631    4.6128   53.3736 H   0  0  0  0  0  0  0  0  0  0  0  0
   22.7103    2.5602   53.1430 H   0  0  0  0  0  0  0  0  0  0  0  0
   24.8207    2.4765   52.9193 C   0  0  0  0  0  0  0  0  0  0  0  0
   25.2717    1.3621   53.4883 N   0  0  0  0  0  0  0  0  0  0  0  0
   26.4275    0.9321   53.2143 N   0  0  0  0  0  0  0  0  0  0  0  0
   27.1926    1.5949   52.3564 C   0  0  0  0  0  0  0  0  0  0  0  0
   28.8405    1.1230   51.8648 S   0  0  0  0  0  0  0  0  0  0  0  0
   26.1711    2.8957   51.9411 S   0  0  0  0  0  0  0  0  0  0  0  0
   28.9300   -0.2742   51.6164 H   0  0  0  0  0  0  0  0  0  0  0  0
   21.7781    7.1997   54.4636 C   0  0  0  0  0  0  0  0  0  0  0  0
   22.0716    6.5624   53.3852 N   0  0  0  0  0  0  0  0  0  0  0  0
   21.6379   10.7654   53.3250 C   0  0  0  0  0  0  0  0  0  0  0  0
   21.3302   11.3852   54.5176 C   0  0  0  0  0  0  0  0  0  0  0  0
   21.1750   10.6340   55.6638 C   0  0  0  0  0  0  0  0  0  0  0  0
   21.3198    9.2633   55.6552 C   0  0  0  0  0  0  0  0  0  0  0  0
   21.6253    8.6470   54.4718 C   0  0  0  0  0  0  0  0  0  0  0  0
   21.7793    9.3984   53.3312 C   0  0  0  0  0  0  0  0  0  0  0  0
   21.1929   11.0813   50.9597 C   0  0  0  0  0  0  0  0  0  0  0  0
   21.7994   11.4864   52.1637 O   0  0  0  0  0  0  0  0  0  0  0  0
 22 23  1  0  0  0
 23 16  1  0  0  0
 16 17  2  0  0  0
 17 18  1  0  0  0
 18 19  2  0  0  0
 19 20  1  0  0  0
 20 14  1  0  0  0
 14 15  2  0  0  0
 15  1  1  0  0  0
  1  2  1  0  0  0
  2  3  2  0  0  0
  2  4  1  0  0  0
  4  7  1  0  0  0
  7  8  2  0  0  0
  8  9  1  0  0  0
  9 10  2  0  0  0
 10 11  1  0  0  0
 10 12  1  0  0  0
 20 21  2  0  0  0
 21 16  1  0  0  0
 12  7  1  0  0  0
  1  5  1  0  0  0
  4  6  1  0  0  0
 11 13  1  0  0  0
M  END
> <minimizedAffinity>
38.14317

> <CNNscore>
0.5005610585

> <CNNaffinity>
4.9476585388

> <CNN_VS>
2.4766051769

> <CNNaffinity_variance>
0.4444156289

$$$$
[H]Sc1nnc(N([H])C(=O)N([H])N=C([H])c2c([H])c([H])c([H])c(OC([H])([H])[H])c2[H])s1


 23 24  0  0  0  0  0  0  0  0999 V2000
   20.9954    7.9110   53.3521 N   0  0  0  0  0  0  0  0  0  0  0  0
   22.3327    7.7934   53.7916 C   0  0  0  0  0  0  0  0  0  0  0  0
   22.7607    6.6848   54.1983 O   0  0  0  0  0  0  0  0  0  0  0  0
   23.2095    8.8956   53.7871 N   0  0  0  0  0  0  0  0  0  0  0  0
   20.6588    8.8437   53.0171 H   0  0  0  0  0  0  0  0  0  0  0  0
   22.8814    9.8170   53.4576 H   0  0  0  0  0  0  0  0  0  0  0  0
   24.5632    8.7765   54.2321 C   0  0  0  0  0  0  0  0  0  0  0  0
   25.0927    9.0503   55.4211 N   0  0  0  0  0  0  0  0  0  0  0  0
   26.3279    8.8768   55.6212 N   0  0  0  0  0  0  0  0  0  0  0  0
   27.0980    8.4202   54.6420 C   0  0  0  0  0  0  0  0  0  0  0  0
   28.8520    8.1218   54.7616 S   0  0  0  0  0  0  0  0  0  0  0  0
   25.9600    8.2413   53.3845 S   0  0  0  0  0  0  0  0  0  0  0  0
   29.1888    7.4788   55.9843 H   0  0  0  0  0  0  0  0  0  0  0  0
   20.4006    5.6318   53.4395 C   0  0  0  0  0  0  0  0  0  0  0  0
   20.0867    6.8747   53.3305 N   0  0  0  0  0  0  0  0  0  0  0  0
   17.2514    3.7145   54.1009 C   0  0  0  0  0  0  0  0  0  0  0  0
   17.4865    2.5955   53.3304 C   0  0  0  0  0  0  0  0  0  0  0  0
   18.6600    2.4873   52.6139 C   0  0  0  0  0  0  0  0  0  0  0  0
   19.6195    3.4765   52.6439 C   0  0  0  0  0  0  0  0  0  0  0  0
   19.3870    4.5878   53.4084 C   0  0  0  0  0  0  0  0  0  0  0  0
   18.2165    4.6928   54.1214 C   0  0  0  0  0  0  0  0  0  0  0  0
   16.0301    3.4923   56.1869 C   0  0  0  0  0  0  0  0  0  0  0  0
   16.0907    3.8530   54.8276 O   0  0  0  0  0  0  0  0  0  0  0  0
 22 23  1  0  0  0
 23 16  1  0  0  0
 16 17  2  0  0  0
 17 18  1  0  0  0
 18 19  2  0  0  0
 19 20  1  0  0  0
 20 14  1  0  0  0
 14 15  2  0  0  0
 15  1  1  0  0  0
  1  2  1  0  0  0
  2  3  2  0  0  0
  2  4  1  0  0  0
  4  7  1  0  0  0
  7  8  2  0  0  0
  8  9  1  0  0  0
  9 10  2  0  0  0
 10 11  1  0  0  0
 10 12  1  0  0  0
 20 21  2  0  0  0
 21 16  1  0  0  0
 12  7  1  0  0  0
  1  5  1  0  0  0
  4  6  1  0  0  0
 11 13  1  0  0  0
M  END
> <minimizedAffinity>
16.57685

> <CNNscore>
0.4784047604

> <CNNaffinity>
5.8257317543

> <CNN_VS>
2.7870578766

> <CNNaffinity_variance>
0.3859778047

$$$$
[H]Sc1nnc(N([H])C(=O)N([H])N=C([H])c2c([H])c([H])c([H])c(OC([H])([H])[H])c2[H])s1


 23 24  0  0  0  0  0  0  0  0999 V2000
   27.4384    8.7829   52.5189 N   0  0  0  0  0  0  0  0  0  0  0  0
   26.1206    8.4407   52.8953 C   0  0  0  0  0  0  0  0  0  0  0  0
   25.1785    8.5946   52.0790 O   0  0  0  0  0  0  0  0  0  0  0  0
   25.8294    7.9265   54.1738 N   0  0  0  0  0  0  0  0  0  0  0  0
   28.2089    8.6469   53.2142 H   0  0  0  0  0  0  0  0  0  0  0  0
   26.5864    7.7909   54.8622 H   0  0  0  0  0  0  0  0  0  0  0  0
   24.4954    7.5801   54.5548 C   0  0  0  0  0  0  0  0  0  0  0  0
   24.0314    6.4551   55.0917 N   0  0  0  0  0  0  0  0  0  0  0  0
   22.8025    6.3396   55.3606 N   0  0  0  0  0  0  0  0  0  0  0  0
   21.9735    7.3439   55.1063 C   0  0  0  0  0  0  0  0  0  0  0  0
   20.2190    7.3404   55.4253 S   0  0  0  0  0  0  0  0  0  0  0  0
   23.0446    8.4964   54.4485 S   0  0  0  0  0  0  0  0  0  0  0  0
   19.9217    6.7749   56.6956 H   0  0  0  0  0  0  0  0  0  0  0  0
   28.1460    8.5707   50.2805 C   0  0  0  0  0  0  0  0  0  0  0  0
   27.7916    9.2899   51.2866 N   0  0  0  0  0  0  0  0  0  0  0  0
   29.0237   11.1132   47.6735 C   0  0  0  0  0  0  0  0  0  0  0  0
   29.1892   10.2883   46.5813 C   0  0  0  0  0  0  0  0  0  0  0  0
   29.0128    8.9269   46.7138 C   0  0  0  0  0  0  0  0  0  0  0  0
   28.6713    8.3561   47.9212 C   0  0  0  0  0  0  0  0  0  0  0  0
   28.5066    9.1741   49.0061 C   0  0  0  0  0  0  0  0  0  0  0  0
   28.6832   10.5306   48.8709 C   0  0  0  0  0  0  0  0  0  0  0  0
   29.0759   13.1403   46.3391 C   0  0  0  0  0  0  0  0  0  0  0  0
   29.1923   12.4757   47.5745 O   0  0  0  0  0  0  0  0  0  0  0  0
 22 23  1  0  0  0
 23 16  1  0  0  0
 16 17  2  0  0  0
 17 18  1  0  0  0
 18 19  2  0  0  0
 19 20  1  0  0  0
 20 14  1  0  0  0
 14 15  2  0  0  0
 15  1  1  0  0  0
  1  2  1  0  0  0
  2  3  2  0  0  0
  2  4  1  0  0  0
  4  7  1  0  0  0
  7  8  2  0  0  0
  8  9  1  0  0  0
  9 10  2  0  0  0
 10 11  1  0  0  0
 10 12  1  0  0  0
 20 21  2  0  0  0
 21 16  1  0  0  0
 12  7  1  0  0  0
  1  5  1  0  0  0
  4  6  1  0  0  0
 11 13  1  0  0  0
M  END
> <minimizedAffinity>
24.22520

> <CNNscore>
0.4742161036

> <CNNaffinity>
5.0684928894

> <CNN_VS>
2.4035608768

> <CNNaffinity_variance>
0.0634565577

$$$$
[H]Sc1nnc(N([H])C(=O)N([H])N=C([H])c2c([H])c([H])c([H])c(OC([H])([H])[H])c2[H])s1


 23 24  0  0  0  0  0  0  0  0999 V2000
   22.7015    8.0642   52.9942 N   0  0  0  0  0  0  0  0  0  0  0  0
   21.7477    7.1364   53.4682 C   0  0  0  0  0  0  0  0  0  0  0  0
   21.8530    6.6718   54.6304 O   0  0  0  0  0  0  0  0  0  0  0  0
   20.6703    6.7122   52.6664 N   0  0  0  0  0  0  0  0  0  0  0  0
   22.5952    8.4391   52.0227 H   0  0  0  0  0  0  0  0  0  0  0  0
   20.5621    7.0795   51.7078 H   0  0  0  0  0  0  0  0  0  0  0  0
   19.7048    5.7730   53.1463 C   0  0  0  0  0  0  0  0  0  0  0  0
   19.8260    4.4658   53.3596 N   0  0  0  0  0  0  0  0  0  0  0  0
   18.8439    3.7993   53.7922 N   0  0  0  0  0  0  0  0  0  0  0  0
   17.6890    4.4061   54.0340 C   0  0  0  0  0  0  0  0  0  0  0  0
   16.2134    3.6122   54.6442 S   0  0  0  0  0  0  0  0  0  0  0  0
   18.0664    6.0138   53.6084 S   0  0  0  0  0  0  0  0  0  0  0  0
   16.5095    2.6966   55.6911 H   0  0  0  0  0  0  0  0  0  0  0  0
   24.8823    7.8769   53.8688 C   0  0  0  0  0  0  0  0  0  0  0  0
   23.7775    8.5202   53.7252 N   0  0  0  0  0  0  0  0  0  0  0  0
   28.2055    9.3271   54.8090 C   0  0  0  0  0  0  0  0  0  0  0  0
   28.0386    9.4429   56.1727 C   0  0  0  0  0  0  0  0  0  0  0  0
   26.8532    9.0485   56.7570 C   0  0  0  0  0  0  0  0  0  0  0  0
   25.8146    8.5348   56.0103 C   0  0  0  0  0  0  0  0  0  0  0  0
   25.9793    8.4195   54.6565 C   0  0  0  0  0  0  0  0  0  0  0  0
   27.1619    8.8134   54.0770 C   0  0  0  0  0  0  0  0  0  0  0  0
   29.3691   10.5480   53.0631 C   0  0  0  0  0  0  0  0  0  0  0  0
   29.3760    9.7115   54.1952 O   0  0  0  0  0  0  0  0  0  0  0  0
 22 23  1  0  0  0
 23 16  1  0  0  0
 16 17  2  0  0  0
 17 18  1  0  0  0
 18 19  2  0  0  0
 19 20  1  0  0  0
 20 14  1  0  0  0
 14 15  2  0  0  0
 15  1  1  0  0  0
  1  2  1  0  0  0
  2  3  2  0  0  0
  2  4  1  0  0  0
  4  7  1  0  0  0
  7  8  2  0  0  0
  8  9  1  0  0  0
  9 10  2  0  0  0
 10 11  1  0  0  0
 10 12  1  0  0  0
 20 21  2  0  0  0
 21 16  1  0  0  0
 12  7  1  0  0  0
  1  5  1  0  0  0
  4  6  1  0  0  0
 11 13  1  0  0  0
M  END
> <minimizedAffinity>
17.96468

> <CNNscore>
0.4725086987

> <CNNaffinity>
5.4634103775

> <CNN_VS>
2.5815088749

> <CNNaffinity_variance>
0.3884452581

$$$$
[H]Sc1nnc(N([H])C(=O)N([H])N=C([H])c2c([H])c([H])c([H])c(OC([H])([H])[H])c2[H])s1


 23 24  0  0  0  0  0  0  0  0999 V2000
   22.5356    9.8691   55.4072 N   0  0  0  0  0  0  0  0  0  0  0  0
   22.2692    9.3029   54.1409 C   0  0  0  0  0  0  0  0  0  0  0  0
   23.1728    8.6748   53.5355 O   0  0  0  0  0  0  0  0  0  0  0  0
   21.0056    9.4236   53.5307 N   0  0  0  0  0  0  0  0  0  0  0  0
   21.7687   10.3884   55.8947 H   0  0  0  0  0  0  0  0  0  0  0  0
   20.2467    9.9350   54.0081 H   0  0  0  0  0  0  0  0  0  0  0  0
   20.7359    8.8504   52.2488 C   0  0  0  0  0  0  0  0  0  0  0  0
   21.4581    7.9918   51.5344 N   0  0  0  0  0  0  0  0  0  0  0  0
   21.0443    7.5974   50.4079 N   0  0  0  0  0  0  0  0  0  0  0  0
   19.8860    8.0416   49.9372 C   0  0  0  0  0  0  0  0  0  0  0  0
   19.1640    7.5844   48.3720 S   0  0  0  0  0  0  0  0  0  0  0  0
   19.3921    9.0756   51.2002 S   0  0  0  0  0  0  0  0  0  0  0  0
   19.2824    6.1879   48.1318 H   0  0  0  0  0  0  0  0  0  0  0  0
   24.8905    9.9336   55.4873 C   0  0  0  0  0  0  0  0  0  0  0  0
   23.7474    9.7882   56.0593 N   0  0  0  0  0  0  0  0  0  0  0  0
   27.6854   10.7223   57.8531 C   0  0  0  0  0  0  0  0  0  0  0  0
   28.4906    9.6222   57.6472 C   0  0  0  0  0  0  0  0  0  0  0  0
   28.1099    8.6495   56.7465 C   0  0  0  0  0  0  0  0  0  0  0  0
   26.9330    8.7435   56.0350 C   0  0  0  0  0  0  0  0  0  0  0  0
   26.1330    9.8352   56.2388 C   0  0  0  0  0  0  0  0  0  0  0  0
   26.5150   10.8029   57.1371 C   0  0  0  0  0  0  0  0  0  0  0  0
   29.1070   11.5398   59.6429 C   0  0  0  0  0  0  0  0  0  0  0  0
   28.0367   11.7103   58.7447 O   0  0  0  0  0  0  0  0  0  0  0  0
 22 23  1  0  0  0
 23 16  1  0  0  0
 16 17  2  0  0  0
 17 18  1  0  0  0
 18 19  2  0  0  0
 19 20  1  0  0  0
 20 14  1  0  0  0
 14 15  2  0  0  0
 15  1  1  0  0  0
  1  2  1  0  0  0
  2  3  2  0  0  0
  2  4  1  0  0  0
  4  7  1  0  0  0
  7  8  2  0  0  0
  8  9  1  0  0  0
  9 10  2  0  0  0
 10 11  1  0  0  0
 10 12  1  0  0  0
 20 21  2  0  0  0
 21 16  1  0  0  0
 12  7  1  0  0  0
  1  5  1  0  0  0
  4  6  1  0  0  0
 11 13  1  0  0  0
M  END
> <minimizedAffinity>
34.90979

> <CNNscore>
0.4687604308

> <CNNaffinity>
4.9756937027

> <CNN_VS>
2.3324084282

> <CNNaffinity_variance>
0.3737319708

$$$$
[H]Sc1nnc(N([H])C(=O)N([H])N=C([H])c2c([H])c([H])c([H])c(OC([H])([H])[H])c2[H])s1


 23 24  0  0  0  0  0  0  0  0999 V2000
   21.7399    8.6265   54.0237 N   0  0  0  0  0  0  0  0  0  0  0  0
   21.4429    7.2456   54.0172 C   0  0  0  0  0  0  0  0  0  0  0  0
   22.1702    6.4478   54.6592 O   0  0  0  0  0  0  0  0  0  0  0  0
   20.3427    6.7317   53.3036 N   0  0  0  0  0  0  0  0  0  0  0  0
   21.1211    9.2741   53.4822 H   0  0  0  0  0  0  0  0  0  0  0  0
   19.7302    7.3671   52.7684 H   0  0  0  0  0  0  0  0  0  0  0  0
   20.0421    5.3338   53.2971 C   0  0  0  0  0  0  0  0  0  0  0  0
   18.9014    4.7099   53.5778 N   0  0  0  0  0  0  0  0  0  0  0  0
   18.8346    3.4500   53.5145 N   0  0  0  0  0  0  0  0  0  0  0  0
   19.9058    2.7483   53.1672 C   0  0  0  0  0  0  0  0  0  0  0  0
   19.9768    0.9717   53.0314 S   0  0  0  0  0  0  0  0  0  0  0  0
   21.0490    3.9905   52.9261 S   0  0  0  0  0  0  0  0  0  0  0  0
   18.8241    0.4525   52.3806 H   0  0  0  0  0  0  0  0  0  0  0  0
   23.9566    8.6473   54.8252 C   0  0  0  0  0  0  0  0  0  0  0  0
   22.7989    9.1942   54.6995 N   0  0  0  0  0  0  0  0  0  0  0  0
   27.2444    9.2800   56.5046 C   0  0  0  0  0  0  0  0  0  0  0  0
   27.0477   10.5749   56.9352 C   0  0  0  0  0  0  0  0  0  0  0  0
   25.8542   11.2140   56.6718 C   0  0  0  0  0  0  0  0  0  0  0  0
   24.8368   10.5905   55.9817 C   0  0  0  0  0  0  0  0  0  0  0  0
   25.0312    9.3050   55.5538 C   0  0  0  0  0  0  0  0  0  0  0  0
   26.2217    8.6706   55.8178 C   0  0  0  0  0  0  0  0  0  0  0  0
   28.8968    8.4242   58.0634 C   0  0  0  0  0  0  0  0  0  0  0  0
   28.4236    8.6143   56.7513 O   0  0  0  0  0  0  0  0  0  0  0  0
 22 23  1  0  0  0
 23 16  1  0  0  0
 16 17  2  0  0  0
 17 18  1  0  0  0
 18 19  2  0  0  0
 19 20  1  0  0  0
 20 14  1  0  0  0
 14 15  2  0  0  0
 15  1  1  0  0  0
  1  2  1  0  0  0
  2  3  2  0  0  0
  2  4  1  0  0  0
  4  7  1  0  0  0
  7  8  2  0  0  0
  8  9  1  0  0  0
  9 10  2  0  0  0
 10 11  1  0  0  0
 10 12  1  0  0  0
 20 21  2  0  0  0
 21 16  1  0  0  0
 12  7  1  0  0  0
  1  5  1  0  0  0
  4  6  1  0  0  0
 11 13  1  0  0  0
M  END
> <minimizedAffinity>
31.86231

> <CNNscore>
0.4586267471

> <CNNaffinity>
5.3143715858

> <CNN_VS>
2.4373128414

> <CNNaffinity_variance>
0.4833784997

$$$$
[H]c1c([H])c(-c2c([H])c(SC([H])([H])[H])n([H])c2-c2c([H])c([H])c(S(=O)(=O)C([H])([H])[H])c([H])c2[H])c([H])c([H])c1F


 25 27  0  0  0  0  0  0  0  0999 V2000
   20.5075    5.0032   53.5213 C   0  0  0  0  0  0  0  0  0  0  0  0
   21.8594    5.1034   53.8828 C   0  0  0  0  0  0  0  0  0  0  0  0
   22.2872    6.3788   53.6087 C   0  0  0  0  0  0  0  0  0  0  0  0
   21.2127    7.0487   53.0872 C   0  0  0  0  0  0  0  0  0  0  0  0
   20.1552    6.2068   53.0430 N   0  0  0  0  0  0  0  0  0  0  0  0
   19.2017    6.4256   52.6979 H   0  0  0  0  0  0  0  0  0  0  0  0
   23.6185    6.9141   53.8291 C   0  0  0  0  0  0  0  0  0  0  0  0
   24.1904    7.7748   52.9147 C   0  0  0  0  0  0  0  0  0  0  0  0
   25.4312    8.2949   53.0807 C   0  0  0  0  0  0  0  0  0  0  0  0
   26.1693    7.9706   54.1910 C   0  0  0  0  0  0  0  0  0  0  0  0
   27.3938    8.5106   54.3107 F   0  0  0  0  0  0  0  0  0  0  0  0
   25.6209    7.1072   55.1286 C   0  0  0  0  0  0  0  0  0  0  0  0
   24.3637    6.5879   54.9481 C   0  0  0  0  0  0  0  0  0  0  0  0
   21.2371    8.4330   52.6567 C   0  0  0  0  0  0  0  0  0  0  0  0
   20.9956    8.7426   51.3139 C   0  0  0  0  0  0  0  0  0  0  0  0
   21.0314   10.0794   50.9805 C   0  0  0  0  0  0  0  0  0  0  0  0
   21.2848   11.0895   51.8749 C   0  0  0  0  0  0  0  0  0  0  0  0
   21.5220   10.7731   53.1971 C   0  0  0  0  0  0  0  0  0  0  0  0
   21.4937    9.4611   53.5590 C   0  0  0  0  0  0  0  0  0  0  0  0
   21.3173   12.7719   51.4180 S   0  0  0  0  0  0  0  0  0  0  0  0
   20.2944   13.6839   52.5581 C   0  0  0  0  0  0  0  0  0  0  0  0
   20.7141   12.9134   50.0355 O   0  0  0  0  0  0  0  0  0  0  0  0
   22.7080   13.2930   51.3470 O   0  0  0  0  0  0  0  0  0  0  0  0
   17.7644    4.0281   54.1842 C   0  0  0  0  0  0  0  0  0  0  0  0
   19.4319    3.5950   53.6443 S   0  0  0  0  0  0  0  0  0  0  0  0
 24 25  1  0  0  0
 25  1  1  0  0  0
  1  2  2  0  0  0
  2  3  1  0  0  0
  3  7  1  0  0  0
  7  8  2  0  0  0
  8  9  1  0  0  0
  9 10  2  0  0  0
 10 11  1  0  0  0
 10 12  1  0  0  0
 12 13  2  0  0  0
  3  4  2  0  0  0
  4 14  1  0  0  0
 14 15  2  0  0  0
 15 16  1  0  0  0
 16 17  2  0  0  0
 17 20  1  0  0  0
 20 21  1  0  0  0
 20 22  2  0  0  0
 20 23  2  0  0  0
 17 18  1  0  0  0
 18 19  2  0  0  0
  4  5  1  0  0  0
  5  1  1  0  0  0
 13  7  1  0  0  0
 19 14  1  0  0  0
  5  6  1  0  0  0
M  END
> <minimizedAffinity>
14.80115

> <CNNscore>
0.6012920737

> <CNNaffinity>
6.1641936302

> <CNN_VS>
3.7064807415

> <CNNaffinity_variance>
0.3752955198

$$$$
[H]c1c([H])c(-c2c([H])c(SC([H])([H])[H])n([H])c2-c2c([H])c([H])c(S(=O)(=O)C([H])([H])[H])c([H])c2[H])c([H])c([H])c1F


 25 27  0  0  0  0  0  0  0  0999 V2000
   22.0432    5.0025   53.2985 C   0  0  0  0  0  0  0  0  0  0  0  0
   23.2493    5.3656   53.9164 C   0  0  0  0  0  0  0  0  0  0  0  0
   23.3886    6.7283   53.8262 C   0  0  0  0  0  0  0  0  0  0  0  0
   22.2838    7.1918   53.1628 C   0  0  0  0  0  0  0  0  0  0  0  0
   21.4891    6.1418   52.8550 N   0  0  0  0  0  0  0  0  0  0  0  0
   20.5820    6.1761   52.3530 H   0  0  0  0  0  0  0  0  0  0  0  0
   24.4911    7.5239   54.3352 C   0  0  0  0  0  0  0  0  0  0  0  0
   24.3302    8.3129   55.4557 C   0  0  0  0  0  0  0  0  0  0  0  0
   25.3322    9.0726   55.9619 C   0  0  0  0  0  0  0  0  0  0  0  0
   26.5641    9.0766   55.3576 C   0  0  0  0  0  0  0  0  0  0  0  0
   27.5252    9.8460   55.8959 F   0  0  0  0  0  0  0  0  0  0  0  0
   26.7566    8.2930   54.2288 C   0  0  0  0  0  0  0  0  0  0  0  0
   25.7336    7.5287   53.7268 C   0  0  0  0  0  0  0  0  0  0  0  0
   22.0371    8.5862   52.8513 C   0  0  0  0  0  0  0  0  0  0  0  0
   22.0358    9.5337   53.8807 C   0  0  0  0  0  0  0  0  0  0  0  0
   21.7980   10.8389   53.5077 C   0  0  0  0  0  0  0  0  0  0  0  0
   21.5695   11.2409   52.2151 C   0  0  0  0  0  0  0  0  0  0  0  0
   21.5726   10.2981   51.2072 C   0  0  0  0  0  0  0  0  0  0  0  0
   21.8046    8.9994   51.5428 C   0  0  0  0  0  0  0  0  0  0  0  0
   21.2768   12.9035   51.7789 S   0  0  0  0  0  0  0  0  0  0  0  0
   20.1960   13.6232   53.0003 C   0  0  0  0  0  0  0  0  0  0  0  0
   20.5603   12.9386   50.4446 O   0  0  0  0  0  0  0  0  0  0  0  0
   22.5474   13.6585   51.6164 O   0  0  0  0  0  0  0  0  0  0  0  0
   22.5828    2.1156   52.7598 C   0  0  0  0  0  0  0  0  0  0  0  0
   21.3431    3.3812   53.1078 S   0  0  0  0  0  0  0  0  0  0  0  0
 24 25  1  0  0  0
 25  1  1  0  0  0
  1  2  2  0  0  0
  2  3  1  0  0  0
  3  7  1  0  0  0
  7  8  2  0  0  0
  8  9  1  0  0  0
  9 10  2  0  0  0
 10 11  1  0  0  0
 10 12  1  0  0  0
 12 13  2  0  0  0
  3  4  2  0  0  0
  4 14  1  0  0  0
 14 15  2  0  0  0
 15 16  1  0  0  0
 16 17  2  0  0  0
 17 20  1  0  0  0
 20 21  1  0  0  0
 20 22  2  0  0  0
 20 23  2  0  0  0
 17 18  1  0  0  0
 18 19  2  0  0  0
  4  5  1  0  0  0
  5  1  1  0  0  0
 13  7  1  0  0  0
 19 14  1  0  0  0
  5  6  1  0  0  0
M  END
> <minimizedAffinity>
30.71900

> <CNNscore>
0.5574102998

> <CNNaffinity>
5.8022756577

> <CNN_VS>
3.2342481613

> <CNNaffinity_variance>
0.3593825698

$$$$
[H]c1c([H])c(-c2c([H])c(SC([H])([H])[H])n([H])c2-c2c([H])c([H])c(S(=O)(=O)C([H])([H])[H])c([H])c2[H])c([H])c([H])c1F


 25 27  0  0  0  0  0  0  0  0999 V2000
   20.2813    5.3718   53.3649 C   0  0  0  0  0  0  0  0  0  0  0  0
   19.9599    6.6834   52.9846 C   0  0  0  0  0  0  0  0  0  0  0  0
   21.0858    7.4588   53.1108 C   0  0  0  0  0  0  0  0  0  0  0  0
   22.0812    6.6334   53.5617 C   0  0  0  0  0  0  0  0  0  0  0  0
   21.5790    5.3862   53.7077 N   0  0  0  0  0  0  0  0  0  0  0  0
   22.0914    4.5450   54.0330 H   0  0  0  0  0  0  0  0  0  0  0  0
   21.2002    8.8769   52.8220 C   0  0  0  0  0  0  0  0  0  0  0  0
   21.0878    9.3422   51.5278 C   0  0  0  0  0  0  0  0  0  0  0  0
   21.1909   10.6570   51.2146 C   0  0  0  0  0  0  0  0  0  0  0  0
   21.4153   11.5831   52.2020 C   0  0  0  0  0  0  0  0  0  0  0  0
   21.5107   12.8741   51.8422 F   0  0  0  0  0  0  0  0  0  0  0  0
   21.5328   11.1455   53.5135 C   0  0  0  0  0  0  0  0  0  0  0  0
   21.4264    9.8115   53.8166 C   0  0  0  0  0  0  0  0  0  0  0  0
   23.4406    7.0578   53.8340 C   0  0  0  0  0  0  0  0  0  0  0  0
   24.0521    6.6860   55.0360 C   0  0  0  0  0  0  0  0  0  0  0  0
   25.3458    7.1229   55.2226 C   0  0  0  0  0  0  0  0  0  0  0  0
   26.0409    7.8816   54.3140 C   0  0  0  0  0  0  0  0  0  0  0  0
   25.4282    8.2432   53.1314 C   0  0  0  0  0  0  0  0  0  0  0  0
   24.1499    7.8273   52.9166 C   0  0  0  0  0  0  0  0  0  0  0  0
   27.6799    8.4128   54.5817 S   0  0  0  0  0  0  0  0  0  0  0  0
   27.7565    9.2218   56.1684 C   0  0  0  0  0  0  0  0  0  0  0  0
   28.0414    9.4324   53.5212 O   0  0  0  0  0  0  0  0  0  0  0  0
   28.6461    7.2893   54.4598 O   0  0  0  0  0  0  0  0  0  0  0  0
   17.7025    4.2220   54.3360 C   0  0  0  0  0  0  0  0  0  0  0  0
   19.2263    3.9435   53.4085 S   0  0  0  0  0  0  0  0  0  0  0  0
 24 25  1  0  0  0
 25  1  1  0  0  0
  1  2  2  0  0  0
  2  3  1  0  0  0
  3  7  1  0  0  0
  7  8  2  0  0  0
  8  9  1  0  0  0
  9 10  2  0  0  0
 10 11  1  0  0  0
 10 12  1  0  0  0
 12 13  2  0  0  0
  3  4  2  0  0  0
  4 14  1  0  0  0
 14 15  2  0  0  0
 15 16  1  0  0  0
 16 17  2  0  0  0
 17 20  1  0  0  0
 20 21  1  0  0  0
 20 22  2  0  0  0
 20 23  2  0  0  0
 17 18  1  0  0  0
 18 19  2  0  0  0
  4  5  1  0  0  0
  5  1  1  0  0  0
 13  7  1  0  0  0
 19 14  1  0  0  0
  5  6  1  0  0  0
M  END
> <minimizedAffinity>
7.54589

> <CNNscore>
0.5492231846

> <CNNaffinity>
6.0917253494

> <CNN_VS>
3.3457167149

> <CNNaffinity_variance>
0.1332439482

$$$$
[H]c1c([H])c(-c2c([H])c(SC([H])([H])[H])n([H])c2-c2c([H])c([H])c(S(=O)(=O)C([H])([H])[H])c([H])c2[H])c([H])c([H])c1F


 25 27  0  0  0  0  0  0  0  0999 V2000
   21.5969   10.8307   53.1594 C   0  0  0  0  0  0  0  0  0  0  0  0
   21.5839    9.4459   52.9349 C   0  0  0  0  0  0  0  0  0  0  0  0
   22.6297    8.8857   53.6256 C   0  0  0  0  0  0  0  0  0  0  0  0
   23.2729    9.9129   54.2632 C   0  0  0  0  0  0  0  0  0  0  0  0
   22.6385   11.0709   53.9713 N   0  0  0  0  0  0  0  0  0  0  0  0
   22.8918   12.0192   54.3072 H   0  0  0  0  0  0  0  0  0  0  0  0
   22.9850    7.4788   53.6723 C   0  0  0  0  0  0  0  0  0  0  0  0
   22.4202    6.6420   54.6129 C   0  0  0  0  0  0  0  0  0  0  0  0
   22.7260    5.3238   54.6927 C   0  0  0  0  0  0  0  0  0  0  0  0
   23.6282    4.7735   53.8176 C   0  0  0  0  0  0  0  0  0  0  0  0
   23.8993    3.4629   53.9366 F   0  0  0  0  0  0  0  0  0  0  0  0
   24.2131    5.5900   52.8602 C   0  0  0  0  0  0  0  0  0  0  0  0
   23.8945    6.9228   52.7906 C   0  0  0  0  0  0  0  0  0  0  0  0
   24.4439    9.7540   55.1033 C   0  0  0  0  0  0  0  0  0  0  0  0
   24.6510   10.6326   56.1721 C   0  0  0  0  0  0  0  0  0  0  0  0
   25.7830   10.4170   56.9281 C   0  0  0  0  0  0  0  0  0  0  0  0
   26.6885    9.4131   56.6897 C   0  0  0  0  0  0  0  0  0  0  0  0
   26.4749    8.5520   55.6325 C   0  0  0  0  0  0  0  0  0  0  0  0
   25.3653    8.7382   54.8662 C   0  0  0  0  0  0  0  0  0  0  0  0
   28.1086    9.1669   57.6710 S   0  0  0  0  0  0  0  0  0  0  0  0
   28.6230   10.7450   58.3211 C   0  0  0  0  0  0  0  0  0  0  0  0
   29.2236    8.6398   56.7913 O   0  0  0  0  0  0  0  0  0  0  0  0
   27.8706    8.1549   58.7340 O   0  0  0  0  0  0  0  0  0  0  0  0
   21.1803   12.9775   51.1265 C   0  0  0  0  0  0  0  0  0  0  0  0
   20.4892   12.0643   52.5222 S   0  0  0  0  0  0  0  0  0  0  0  0
 24 25  1  0  0  0
 25  1  1  0  0  0
  1  2  2  0  0  0
  2  3  1  0  0  0
  3  7  1  0  0  0
  7  8  2  0  0  0
  8  9  1  0  0  0
  9 10  2  0  0  0
 10 11  1  0  0  0
 10 12  1  0  0  0
 12 13  2  0  0  0
  3  4  2  0  0  0
  4 14  1  0  0  0
 14 15  2  0  0  0
 15 16  1  0  0  0
 16 17  2  0  0  0
 17 20  1  0  0  0
 20 21  1  0  0  0
 20 22  2  0  0  0
 20 23  2  0  0  0
 17 18  1  0  0  0
 18 19  2  0  0  0
  4  5  1  0  0  0
  5  1  1  0  0  0
 13  7  1  0  0  0
 19 14  1  0  0  0
  5  6  1  0  0  0
M  END
> <minimizedAffinity>
32.55513

> <CNNscore>
0.4886306524

> <CNNaffinity>
5.4316477776

> <CNN_VS>
2.6540696621

> <CNNaffinity_variance>
0.1681894958

$$$$
[H]c1c([H])c(-c2c([H])c(SC([H])([H])[H])n([H])c2-c2c([H])c([H])c(S(=O)(=O)C([H])([H])[H])c([H])c2[H])c([H])c([H])c1F


 25 27  0  0  0  0  0  0  0  0999 V2000
   26.3163    7.8276   54.1710 C   0  0  0  0  0  0  0  0  0  0  0  0
   25.5453    8.9878   54.3368 C   0  0  0  0  0  0  0  0  0  0  0  0
   24.2191    8.6348   54.3014 C   0  0  0  0  0  0  0  0  0  0  0  0
   24.1797    7.2785   54.1166 C   0  0  0  0  0  0  0  0  0  0  0  0
   25.4472    6.8130   54.0409 N   0  0  0  0  0  0  0  0  0  0  0  0
   25.7391    5.8270   53.9038 H   0  0  0  0  0  0  0  0  0  0  0  0
   23.0799    9.5248   54.4347 C   0  0  0  0  0  0  0  0  0  0  0  0
   22.5714    9.8343   55.6795 C   0  0  0  0  0  0  0  0  0  0  0  0
   21.5082   10.6582   55.8480 C   0  0  0  0  0  0  0  0  0  0  0  0
   20.8946   11.2202   54.7569 C   0  0  0  0  0  0  0  0  0  0  0  0
   19.8444   12.0295   54.9747 F   0  0  0  0  0  0  0  0  0  0  0  0
   21.3835   10.9278   53.4917 C   0  0  0  0  0  0  0  0  0  0  0  0
   22.4605   10.0921   53.3354 C   0  0  0  0  0  0  0  0  0  0  0  0
   22.9621    6.4976   54.0169 C   0  0  0  0  0  0  0  0  0  0  0  0
   22.1960    6.5597   52.8480 C   0  0  0  0  0  0  0  0  0  0  0  0
   21.0549    5.7872   52.8251 C   0  0  0  0  0  0  0  0  0  0  0  0
   20.6470    4.9853   53.8619 C   0  0  0  0  0  0  0  0  0  0  0  0
   21.4099    4.9315   55.0107 C   0  0  0  0  0  0  0  0  0  0  0  0
   22.5437    5.6830   55.0650 C   0  0  0  0  0  0  0  0  0  0  0  0
   19.1986    4.0168   53.7960 S   0  0  0  0  0  0  0  0  0  0  0  0
   19.2894    2.9669   52.3581 C   0  0  0  0  0  0  0  0  0  0  0  0
   18.0054    4.9349   53.6275 O   0  0  0  0  0  0  0  0  0  0  0  0
   18.9927    3.2537   55.0553 O   0  0  0  0  0  0  0  0  0  0  0  0
   28.9326    9.0627   54.9091 C   0  0  0  0  0  0  0  0  0  0  0  0
   28.0853    7.6725   54.1287 S   0  0  0  0  0  0  0  0  0  0  0  0
 24 25  1  0  0  0
 25  1  1  0  0  0
  1  2  2  0  0  0
  2  3  1  0  0  0
  3  7  1  0  0  0
  7  8  2  0  0  0
  8  9  1  0  0  0
  9 10  2  0  0  0
 10 11  1  0  0  0
 10 12  1  0  0  0
 12 13  2  0  0  0
  3  4  2  0  0  0
  4 14  1  0  0  0
 14 15  2  0  0  0
 15 16  1  0  0  0
 16 17  2  0  0  0
 17 20  1  0  0  0
 20 21  1  0  0  0
 20 22  2  0  0  0
 20 23  2  0  0  0
 17 18  1  0  0  0
 18 19  2  0  0  0
  4  5  1  0  0  0
  5  1  1  0  0  0
 13  7  1  0  0  0
 19 14  1  0  0  0
  5  6  1  0  0  0
M  END
> <minimizedAffinity>
24.49945

> <CNNscore>
0.4841955900

> <CNNaffinity>
5.9764027596

> <CNN_VS>
2.8937478065

> <CNNaffinity_variance>
0.4474207759

$$$$
[H]c1c([H])c(-c2c([H])c(SC([H])([H])[H])n([H])c2-c2c([H])c([H])c(S(=O)(=O)C([H])([H])[H])c([H])c2[H])c([H])c([H])c1F


 25 27  0  0  0  0  0  0  0  0999 V2000
   21.6290    9.4339   52.2327 C   0  0  0  0  0  0  0  0  0  0  0  0
   21.8173    8.0467   52.1406 C   0  0  0  0  0  0  0  0  0  0  0  0
   22.8884    7.7023   52.9273 C   0  0  0  0  0  0  0  0  0  0  0  0
   23.3483    8.8619   53.4921 C   0  0  0  0  0  0  0  0  0  0  0  0
   22.5800    9.8889   53.0634 N   0  0  0  0  0  0  0  0  0  0  0  0
   22.6824   10.8893   53.3184 H   0  0  0  0  0  0  0  0  0  0  0  0
   23.4283    6.3690   53.1235 C   0  0  0  0  0  0  0  0  0  0  0  0
   24.1342    5.7414   52.1176 C   0  0  0  0  0  0  0  0  0  0  0  0
   24.6525    4.4968   52.2584 C   0  0  0  0  0  0  0  0  0  0  0  0
   24.4844    3.8114   53.4352 C   0  0  0  0  0  0  0  0  0  0  0  0
   25.0159    2.5808   53.5266 F   0  0  0  0  0  0  0  0  0  0  0  0
   23.7789    4.4167   54.4654 C   0  0  0  0  0  0  0  0  0  0  0  0
   23.2595    5.6770   54.3095 C   0  0  0  0  0  0  0  0  0  0  0  0
   24.4801    8.9440   54.3947 C   0  0  0  0  0  0  0  0  0  0  0  0
   25.6969    8.3571   54.0312 C   0  0  0  0  0  0  0  0  0  0  0  0
   26.7277    8.4793   54.9377 C   0  0  0  0  0  0  0  0  0  0  0  0
   26.6208    9.1289   56.1423 C   0  0  0  0  0  0  0  0  0  0  0  0
   25.4158    9.7042   56.4914 C   0  0  0  0  0  0  0  0  0  0  0  0
   24.3773    9.6011   55.6173 C   0  0  0  0  0  0  0  0  0  0  0  0
   27.9489    9.2684   57.2634 S   0  0  0  0  0  0  0  0  0  0  0  0
   29.3305    8.3468   56.6156 C   0  0  0  0  0  0  0  0  0  0  0  0
   27.5441    8.6371   58.5797 O   0  0  0  0  0  0  0  0  0  0  0  0
   28.2834   10.6902   57.5414 O   0  0  0  0  0  0  0  0  0  0  0  0
   21.0782   11.9691   50.7546 C   0  0  0  0  0  0  0  0  0  0  0  0
   20.4020   10.4384   51.4323 S   0  0  0  0  0  0  0  0  0  0  0  0
 24 25  1  0  0  0
 25  1  1  0  0  0
  1  2  2  0  0  0
  2  3  1  0  0  0
  3  7  1  0  0  0
  7  8  2  0  0  0
  8  9  1  0  0  0
  9 10  2  0  0  0
 10 11  1  0  0  0
 10 12  1  0  0  0
 12 13  2  0  0  0
  3  4  2  0  0  0
  4 14  1  0  0  0
 14 15  2  0  0  0
 15 16  1  0  0  0
 16 17  2  0  0  0
 17 20  1  0  0  0
 20 21  1  0  0  0
 20 22  2  0  0  0
 20 23  2  0  0  0
 17 18  1  0  0  0
 18 19  2  0  0  0
  4  5  1  0  0  0
  5  1  1  0  0  0
 13  7  1  0  0  0
 19 14  1  0  0  0
  5  6  1  0  0  0
M  END
> <minimizedAffinity>
31.45126

> <CNNscore>
0.4615553319

> <CNNaffinity>
5.4702353477

> <CNN_VS>
2.5248162746

> <CNNaffinity_variance>
0.3383344114

$$$$
[H]c1c([H])c(-c2c([H])c(SC([H])([H])[H])n([H])c2-c2c([H])c([H])c(S(=O)(=O)C([H])([H])[H])c([H])c2[H])c([H])c([H])c1F


 25 27  0  0  0  0  0  0  0  0999 V2000
   21.2067   11.2268   52.3301 C   0  0  0  0  0  0  0  0  0  0  0  0
   20.7052    9.9183   52.3971 C   0  0  0  0  0  0  0  0  0  0  0  0
   21.6885    9.1033   52.9007 C   0  0  0  0  0  0  0  0  0  0  0  0
   22.7754    9.9018   53.1382 C   0  0  0  0  0  0  0  0  0  0  0  0
   22.4666   11.1715   52.7898 N   0  0  0  0  0  0  0  0  0  0  0  0
   23.0859   12.0011   52.8551 H   0  0  0  0  0  0  0  0  0  0  0  0
   21.5951    7.6739   53.1367 C   0  0  0  0  0  0  0  0  0  0  0  0
   20.4005    7.0079   52.9543 C   0  0  0  0  0  0  0  0  0  0  0  0
   20.2694    5.6754   53.1660 C   0  0  0  0  0  0  0  0  0  0  0  0
   21.3492    4.9354   53.5775 C   0  0  0  0  0  0  0  0  0  0  0  0
   21.1697    3.6186   53.7746 F   0  0  0  0  0  0  0  0  0  0  0  0
   22.5644    5.5773   53.7694 C   0  0  0  0  0  0  0  0  0  0  0  0
   22.6831    6.9268   53.5516 C   0  0  0  0  0  0  0  0  0  0  0  0
   24.0392    9.4324   53.6719 C   0  0  0  0  0  0  0  0  0  0  0  0
   24.3088    9.5780   55.0369 C   0  0  0  0  0  0  0  0  0  0  0  0
   25.5281    9.1049   55.4714 C   0  0  0  0  0  0  0  0  0  0  0  0
   26.4612    8.5163   54.6545 C   0  0  0  0  0  0  0  0  0  0  0  0
   26.1853    8.3778   53.3093 C   0  0  0  0  0  0  0  0  0  0  0  0
   24.9889    8.8351   52.8483 C   0  0  0  0  0  0  0  0  0  0  0  0
   27.9929    7.9242   55.2404 S   0  0  0  0  0  0  0  0  0  0  0  0
   28.0682    8.2043   56.9993 C   0  0  0  0  0  0  0  0  0  0  0  0
   29.1047    8.7244   54.5934 O   0  0  0  0  0  0  0  0  0  0  0  0
   28.2053    6.4990   54.8737 O   0  0  0  0  0  0  0  0  0  0  0  0
   21.4150   13.6880   50.6525 C   0  0  0  0  0  0  0  0  0  0  0  0
   20.3888   12.6961   51.7582 S   0  0  0  0  0  0  0  0  0  0  0  0
 24 25  1  0  0  0
 25  1  1  0  0  0
  1  2  2  0  0  0
  2  3  1  0  0  0
  3  7  1  0  0  0
  7  8  2  0  0  0
  8  9  1  0  0  0
  9 10  2  0  0  0
 10 11  1  0  0  0
 10 12  1  0  0  0
 12 13  2  0  0  0
  3  4  2  0  0  0
  4 14  1  0  0  0
 14 15  2  0  0  0
 15 16  1  0  0  0
 16 17  2  0  0  0
 17 20  1  0  0  0
 20 21  1  0  0  0
 20 22  2  0  0  0
 20 23  2  0  0  0
 17 18  1  0  0  0
 18 19  2  0  0  0
  4  5  1  0  0  0
  5  1  1  0  0  0
 13  7  1  0  0  0
 19 14  1  0  0  0
  5  6  1  0  0  0
M  END
> <minimizedAffinity>
33.94659

> <CNNscore>
0.4602382183

> <CNNaffinity>
5.4981431961

> <CNN_VS>
2.5304555893

> <CNNaffinity_variance>
0.1111049280

$$$$
[H]c1c([H])c(-c2c([H])c(SC([H])([H])[H])n([H])c2-c2c([H])c([H])c(S(=O)(=O)C([H])([H])[H])c([H])c2[H])c([H])c([H])c1F


 25 27  0  0  0  0  0  0  0  0999 V2000
   25.1133    8.9766   55.9831 C   0  0  0  0  0  0  0  0  0  0  0  0
   24.1676    7.9492   55.8465 C   0  0  0  0  0  0  0  0  0  0  0  0
   23.2465    8.3316   54.9032 C   0  0  0  0  0  0  0  0  0  0  0  0
   23.6232    9.5747   54.4693 C   0  0  0  0  0  0  0  0  0  0  0  0
   24.7447    9.9439   55.1286 N   0  0  0  0  0  0  0  0  0  0  0  0
   25.2671   10.8330   55.0153 H   0  0  0  0  0  0  0  0  0  0  0  0
   22.0972    7.5677   54.4523 C   0  0  0  0  0  0  0  0  0  0  0  0
   22.2472    6.2724   54.0011 C   0  0  0  0  0  0  0  0  0  0  0  0
   21.2016    5.5257   53.5691 C   0  0  0  0  0  0  0  0  0  0  0  0
   19.9345    6.0522   53.5694 C   0  0  0  0  0  0  0  0  0  0  0  0
   18.9309    5.2736   53.1314 F   0  0  0  0  0  0  0  0  0  0  0  0
   19.7520    7.3526   54.0176 C   0  0  0  0  0  0  0  0  0  0  0  0
   20.8192    8.0975   54.4522 C   0  0  0  0  0  0  0  0  0  0  0  0
   22.9122   10.3464   53.4687 C   0  0  0  0  0  0  0  0  0  0  0  0
   22.7396   11.7225   53.6525 C   0  0  0  0  0  0  0  0  0  0  0  0
   22.0576   12.3896   52.6579 C   0  0  0  0  0  0  0  0  0  0  0  0
   21.5553   11.7872   51.5313 C   0  0  0  0  0  0  0  0  0  0  0  0
   21.7308   10.4291   51.3599 C   0  0  0  0  0  0  0  0  0  0  0  0
   22.4007    9.7409   52.3247 C   0  0  0  0  0  0  0  0  0  0  0  0
   20.7010   12.6645   50.2900 S   0  0  0  0  0  0  0  0  0  0  0  0
   21.8835   13.6284   49.3678 C   0  0  0  0  0  0  0  0  0  0  0  0
   19.7319   13.6237   50.9501 O   0  0  0  0  0  0  0  0  0  0  0  0
   19.9013   11.7542   49.4282 O   0  0  0  0  0  0  0  0  0  0  0  0
   27.8261   10.1363   56.4423 C   0  0  0  0  0  0  0  0  0  0  0  0
   26.5279    9.0415   57.0553 S   0  0  0  0  0  0  0  0  0  0  0  0
 24 25  1  0  0  0
 25  1  1  0  0  0
  1  2  2  0  0  0
  2  3  1  0  0  0
  3  7  1  0  0  0
  7  8  2  0  0  0
  8  9  1  0  0  0
  9 10  2  0  0  0
 10 11  1  0  0  0
 10 12  1  0  0  0
 12 13  2  0  0  0
  3  4  2  0  0  0
  4 14  1  0  0  0
 14 15  2  0  0  0
 15 16  1  0  0  0
 16 17  2  0  0  0
 17 20  1  0  0  0
 20 21  1  0  0  0
 20 22  2  0  0  0
 20 23  2  0  0  0
 17 18  1  0  0  0
 18 19  2  0  0  0
  4  5  1  0  0  0
  5  1  1  0  0  0
 13  7  1  0  0  0
 19 14  1  0  0  0
  5  6  1  0  0  0
M  END
> <minimizedAffinity>
47.87587

> <CNNscore>
0.4425849617

> <CNNaffinity>
5.4340200424

> <CNN_VS>
2.4050154686

> <CNNaffinity_variance>
0.5342340469

$$$$
[H]c1c([H])c(-c2c([H])c(SC([H])([H])[H])n([H])c2-c2c([H])c([H])c(S(=O)(=O)C([H])([H])[H])c([H])c2[H])c([H])c([H])c1F


 25 27  0  0  0  0  0  0  0  0999 V2000
   21.1840    8.2910   52.2433 C   0  0  0  0  0  0  0  0  0  0  0  0
   21.0045    7.2864   53.2060 C   0  0  0  0  0  0  0  0  0  0  0  0
   22.1521    7.1937   53.9538 C   0  0  0  0  0  0  0  0  0  0  0  0
   23.0206    8.1280   53.4556 C   0  0  0  0  0  0  0  0  0  0  0  0
   22.4216    8.7756   52.4306 N   0  0  0  0  0  0  0  0  0  0  0  0
   22.8283    9.5368   51.8549 H   0  0  0  0  0  0  0  0  0  0  0  0
   22.3977    6.2838   55.0580 C   0  0  0  0  0  0  0  0  0  0  0  0
   23.4705    5.4165   55.0289 C   0  0  0  0  0  0  0  0  0  0  0  0
   23.7340    4.5494   56.0370 C   0  0  0  0  0  0  0  0  0  0  0  0
   22.9198    4.5109   57.1408 C   0  0  0  0  0  0  0  0  0  0  0  0
   23.2214    3.6343   58.1133 F   0  0  0  0  0  0  0  0  0  0  0  0
   21.8327    5.3713   57.1989 C   0  0  0  0  0  0  0  0  0  0  0  0
   21.5775    6.2441   56.1714 C   0  0  0  0  0  0  0  0  0  0  0  0
   24.3595    8.3582   53.9622 C   0  0  0  0  0  0  0  0  0  0  0  0
   25.4638    8.0187   53.1734 C   0  0  0  0  0  0  0  0  0  0  0  0
   26.7039    8.2702   53.7198 C   0  0  0  0  0  0  0  0  0  0  0  0
   26.9007    8.8205   54.9619 C   0  0  0  0  0  0  0  0  0  0  0  0
   25.8044    9.1515   55.7321 C   0  0  0  0  0  0  0  0  0  0  0  0
   24.5650    8.9156   55.2208 C   0  0  0  0  0  0  0  0  0  0  0  0
   28.4857    9.1295   55.6196 S   0  0  0  0  0  0  0  0  0  0  0  0
   28.2994    9.6478   57.3151 C   0  0  0  0  0  0  0  0  0  0  0  0
   29.1186   10.2710   54.8506 O   0  0  0  0  0  0  0  0  0  0  0  0
   29.3790    7.9502   55.4718 O   0  0  0  0  0  0  0  0  0  0  0  0
   20.2622   10.5885   50.5738 C   0  0  0  0  0  0  0  0  0  0  0  0
   20.0431    8.8481   51.0011 S   0  0  0  0  0  0  0  0  0  0  0  0
 24 25  1  0  0  0
 25  1  1  0  0  0
  1  2  2  0  0  0
  2  3  1  0  0  0
  3  7  1  0  0  0
  7  8  2  0  0  0
  8  9  1  0  0  0
  9 10  2  0  0  0
 10 11  1  0  0  0
 10 12  1  0  0  0
 12 13  2  0  0  0
  3  4  2  0  0  0
  4 14  1  0  0  0
 14 15  2  0  0  0
 15 16  1  0  0  0
 16 17  2  0  0  0
 17 20  1  0  0  0
 20 21  1  0  0  0
 20 22  2  0  0  0
 20 23  2  0  0  0
 17 18  1  0  0  0
 18 19  2  0  0  0
  4  5  1  0  0  0
  5  1  1  0  0  0
 13  7  1  0  0  0
 19 14  1  0  0  0
  5  6  1  0  0  0
M  END
> <minimizedAffinity>
21.39334

> <CNNscore>
0.4409142435

> <CNNaffinity>
5.6271071434

> <CNN_VS>
2.4810717106

> <CNNaffinity_variance>
0.1479489803

$$$$
[H]OC([H])([H])C([H])([H])N([H])C(=O)[C@@]1([H])O[C@@]([H])(n2c([H])nc3c(N([H])C([H])([H])c4c([H])c([H])c([H])c([H])c4C([H])([H])[H])nc([H])nc32)[C@]([H])(O[H])[C@]1([H])O[H]


 36 39  0  0  0  0  0  0  0  0999 V2000
   22.3550    9.4411   54.1589 C   0  0  0  0  0  0  0  0  0  0  0  0
   22.0926   10.2949   55.1729 N   0  0  0  0  0  0  0  0  0  0  0  0
   23.0245   10.6518   56.0673 C   0  0  0  0  0  0  0  0  0  0  0  0
   24.2591   10.1442   55.9516 N   0  0  0  0  0  0  0  0  0  0  0  0
   24.5791    9.2967   54.9720 C   0  0  0  0  0  0  0  0  0  0  0  0
   23.6357    8.9310   54.0606 C   0  0  0  0  0  0  0  0  0  0  0  0
   24.2090    8.0796   53.1898 N   0  0  0  0  0  0  0  0  0  0  0  0
   25.4960    7.8983   53.5305 C   0  0  0  0  0  0  0  0  0  0  0  0
   25.7167    8.6460   54.6223 N   0  0  0  0  0  0  0  0  0  0  0  0
   26.9643    8.7369   55.3074 C   0  0  0  0  0  0  0  0  0  0  0  0
   26.8315    8.7658   56.6935 O   0  0  0  0  0  0  0  0  0  0  0  0
   28.1128    9.1679   57.1168 C   0  0  0  0  0  0  0  0  0  0  0  0
   28.2922   10.4206   56.2667 C   0  0  0  0  0  0  0  0  0  0  0  0
   29.5867   10.8689   56.2410 O   0  0  0  0  0  0  0  0  0  0  0  0
   27.8247    9.8904   54.9166 C   0  0  0  0  0  0  0  0  0  0  0  0
   28.9819    9.4741   54.2374 O   0  0  0  0  0  0  0  0  0  0  0  0
   29.5839   11.8388   55.9986 H   0  0  0  0  0  0  0  0  0  0  0  0
   29.0154    9.8725   53.3259 H   0  0  0  0  0  0  0  0  0  0  0  0
   28.1770    9.4266   58.5457 C   0  0  0  0  0  0  0  0  0  0  0  0
   27.6380    8.6449   59.3596 O   0  0  0  0  0  0  0  0  0  0  0  0
   28.8500   10.5666   59.0445 N   0  0  0  0  0  0  0  0  0  0  0  0
   29.3051   11.2295   58.3868 H   0  0  0  0  0  0  0  0  0  0  0  0
   28.9292   10.8487   60.4698 C   0  0  0  0  0  0  0  0  0  0  0  0
   28.4645   12.2395   60.7463 C   0  0  0  0  0  0  0  0  0  0  0  0
   28.2127   12.8910   59.5373 O   0  0  0  0  0  0  0  0  0  0  0  0
   27.5102   13.6005   59.6394 H   0  0  0  0  0  0  0  0  0  0  0  0
   21.3466    9.0634   53.2337 N   0  0  0  0  0  0  0  0  0  0  0  0
   20.8748    9.8311   52.6951 H   0  0  0  0  0  0  0  0  0  0  0  0
   20.9554    7.7068   53.0105 C   0  0  0  0  0  0  0  0  0  0  0  0
   21.1508    7.3348   55.8180 C   0  0  0  0  0  0  0  0  0  0  0  0
   21.9751    6.5125   54.9227 C   0  0  0  0  0  0  0  0  0  0  0  0
   22.8298    5.5888   55.4427 C   0  0  0  0  0  0  0  0  0  0  0  0
   23.6169    4.8013   54.6279 C   0  0  0  0  0  0  0  0  0  0  0  0
   23.5528    4.9360   53.2581 C   0  0  0  0  0  0  0  0  0  0  0  0
   22.6726    5.8856   52.7612 C   0  0  0  0  0  0  0  0  0  0  0  0
   21.8739    6.6863   53.5396 C   0  0  0  0  0  0  0  0  0  0  0  0
 30 31  1  0  0  0
 31 32  2  0  0  0
 32 33  1  0  0  0
 33 34  2  0  0  0
 34 35  1  0  0  0
 35 36  2  0  0  0
 36 29  1  0  0  0
 29 27  1  0  0  0
 27  1  1  0  0  0
  1  2  2  0  0  0
  2  3  1  0  0  0
  3  4  2  0  0  0
  4  5  1  0  0  0
  5  6  2  0  0  0
  6  7  1  0  0  0
  7  8  2  0  0  0
  8  9  1  0  0  0
  9 10  1  0  0  0
 10 11  1  0  0  0
 11 12  1  0  0  0
 12 19  1  0  0  0
 19 20  2  0  0  0
 19 21  1  0  0  0
 21 23  1  0  0  0
 23 24  1  0  0  0
 24 25  1  0  0  0
 12 13  1  0  0  0
 13 14  1  0  0  0
 13 15  1  0  0  0
 15 16  1  0  0  0
 36 31  1  0  0  0
  6  1  1  0  0  0
 15 10  1  0  0  0
  9  5  1  0  0  0
 27 28  1  0  0  0
 21 22  1  0  0  0
 25 26  1  0  0  0
 14 17  1  0  0  0
 16 18  1  0  0  0
M  END
> <minimizedAffinity>
14.44178

> <CNNscore>
0.5877342820

> <CNNaffinity>
6.1403474808

> <CNN_VS>
3.6088926792

> <CNNaffinity_variance>
0.4970889091

$$$$
[H]OC([H])([H])C([H])([H])N([H])C(=O)[C@@]1([H])O[C@@]([H])(n2c([H])nc3c(N([H])C([H])([H])c4c([H])c([H])c([H])c([H])c4C([H])([H])[H])nc([H])nc32)[C@]([H])(O[H])[C@]1([H])O[H]


 36 39  0  0  0  0  0  0  0  0999 V2000
   22.6562    7.8462   54.8991 C   0  0  0  0  0  0  0  0  0  0  0  0
   22.2283    8.8301   55.7207 N   0  0  0  0  0  0  0  0  0  0  0  0
   23.0763    9.6135   56.4012 C   0  0  0  0  0  0  0  0  0  0  0  0
   24.3938    9.4138   56.2617 N   0  0  0  0  0  0  0  0  0  0  0  0
   24.8771    8.4586   55.4654 C   0  0  0  0  0  0  0  0  0  0  0  0
   24.0196    7.6599   54.7717 C   0  0  0  0  0  0  0  0  0  0  0  0
   24.7534    6.7901   54.0527 N   0  0  0  0  0  0  0  0  0  0  0  0
   26.0580    7.0211   54.2765 C   0  0  0  0  0  0  0  0  0  0  0  0
   26.1274    8.0437   55.1422 N   0  0  0  0  0  0  0  0  0  0  0  0
   27.3394    8.6044   55.6433 C   0  0  0  0  0  0  0  0  0  0  0  0
   27.1544    9.3967   56.7737 O   0  0  0  0  0  0  0  0  0  0  0  0
   28.3867   10.0690   56.8829 C   0  0  0  0  0  0  0  0  0  0  0  0
   28.5052   10.6366   55.4730 C   0  0  0  0  0  0  0  0  0  0  0  0
   29.7637   11.0956   55.1850 O   0  0  0  0  0  0  0  0  0  0  0  0
   28.1270    9.4034   54.6613 C   0  0  0  0  0  0  0  0  0  0  0  0
   29.3355    8.7724   54.3219 O   0  0  0  0  0  0  0  0  0  0  0  0
   29.6990   11.7574   54.4384 H   0  0  0  0  0  0  0  0  0  0  0  0
   29.3731    8.5905   53.3440 H   0  0  0  0  0  0  0  0  0  0  0  0
   28.3798   11.0905   57.9171 C   0  0  0  0  0  0  0  0  0  0  0  0
   27.7096   12.1367   57.7747 O   0  0  0  0  0  0  0  0  0  0  0  0
   29.1301   10.9220   59.1045 N   0  0  0  0  0  0  0  0  0  0  0  0
   29.6940   10.0609   59.2441 H   0  0  0  0  0  0  0  0  0  0  0  0
   29.1404   11.9288   60.1551 C   0  0  0  0  0  0  0  0  0  0  0  0
   28.5774   11.3633   61.4160 C   0  0  0  0  0  0  0  0  0  0  0  0
   28.4093    9.9851   61.2693 O   0  0  0  0  0  0  0  0  0  0  0  0
   28.4776    9.5088   62.1500 H   0  0  0  0  0  0  0  0  0  0  0  0
   21.7385    7.0170   54.2020 N   0  0  0  0  0  0  0  0  0  0  0  0
   21.7686    5.9876   54.4055 H   0  0  0  0  0  0  0  0  0  0  0  0
   20.7942    7.5173   53.2528 C   0  0  0  0  0  0  0  0  0  0  0  0
   20.7193    8.1229   50.4804 C   0  0  0  0  0  0  0  0  0  0  0  0
   20.9837    9.1975   51.4461 C   0  0  0  0  0  0  0  0  0  0  0  0
   21.1993   10.4682   51.0071 C   0  0  0  0  0  0  0  0  0  0  0  0
   21.4500   11.4988   51.8894 C   0  0  0  0  0  0  0  0  0  0  0  0
   21.4877   11.2595   53.2457 C   0  0  0  0  0  0  0  0  0  0  0  0
   21.2642    9.9549   53.6595 C   0  0  0  0  0  0  0  0  0  0  0  0
   21.0113    8.9044   52.8124 C   0  0  0  0  0  0  0  0  0  0  0  0
 30 31  1  0  0  0
 31 32  2  0  0  0
 32 33  1  0  0  0
 33 34  2  0  0  0
 34 35  1  0  0  0
 35 36  2  0  0  0
 36 29  1  0  0  0
 29 27  1  0  0  0
 27  1  1  0  0  0
  1  2  2  0  0  0
  2  3  1  0  0  0
  3  4  2  0  0  0
  4  5  1  0  0  0
  5  6  2  0  0  0
  6  7  1  0  0  0
  7  8  2  0  0  0
  8  9  1  0  0  0
  9 10  1  0  0  0
 10 11  1  0  0  0
 11 12  1  0  0  0
 12 19  1  0  0  0
 19 20  2  0  0  0
 19 21  1  0  0  0
 21 23  1  0  0  0
 23 24  1  0  0  0
 24 25  1  0  0  0
 12 13  1  0  0  0
 13 14  1  0  0  0
 13 15  1  0  0  0
 15 16  1  0  0  0
 36 31  1  0  0  0
  6  1  1  0  0  0
 15 10  1  0  0  0
  9  5  1  0  0  0
 27 28  1  0  0  0
 21 22  1  0  0  0
 25 26  1  0  0  0
 14 17  1  0  0  0
 16 18  1  0  0  0
M  END
> <minimizedAffinity>
10.65698

> <CNNscore>
0.5833693147

> <CNNaffinity>
6.2236137390

> <CNN_VS>
3.6306653023

> <CNNaffinity_variance>
0.5524191260

$$$$
[H]OC([H])([H])C([H])([H])N([H])C(=O)[C@@]1([H])O[C@@]([H])(n2c([H])nc3c(N([H])C([H])([H])c4c([H])c([H])c([H])c([H])c4C([H])([H])[H])nc([H])nc32)[C@]([H])(O[H])[C@]1([H])O[H]


 36 39  0  0  0  0  0  0  0  0999 V2000
   25.1104    8.3111   54.0741 C   0  0  0  0  0  0  0  0  0  0  0  0
   24.1103    8.8561   54.8014 N   0  0  0  0  0  0  0  0  0  0  0  0
   24.3332    9.4985   55.9561 C   0  0  0  0  0  0  0  0  0  0  0  0
   25.5914    9.6037   56.4046 N   0  0  0  0  0  0  0  0  0  0  0  0
   26.6206    9.0866   55.7312 C   0  0  0  0  0  0  0  0  0  0  0  0
   26.3994    8.4329   54.5573 C   0  0  0  0  0  0  0  0  0  0  0  0
   27.5886    8.0136   54.0861 N   0  0  0  0  0  0  0  0  0  0  0  0
   28.5586    8.3880   54.9372 C   0  0  0  0  0  0  0  0  0  0  0  0
   27.9598    9.0445   55.9423 N   0  0  0  0  0  0  0  0  0  0  0  0
   28.6379    9.6101   57.0624 C   0  0  0  0  0  0  0  0  0  0  0  0
   29.0059    8.6665   58.0183 O   0  0  0  0  0  0  0  0  0  0  0  0
   29.3508    9.4672   59.1240 C   0  0  0  0  0  0  0  0  0  0  0  0
   28.0944   10.3237   59.2336 C   0  0  0  0  0  0  0  0  0  0  0  0
   28.2603   11.4159   60.0442 O   0  0  0  0  0  0  0  0  0  0  0  0
   27.9049   10.6996   57.7689 C   0  0  0  0  0  0  0  0  0  0  0  0
   28.5302   11.9463   57.6005 O   0  0  0  0  0  0  0  0  0  0  0  0
   27.3618   11.7154   60.3641 H   0  0  0  0  0  0  0  0  0  0  0  0
   27.9129   12.5914   57.1606 H   0  0  0  0  0  0  0  0  0  0  0  0
   29.6229    8.6869   60.3198 C   0  0  0  0  0  0  0  0  0  0  0  0
   30.0530    9.2387   61.3564 O   0  0  0  0  0  0  0  0  0  0  0  0
   29.4068    7.2890   60.3355 N   0  0  0  0  0  0  0  0  0  0  0  0
   29.0499    6.8095   59.4858 H   0  0  0  0  0  0  0  0  0  0  0  0
   29.6710    6.4847   61.5191 C   0  0  0  0  0  0  0  0  0  0  0  0
   28.8078    5.2676   61.5181 C   0  0  0  0  0  0  0  0  0  0  0  0
   28.0359    5.2499   60.3548 O   0  0  0  0  0  0  0  0  0  0  0  0
   27.8032    4.3131   60.0800 H   0  0  0  0  0  0  0  0  0  0  0  0
   24.8481    7.6194   52.8623 N   0  0  0  0  0  0  0  0  0  0  0  0
   25.4120    7.8921   52.0200 H   0  0  0  0  0  0  0  0  0  0  0  0
   23.8663    6.5872   52.7453 C   0  0  0  0  0  0  0  0  0  0  0  0
   22.2005    6.0974   54.9911 C   0  0  0  0  0  0  0  0  0  0  0  0
   21.6470    6.7907   53.8206 C   0  0  0  0  0  0  0  0  0  0  0  0
   20.3433    7.1834   53.8166 C   0  0  0  0  0  0  0  0  0  0  0  0
   19.7945    7.8367   52.7324 C   0  0  0  0  0  0  0  0  0  0  0  0
   20.5630    8.1068   51.6211 C   0  0  0  0  0  0  0  0  0  0  0  0
   21.8863    7.6935   51.6574 C   0  0  0  0  0  0  0  0  0  0  0  0
   22.4673    7.0422   52.7173 C   0  0  0  0  0  0  0  0  0  0  0  0
 30 31  1  0  0  0
 31 32  2  0  0  0
 32 33  1  0  0  0
 33 34  2  0  0  0
 34 35  1  0  0  0
 35 36  2  0  0  0
 36 29  1  0  0  0
 29 27  1  0  0  0
 27  1  1  0  0  0
  1  2  2  0  0  0
  2  3  1  0  0  0
  3  4  2  0  0  0
  4  5  1  0  0  0
  5  6  2  0  0  0
  6  7  1  0  0  0
  7  8  2  0  0  0
  8  9  1  0  0  0
  9 10  1  0  0  0
 10 11  1  0  0  0
 11 12  1  0  0  0
 12 19  1  0  0  0
 19 20  2  0  0  0
 19 21  1  0  0  0
 21 23  1  0  0  0
 23 24  1  0  0  0
 24 25  1  0  0  0
 12 13  1  0  0  0
 13 14  1  0  0  0
 13 15  1  0  0  0
 15 16  1  0  0  0
 36 31  1  0  0  0
  6  1  1  0  0  0
 15 10  1  0  0  0
  9  5  1  0  0  0
 27 28  1  0  0  0
 21 22  1  0  0  0
 25 26  1  0  0  0
 14 17  1  0  0  0
 16 18  1  0  0  0
M  END
> <minimizedAffinity>
7.09630

> <CNNscore>
0.5347016454

> <CNNaffinity>
5.8032178879

> <CNN_VS>
3.1029901505

> <CNNaffinity_variance>
0.1596118212

$$$$
[H]OC([H])([H])C([H])([H])N([H])C(=O)[C@@]1([H])O[C@@]([H])(n2c([H])nc3c(N([H])C([H])([H])c4c([H])c([H])c([H])c([H])c4C([H])([H])[H])nc([H])nc32)[C@]([H])(O[H])[C@]1([H])O[H]


 36 39  0  0  0  0  0  0  0  0999 V2000
   21.9636    8.8688   54.9286 C   0  0  0  0  0  0  0  0  0  0  0  0
   21.8400    9.6140   56.0491 N   0  0  0  0  0  0  0  0  0  0  0  0
   22.8903    9.9259   56.8206 C   0  0  0  0  0  0  0  0  0  0  0  0
   24.1049    9.4833   56.4683 N   0  0  0  0  0  0  0  0  0  0  0  0
   24.2906    8.7438   55.3735 C   0  0  0  0  0  0  0  0  0  0  0  0
   23.2265    8.4241   54.5861 C   0  0  0  0  0  0  0  0  0  0  0  0
   23.6795    7.6813   53.5590 N   0  0  0  0  0  0  0  0  0  0  0  0
   25.0084    7.5236   53.6793 C   0  0  0  0  0  0  0  0  0  0  0  0
   25.3767    8.1763   54.7920 N   0  0  0  0  0  0  0  0  0  0  0  0
   26.7133    8.2560   55.2835 C   0  0  0  0  0  0  0  0  0  0  0  0
   26.7838    8.5194   56.6492 O   0  0  0  0  0  0  0  0  0  0  0  0
   28.1385    8.8597   56.8272 C   0  0  0  0  0  0  0  0  0  0  0  0
   28.2842    9.9369   55.7583 C   0  0  0  0  0  0  0  0  0  0  0  0
   29.5906   10.2493   55.4881 O   0  0  0  0  0  0  0  0  0  0  0  0
   27.5899    9.2442   54.5918 C   0  0  0  0  0  0  0  0  0  0  0  0
   28.6040    8.6156   53.8499 O   0  0  0  0  0  0  0  0  0  0  0  0
   29.6234   11.1635   55.0849 H   0  0  0  0  0  0  0  0  0  0  0  0
   28.5348    8.8576   52.8870 H   0  0  0  0  0  0  0  0  0  0  0  0
   28.4263    9.3368   58.1697 C   0  0  0  0  0  0  0  0  0  0  0  0
   28.5027    8.5364   59.1276 O   0  0  0  0  0  0  0  0  0  0  0  0
   28.6258   10.7148   58.4199 N   0  0  0  0  0  0  0  0  0  0  0  0
   28.5671   11.3977   57.6393 H   0  0  0  0  0  0  0  0  0  0  0  0
   28.9153   11.2186   59.7540 C   0  0  0  0  0  0  0  0  0  0  0  0
   28.4987   12.6470   59.8669 C   0  0  0  0  0  0  0  0  0  0  0  0
   28.1519   13.1281   58.6029 O   0  0  0  0  0  0  0  0  0  0  0  0
   27.4724   13.8643   58.6615 H   0  0  0  0  0  0  0  0  0  0  0  0
   20.8335    8.5359   54.1364 N   0  0  0  0  0  0  0  0  0  0  0  0
   20.6320    7.5163   53.9887 H   0  0  0  0  0  0  0  0  0  0  0  0
   19.9761    9.5138   53.5433 C   0  0  0  0  0  0  0  0  0  0  0  0
   20.8481    8.5954   51.0026 C   0  0  0  0  0  0  0  0  0  0  0  0
   21.0676    9.9988   51.3761 C   0  0  0  0  0  0  0  0  0  0  0  0
   21.6928   10.8430   50.5099 C   0  0  0  0  0  0  0  0  0  0  0  0
   21.9133   12.1664   50.8317 C   0  0  0  0  0  0  0  0  0  0  0  0
   21.5010   12.6643   52.0486 C   0  0  0  0  0  0  0  0  0  0  0  0
   20.8678   11.7784   52.9073 C   0  0  0  0  0  0  0  0  0  0  0  0
   20.6305   10.4565   52.6222 C   0  0  0  0  0  0  0  0  0  0  0  0
 30 31  1  0  0  0
 31 32  2  0  0  0
 32 33  1  0  0  0
 33 34  2  0  0  0
 34 35  1  0  0  0
 35 36  2  0  0  0
 36 29  1  0  0  0
 29 27  1  0  0  0
 27  1  1  0  0  0
  1  2  2  0  0  0
  2  3  1  0  0  0
  3  4  2  0  0  0
  4  5  1  0  0  0
  5  6  2  0  0  0
  6  7  1  0  0  0
  7  8  2  0  0  0
  8  9  1  0  0  0
  9 10  1  0  0  0
 10 11  1  0  0  0
 11 12  1  0  0  0
 12 19  1  0  0  0
 19 20  2  0  0  0
 19 21  1  0  0  0
 21 23  1  0  0  0
 23 24  1  0  0  0
 24 25  1  0  0  0
 12 13  1  0  0  0
 13 14  1  0  0  0
 13 15  1  0  0  0
 15 16  1  0  0  0
 36 31  1  0  0  0
  6  1  1  0  0  0
 15 10  1  0  0  0
  9  5  1  0  0  0
 27 28  1  0  0  0
 21 22  1  0  0  0
 25 26  1  0  0  0
 14 17  1  0  0  0
 16 18  1  0  0  0
M  END
> <minimizedAffinity>
24.97089

> <CNNscore>
0.5280091166

> <CNNaffinity>
6.2832694054

> <CNN_VS>
3.3176236153

> <CNNaffinity_variance>
0.7821050882

$$$$
[H]OC([H])([H])C([H])([H])N([H])C(=O)[C@@]1([H])O[C@@]([H])(n2c([H])nc3c(N([H])C([H])([H])c4c([H])c([H])c([H])c([H])c4C([H])([H])[H])nc([H])nc32)[C@]([H])(O[H])[C@]1([H])O[H]


 36 39  0  0  0  0  0  0  0  0999 V2000
   20.6235    7.9375   53.7541 C   0  0  0  0  0  0  0  0  0  0  0  0
   20.7253    8.9298   52.8425 N   0  0  0  0  0  0  0  0  0  0  0  0
   21.9090    9.3879   52.4125 C   0  0  0  0  0  0  0  0  0  0  0  0
   23.0300    8.8428   52.9039 N   0  0  0  0  0  0  0  0  0  0  0  0
   22.9941    7.8603   53.8058 C   0  0  0  0  0  0  0  0  0  0  0  0
   21.7938    7.3913   54.2460 C   0  0  0  0  0  0  0  0  0  0  0  0
   22.0335    6.4142   55.1403 N   0  0  0  0  0  0  0  0  0  0  0  0
   23.3607    6.2546   55.2761 C   0  0  0  0  0  0  0  0  0  0  0  0
   23.9435    7.1426   54.4566 N   0  0  0  0  0  0  0  0  0  0  0  0
   25.3521    7.3022   54.2996 C   0  0  0  0  0  0  0  0  0  0  0  0
   25.9709    7.8644   55.4134 O   0  0  0  0  0  0  0  0  0  0  0  0
   27.2436    8.2068   54.9179 C   0  0  0  0  0  0  0  0  0  0  0  0
   26.8416    9.0126   53.6878 C   0  0  0  0  0  0  0  0  0  0  0  0
   27.8840    9.2281   52.8251 O   0  0  0  0  0  0  0  0  0  0  0  0
   25.7763    8.0904   53.1071 C   0  0  0  0  0  0  0  0  0  0  0  0
   26.4286    7.2894   52.1549 O   0  0  0  0  0  0  0  0  0  0  0  0
   27.6730   10.0273   52.2628 H   0  0  0  0  0  0  0  0  0  0  0  0
   25.9417    7.3101   51.2870 H   0  0  0  0  0  0  0  0  0  0  0  0
   28.0325    8.9674   55.8730 C   0  0  0  0  0  0  0  0  0  0  0  0
   29.2819    8.9214   55.8472 O   0  0  0  0  0  0  0  0  0  0  0  0
   27.4036    9.7743   56.8500 N   0  0  0  0  0  0  0  0  0  0  0  0
   26.3669    9.8276   56.8900 H   0  0  0  0  0  0  0  0  0  0  0  0
   28.1697   10.5455   57.8174 C   0  0  0  0  0  0  0  0  0  0  0  0
   28.6811    9.6533   58.8986 C   0  0  0  0  0  0  0  0  0  0  0  0
   27.7748    8.6115   59.1047 O   0  0  0  0  0  0  0  0  0  0  0  0
   28.2319    7.7868   59.4487 H   0  0  0  0  0  0  0  0  0  0  0  0
   19.3582    7.4807   54.2082 N   0  0  0  0  0  0  0  0  0  0  0  0
   19.0502    7.7862   55.1641 H   0  0  0  0  0  0  0  0  0  0  0  0
   18.5039    6.6380   53.4316 C   0  0  0  0  0  0  0  0  0  0  0  0
   16.6158    4.7161   54.3259 C   0  0  0  0  0  0  0  0  0  0  0  0
   17.9366    4.2687   53.8647 C   0  0  0  0  0  0  0  0  0  0  0  0
   18.2483    2.9434   53.8779 C   0  0  0  0  0  0  0  0  0  0  0  0
   19.4803    2.4922   53.4509 C   0  0  0  0  0  0  0  0  0  0  0  0
   20.4287    3.3834   52.9985 C   0  0  0  0  0  0  0  0  0  0  0  0
   20.0794    4.7255   52.9981 C   0  0  0  0  0  0  0  0  0  0  0  0
   18.8648    5.2116   53.4144 C   0  0  0  0  0  0  0  0  0  0  0  0
 30 31  1  0  0  0
 31 32  2  0  0  0
 32 33  1  0  0  0
 33 34  2  0  0  0
 34 35  1  0  0  0
 35 36  2  0  0  0
 36 29  1  0  0  0
 29 27  1  0  0  0
 27  1  1  0  0  0
  1  2  2  0  0  0
  2  3  1  0  0  0
  3  4  2  0  0  0
  4  5  1  0  0  0
  5  6  2  0  0  0
  6  7  1  0  0  0
  7  8  2  0  0  0
  8  9  1  0  0  0
  9 10  1  0  0  0
 10 11  1  0  0  0
 11 12  1  0  0  0
 12 19  1  0  0  0
 19 20  2  0  0  0
 19 21  1  0  0  0
 21 23  1  0  0  0
 23 24  1  0  0  0
 24 25  1  0  0  0
 12 13  1  0  0  0
 13 14  1  0  0  0
 13 15  1  0  0  0
 15 16  1  0  0  0
 36 31  1  0  0  0
  6  1  1  0  0  0
 15 10  1  0  0  0
  9  5  1  0  0  0
 27 28  1  0  0  0
 21 22  1  0  0  0
 25 26  1  0  0  0
 14 17  1  0  0  0
 16 18  1  0  0  0
M  END
> <minimizedAffinity>
24.83194

> <CNNscore>
0.5193080306

> <CNNaffinity>
6.2960867882

> <CNN_VS>
3.2696084976

> <CNNaffinity_variance>
0.5886821747

$$$$
[H]OC([H])([H])C([H])([H])N([H])C(=O)[C@@]1([H])O[C@@]([H])(n2c([H])nc3c(N([H])C([H])([H])c4c([H])c([H])c([H])c([H])c4C([H])([H])[H])nc([H])nc32)[C@]([H])(O[H])[C@]1([H])O[H]


 36 39  0  0  0  0  0  0  0  0999 V2000
   25.0406    8.7650   54.2344 C   0  0  0  0  0  0  0  0  0  0  0  0
   23.8649    9.0357   54.8431 N   0  0  0  0  0  0  0  0  0  0  0  0
   23.7888    9.3578   56.1416 C   0  0  0  0  0  0  0  0  0  0  0  0
   24.9179    9.4132   56.8609 N   0  0  0  0  0  0  0  0  0  0  0  0
   26.1086    9.1566   56.3164 C   0  0  0  0  0  0  0  0  0  0  0  0
   26.1913    8.8288   54.9972 C   0  0  0  0  0  0  0  0  0  0  0  0
   27.4882    8.6217   54.7023 N   0  0  0  0  0  0  0  0  0  0  0  0
   28.2289    8.8112   55.8072 C   0  0  0  0  0  0  0  0  0  0  0  0
   27.3787    9.1385   56.7920 N   0  0  0  0  0  0  0  0  0  0  0  0
   27.7617    9.4229   58.1362 C   0  0  0  0  0  0  0  0  0  0  0  0
   28.4057   10.6495   58.2783 O   0  0  0  0  0  0  0  0  0  0  0  0
   28.9505   10.5625   59.5738 C   0  0  0  0  0  0  0  0  0  0  0  0
   29.6924    9.2354   59.4611 C   0  0  0  0  0  0  0  0  0  0  0  0
   30.0784    8.7333   60.6762 O   0  0  0  0  0  0  0  0  0  0  0  0
   28.6174    8.3904   58.7882 C   0  0  0  0  0  0  0  0  0  0  0  0
   27.9386    7.7244   59.8223 O   0  0  0  0  0  0  0  0  0  0  0  0
   30.8386    8.1001   60.5329 H   0  0  0  0  0  0  0  0  0  0  0  0
   27.8888    6.7478   59.6366 H   0  0  0  0  0  0  0  0  0  0  0  0
   29.8188   11.6832   59.8947 C   0  0  0  0  0  0  0  0  0  0  0  0
   31.0293   11.6612   59.5817 O   0  0  0  0  0  0  0  0  0  0  0  0
   29.3127   12.8204   60.5668 N   0  0  0  0  0  0  0  0  0  0  0  0
   28.3102   12.8604   60.8365 H   0  0  0  0  0  0  0  0  0  0  0  0
   30.1601   13.9555   60.8998 C   0  0  0  0  0  0  0  0  0  0  0  0
   29.5142   15.2270   60.4606 C   0  0  0  0  0  0  0  0  0  0  0  0
   28.2277   15.3009   60.9981 O   0  0  0  0  0  0  0  0  0  0  0  0
   27.9356   16.2523   61.1277 H   0  0  0  0  0  0  0  0  0  0  0  0
   25.0948    8.4085   52.8612 N   0  0  0  0  0  0  0  0  0  0  0  0
   25.7192    8.9790   52.2395 H   0  0  0  0  0  0  0  0  0  0  0  0
   24.3480    7.3255   52.3022 C   0  0  0  0  0  0  0  0  0  0  0  0
   22.3150    9.2662   51.9037 C   0  0  0  0  0  0  0  0  0  0  0  0
   22.0204    8.0663   52.6979 C   0  0  0  0  0  0  0  0  0  0  0  0
   20.7839    7.8982   53.2426 C   0  0  0  0  0  0  0  0  0  0  0  0
   20.4767    6.7820   53.9932 C   0  0  0  0  0  0  0  0  0  0  0  0
   21.4252    5.8061   54.2084 C   0  0  0  0  0  0  0  0  0  0  0  0
   22.6740    6.0080   53.6400 C   0  0  0  0  0  0  0  0  0  0  0  0
   23.0163    7.1041   52.8875 C   0  0  0  0  0  0  0  0  0  0  0  0
 30 31  1  0  0  0
 31 32  2  0  0  0
 32 33  1  0  0  0
 33 34  2  0  0  0
 34 35  1  0  0  0
 35 36  2  0  0  0
 36 29  1  0  0  0
 29 27  1  0  0  0
 27  1  1  0  0  0
  1  2  2  0  0  0
  2  3  1  0  0  0
  3  4  2  0  0  0
  4  5  1  0  0  0
  5  6  2  0  0  0
  6  7  1  0  0  0
  7  8  2  0  0  0
  8  9  1  0  0  0
  9 10  1  0  0  0
 10 11  1  0  0  0
 11 12  1  0  0  0
 12 19  1  0  0  0
 19 20  2  0  0  0
 19 21  1  0  0  0
 21 23  1  0  0  0
 23 24  1  0  0  0
 24 25  1  0  0  0
 12 13  1  0  0  0
 13 14  1  0  0  0
 13 15  1  0  0  0
 15 16  1  0  0  0
 36 31  1  0  0  0
  6  1  1  0  0  0
 15 10  1  0  0  0
  9  5  1  0  0  0
 27 28  1  0  0  0
 21 22  1  0  0  0
 25 26  1  0  0  0
 14 17  1  0  0  0
 16 18  1  0  0  0
M  END
> <minimizedAffinity>
11.14746

> <CNNscore>
0.5181094408

> <CNNaffinity>
5.7920336723

> <CNN_VS>
3.0009074211

> <CNNaffinity_variance>
0.0790093541

$$$$
[H]OC([H])([H])C([H])([H])N([H])C(=O)[C@@]1([H])O[C@@]([H])(n2c([H])nc3c(N([H])C([H])([H])c4c([H])c([H])c([H])c([H])c4C([H])([H])[H])nc([H])nc32)[C@]([H])(O[H])[C@]1([H])O[H]


 36 39  0  0  0  0  0  0  0  0999 V2000
   28.0650    9.3709   56.2128 C   0  0  0  0  0  0  0  0  0  0  0  0
   28.9105    8.6631   55.4316 N   0  0  0  0  0  0  0  0  0  0  0  0
   28.4785    7.8947   54.4223 C   0  0  0  0  0  0  0  0  0  0  0  0
   27.1626    7.8260   54.1799 N   0  0  0  0  0  0  0  0  0  0  0  0
   26.2785    8.5015   54.9162 C   0  0  0  0  0  0  0  0  0  0  0  0
   26.7124    9.2839   55.9429 C   0  0  0  0  0  0  0  0  0  0  0  0
   25.6342    9.8487   56.5177 N   0  0  0  0  0  0  0  0  0  0  0  0
   24.5262    9.4404   55.8766 C   0  0  0  0  0  0  0  0  0  0  0  0
   24.9271    8.6158   54.8972 N   0  0  0  0  0  0  0  0  0  0  0  0
   24.0554    7.9608   53.9777 C   0  0  0  0  0  0  0  0  0  0  0  0
   22.7070    8.2053   54.2264 O   0  0  0  0  0  0  0  0  0  0  0  0
   22.0669    7.2373   53.4292 C   0  0  0  0  0  0  0  0  0  0  0  0
   22.7913    5.9822   53.9026 C   0  0  0  0  0  0  0  0  0  0  0  0
   22.5887    4.9050   53.0804 O   0  0  0  0  0  0  0  0  0  0  0  0
   24.2302    6.4836   53.8742 C   0  0  0  0  0  0  0  0  0  0  0  0
   24.7524    6.1042   52.6263 O   0  0  0  0  0  0  0  0  0  0  0  0
   22.7612    4.0692   53.6009 H   0  0  0  0  0  0  0  0  0  0  0  0
   25.6185    5.6270   52.7395 H   0  0  0  0  0  0  0  0  0  0  0  0
   20.6304    7.1907   53.6468 C   0  0  0  0  0  0  0  0  0  0  0  0
   20.0344    8.1551   54.1746 O   0  0  0  0  0  0  0  0  0  0  0  0
   19.8781    6.0547   53.2662 N   0  0  0  0  0  0  0  0  0  0  0  0
   20.3523    5.2420   52.8259 H   0  0  0  0  0  0  0  0  0  0  0  0
   18.4395    5.9825   53.4726 C   0  0  0  0  0  0  0  0  0  0  0  0
   18.0429    4.5958   53.8554 C   0  0  0  0  0  0  0  0  0  0  0  0
   16.7807    4.6246   54.4516 O   0  0  0  0  0  0  0  0  0  0  0  0
   16.2884    3.7606   54.3161 H   0  0  0  0  0  0  0  0  0  0  0  0
   28.5446   10.1644   57.2879 N   0  0  0  0  0  0  0  0  0  0  0  0
   29.2843   10.8763   57.0689 H   0  0  0  0  0  0  0  0  0  0  0  0
   28.0703   10.0354   58.6301 C   0  0  0  0  0  0  0  0  0  0  0  0
   29.2398   12.0206   60.2885 C   0  0  0  0  0  0  0  0  0  0  0  0
   29.6612   10.6211   60.4328 C   0  0  0  0  0  0  0  0  0  0  0  0
   30.6114   10.2882   61.3493 C   0  0  0  0  0  0  0  0  0  0  0  0
   31.0280    8.9826   61.5086 C   0  0  0  0  0  0  0  0  0  0  0  0
   30.4850    7.9800   60.7349 C   0  0  0  0  0  0  0  0  0  0  0  0
   29.5200    8.3527   59.8112 C   0  0  0  0  0  0  0  0  0  0  0  0
   29.0801    9.6398   59.6247 C   0  0  0  0  0  0  0  0  0  0  0  0
 30 31  1  0  0  0
 31 32  2  0  0  0
 32 33  1  0  0  0
 33 34  2  0  0  0
 34 35  1  0  0  0
 35 36  2  0  0  0
 36 29  1  0  0  0
 29 27  1  0  0  0
 27  1  1  0  0  0
  1  2  2  0  0  0
  2  3  1  0  0  0
  3  4  2  0  0  0
  4  5  1  0  0  0
  5  6  2  0  0  0
  6  7  1  0  0  0
  7  8  2  0  0  0
  8  9  1  0  0  0
  9 10  1  0  0  0
 10 11  1  0  0  0
 11 12  1  0  0  0
 12 19  1  0  0  0
 19 20  2  0  0  0
 19 21  1  0  0  0
 21 23  1  0  0  0
 23 24  1  0  0  0
 24 25  1  0  0  0
 12 13  1  0  0  0
 13 14  1  0  0  0
 13 15  1  0  0  0
 15 16  1  0  0  0
 36 31  1  0  0  0
  6  1  1  0  0  0
 15 10  1  0  0  0
  9  5  1  0  0  0
 27 28  1  0  0  0
 21 22  1  0  0  0
 25 26  1  0  0  0
 14 17  1  0  0  0
 16 18  1  0  0  0
M  END
> <minimizedAffinity>
7.35254

> <CNNscore>
0.5144416690

> <CNNaffinity>
6.0325083733

> <CNN_VS>
3.1033737659

> <CNNaffinity_variance>
0.3528960347

$$$$
[H]OC([H])([H])C([H])([H])N([H])C(=O)[C@@]1([H])O[C@@]([H])(n2c([H])nc3c(N([H])C([H])([H])c4c([H])c([H])c([H])c([H])c4C([H])([H])[H])nc([H])nc32)[C@]([H])(O[H])[C@]1([H])O[H]


 36 39  0  0  0  0  0  0  0  0999 V2000
   26.9306    9.5507   56.4755 C   0  0  0  0  0  0  0  0  0  0  0  0
   25.8997   10.2251   57.0308 N   0  0  0  0  0  0  0  0  0  0  0  0
   24.6347   10.0649   56.6185 C   0  0  0  0  0  0  0  0  0  0  0  0
   24.3841    9.2063   55.6209 N   0  0  0  0  0  0  0  0  0  0  0  0
   25.3597    8.5116   55.0329 C   0  0  0  0  0  0  0  0  0  0  0  0
   26.6467    8.6708   55.4483 C   0  0  0  0  0  0  0  0  0  0  0  0
   27.4255    7.8656   54.7018 N   0  0  0  0  0  0  0  0  0  0  0  0
   26.6587    7.1998   53.8220 C   0  0  0  0  0  0  0  0  0  0  0  0
   25.3949    7.5995   54.0296 N   0  0  0  0  0  0  0  0  0  0  0  0
   24.2632    7.1306   53.2992 C   0  0  0  0  0  0  0  0  0  0  0  0
   23.5843    8.1425   52.6246 O   0  0  0  0  0  0  0  0  0  0  0  0
   22.3774    7.5144   52.2623 C   0  0  0  0  0  0  0  0  0  0  0  0
   21.9413    6.9743   53.6196 C   0  0  0  0  0  0  0  0  0  0  0  0
   20.9363    6.0474   53.5290 O   0  0  0  0  0  0  0  0  0  0  0  0
   23.2574    6.3727   54.0975 C   0  0  0  0  0  0  0  0  0  0  0  0
   23.2200    5.0147   53.7395 O   0  0  0  0  0  0  0  0  0  0  0  0
   20.4585    6.0077   54.4062 H   0  0  0  0  0  0  0  0  0  0  0  0
   23.4353    4.4398   54.5229 H   0  0  0  0  0  0  0  0  0  0  0  0
   21.4194    8.4353   51.6732 C   0  0  0  0  0  0  0  0  0  0  0  0
   20.4755    8.0103   50.9716 O   0  0  0  0  0  0  0  0  0  0  0  0
   21.5351    9.8298   51.8814 N   0  0  0  0  0  0  0  0  0  0  0  0
   22.3114   10.2053   52.4608 H   0  0  0  0  0  0  0  0  0  0  0  0
   20.5899   10.7732   51.3035 C   0  0  0  0  0  0  0  0  0  0  0  0
   21.2942   12.0242   50.8965 C   0  0  0  0  0  0  0  0  0  0  0  0
   22.1036   12.4609   51.9469 O   0  0  0  0  0  0  0  0  0  0  0  0
   22.8958   12.9784   51.6123 H   0  0  0  0  0  0  0  0  0  0  0  0
   28.2651    9.7501   56.9170 N   0  0  0  0  0  0  0  0  0  0  0  0
   29.0287    9.2807   56.3707 H   0  0  0  0  0  0  0  0  0  0  0  0
   28.6041   10.5484   58.0533 C   0  0  0  0  0  0  0  0  0  0  0  0
   29.1896   11.9646   60.4428 C   0  0  0  0  0  0  0  0  0  0  0  0
   29.3567   10.5058   60.4101 C   0  0  0  0  0  0  0  0  0  0  0  0
   29.7979    9.8471   61.5171 C   0  0  0  0  0  0  0  0  0  0  0  0
   29.9648    8.4775   61.5176 C   0  0  0  0  0  0  0  0  0  0  0  0
   29.6855    7.7424   60.3862 C   0  0  0  0  0  0  0  0  0  0  0  0
   29.2383    8.4437   59.2764 C   0  0  0  0  0  0  0  0  0  0  0  0
   29.0597    9.8045   59.2382 C   0  0  0  0  0  0  0  0  0  0  0  0
 30 31  1  0  0  0
 31 32  2  0  0  0
 32 33  1  0  0  0
 33 34  2  0  0  0
 34 35  1  0  0  0
 35 36  2  0  0  0
 36 29  1  0  0  0
 29 27  1  0  0  0
 27  1  1  0  0  0
  1  2  2  0  0  0
  2  3  1  0  0  0
  3  4  2  0  0  0
  4  5  1  0  0  0
  5  6  2  0  0  0
  6  7  1  0  0  0
  7  8  2  0  0  0
  8  9  1  0  0  0
  9 10  1  0  0  0
 10 11  1  0  0  0
 11 12  1  0  0  0
 12 19  1  0  0  0
 19 20  2  0  0  0
 19 21  1  0  0  0
 21 23  1  0  0  0
 23 24  1  0  0  0
 24 25  1  0  0  0
 12 13  1  0  0  0
 13 14  1  0  0  0
 13 15  1  0  0  0
 15 16  1  0  0  0
 36 31  1  0  0  0
  6  1  1  0  0  0
 15 10  1  0  0  0
  9  5  1  0  0  0
 27 28  1  0  0  0
 21 22  1  0  0  0
 25 26  1  0  0  0
 14 17  1  0  0  0
 16 18  1  0  0  0
M  END
> <minimizedAffinity>
9.35962

> <CNNscore>
0.5058040619

> <CNNaffinity>
5.9760069847

> <CNN_VS>
3.0226886272

> <CNNaffinity_variance>
0.1842845827

$$$$
[H]OC([H])([H])C([H])([H])N([H])C(=O)[C@@]1([H])O[C@@]([H])(n2c([H])nc3c(N([H])C([H])([H])c4c([H])c([H])c([H])c([H])c4C([H])([H])[H])nc([H])nc32)[C@]([H])(O[H])[C@]1([H])O[H]


 36 39  0  0  0  0  0  0  0  0999 V2000
   25.7385    8.8561   54.7704 C   0  0  0  0  0  0  0  0  0  0  0  0
   24.5441    9.1691   55.3195 N   0  0  0  0  0  0  0  0  0  0  0  0
   24.4214    9.5437   56.6003 C   0  0  0  0  0  0  0  0  0  0  0  0
   25.5214    9.6100   57.3624 N   0  0  0  0  0  0  0  0  0  0  0  0
   26.7285    9.3133   56.8774 C   0  0  0  0  0  0  0  0  0  0  0  0
   26.8585    8.9321   55.5766 C   0  0  0  0  0  0  0  0  0  0  0  0
   28.1625    8.6931   55.3433 N   0  0  0  0  0  0  0  0  0  0  0  0
   28.8613    8.9148   56.4692 C   0  0  0  0  0  0  0  0  0  0  0  0
   27.9779    9.2942   57.4050 N   0  0  0  0  0  0  0  0  0  0  0  0
   28.3114    9.6257   58.7515 C   0  0  0  0  0  0  0  0  0  0  0  0
   28.4122   10.9970   58.9730 O   0  0  0  0  0  0  0  0  0  0  0  0
   29.0399   11.0597   60.2319 C   0  0  0  0  0  0  0  0  0  0  0  0
   30.2450   10.1627   59.9726 C   0  0  0  0  0  0  0  0  0  0  0  0
   30.8900    9.7877   61.1219 O   0  0  0  0  0  0  0  0  0  0  0  0
   29.5575    8.9956   59.2743 C   0  0  0  0  0  0  0  0  0  0  0  0
   29.2851    8.0467   60.2739 O   0  0  0  0  0  0  0  0  0  0  0  0
   31.8286    9.5315   60.8920 H   0  0  0  0  0  0  0  0  0  0  0  0
   29.6214    7.1491   60.0058 H   0  0  0  0  0  0  0  0  0  0  0  0
   29.4012   12.4152   60.6127 C   0  0  0  0  0  0  0  0  0  0  0  0
   30.5572   12.6784   61.0107 O   0  0  0  0  0  0  0  0  0  0  0  0
   28.4538   13.4632   60.5407 N   0  0  0  0  0  0  0  0  0  0  0  0
   27.4876   13.2676   60.2129 H   0  0  0  0  0  0  0  0  0  0  0  0
   28.7895   14.8286   60.9157 C   0  0  0  0  0  0  0  0  0  0  0  0
   29.5600   15.4887   59.8216 C   0  0  0  0  0  0  0  0  0  0  0  0
   30.5485   16.3022   60.3789 O   0  0  0  0  0  0  0  0  0  0  0  0
   31.3375   16.3974   59.7659 H   0  0  0  0  0  0  0  0  0  0  0  0
   25.8418    8.4445   53.4156 N   0  0  0  0  0  0  0  0  0  0  0  0
   26.6502    8.8169   52.8591 H   0  0  0  0  0  0  0  0  0  0  0  0
   24.9076    7.5611   52.7911 C   0  0  0  0  0  0  0  0  0  0  0  0
   23.5326    5.7853   54.5274 C   0  0  0  0  0  0  0  0  0  0  0  0
   22.8147    6.9294   53.9505 C   0  0  0  0  0  0  0  0  0  0  0  0
   21.4993    7.1243   54.2430 C   0  0  0  0  0  0  0  0  0  0  0  0
   20.7979    8.1896   53.7169 C   0  0  0  0  0  0  0  0  0  0  0  0
   21.4214    9.0857   52.8763 C   0  0  0  0  0  0  0  0  0  0  0  0
   22.7610    8.8584   52.5986 C   0  0  0  0  0  0  0  0  0  0  0  0
   23.4915    7.8112   53.1032 C   0  0  0  0  0  0  0  0  0  0  0  0
 30 31  1  0  0  0
 31 32  2  0  0  0
 32 33  1  0  0  0
 33 34  2  0  0  0
 34 35  1  0  0  0
 35 36  2  0  0  0
 36 29  1  0  0  0
 29 27  1  0  0  0
 27  1  1  0  0  0
  1  2  2  0  0  0
  2  3  1  0  0  0
  3  4  2  0  0  0
  4  5  1  0  0  0
  5  6  2  0  0  0
  6  7  1  0  0  0
  7  8  2  0  0  0
  8  9  1  0  0  0
  9 10  1  0  0  0
 10 11  1  0  0  0
 11 12  1  0  0  0
 12 19  1  0  0  0
 19 20  2  0  0  0
 19 21  1  0  0  0
 21 23  1  0  0  0
 23 24  1  0  0  0
 24 25  1  0  0  0
 12 13  1  0  0  0
 13 14  1  0  0  0
 13 15  1  0  0  0
 15 16  1  0  0  0
 36 31  1  0  0  0
  6  1  1  0  0  0
 15 10  1  0  0  0
  9  5  1  0  0  0
 27 28  1  0  0  0
 21 22  1  0  0  0
 25 26  1  0  0  0
 14 17  1  0  0  0
 16 18  1  0  0  0
M  END
> <minimizedAffinity>
6.44714

> <CNNscore>
0.4991475940

> <CNNaffinity>
5.8071885109

> <CNN_VS>
2.8986442089

> <CNNaffinity_variance>
0.0514105633

$$$$
[H]c1c([H])c([H])c(S(=O)(=O)c2c([H])c([H])c3c(c2[H])c2c(n3[H])C([H])([H])C([H])([H])C([H])(N([H])[H])C2([H])[H])c([H])c1[H]


 26 29  0  0  0  0  0  0  0  0999 V2000
   21.3034    7.3001   49.9620 N   0  0  0  0  0  0  0  0  0  0  0  0
   21.3634    8.0645   51.2053 C   0  0  0  0  0  0  0  0  0  0  0  0
   19.9897    8.1696   51.7605 C   0  0  0  0  0  0  0  0  0  0  0  0
   19.8960    8.1533   53.2521 C   0  0  0  0  0  0  0  0  0  0  0  0
   21.1616    8.4464   53.9461 C   0  0  0  0  0  0  0  0  0  0  0  0
   21.4023    9.0407   55.1150 N   0  0  0  0  0  0  0  0  0  0  0  0
   22.7122    9.0901   55.3457 C   0  0  0  0  0  0  0  0  0  0  0  0
   23.4840    9.5955   56.3987 C   0  0  0  0  0  0  0  0  0  0  0  0
   24.8512    9.4678   56.2944 C   0  0  0  0  0  0  0  0  0  0  0  0
   25.4709    8.8804   55.2277 C   0  0  0  0  0  0  0  0  0  0  0  0
   24.7057    8.3846   54.1942 C   0  0  0  0  0  0  0  0  0  0  0  0
   23.3392    8.5031   54.2808 C   0  0  0  0  0  0  0  0  0  0  0  0
   22.3659    8.0986   53.4015 C   0  0  0  0  0  0  0  0  0  0  0  0
   22.3663    7.4159   52.0881 C   0  0  0  0  0  0  0  0  0  0  0  0
   22.2161    6.8576   49.7833 H   0  0  0  0  0  0  0  0  0  0  0  0
   20.9319    7.8745   49.1854 H   0  0  0  0  0  0  0  0  0  0  0  0
   20.6942    9.4302   55.7915 H   0  0  0  0  0  0  0  0  0  0  0  0
   27.2124    8.7462   55.1499 S   0  0  0  0  0  0  0  0  0  0  0  0
   27.6971    9.5328   53.9796 O   0  0  0  0  0  0  0  0  0  0  0  0
   27.5729    7.3022   54.9603 O   0  0  0  0  0  0  0  0  0  0  0  0
   27.8536    9.3596   56.6576 C   0  0  0  0  0  0  0  0  0  0  0  0
   28.0861    8.4936   57.6971 C   0  0  0  0  0  0  0  0  0  0  0  0
   28.5903    8.8892   58.9220 C   0  0  0  0  0  0  0  0  0  0  0  0
   28.8660   10.2349   59.0805 C   0  0  0  0  0  0  0  0  0  0  0  0
   28.6413   11.1325   58.0480 C   0  0  0  0  0  0  0  0  0  0  0  0
   28.1387   10.6881   56.8498 C   0  0  0  0  0  0  0  0  0  0  0  0
  1  2  1  0  0  0
  2  3  1  0  0  0
  3  4  1  0  0  0
  4  5  1  0  0  0
  5  6  1  0  0  0
  6  7  1  0  0  0
  7  8  2  0  0  0
  8  9  1  0  0  0
  9 10  2  0  0  0
 10 18  1  0  0  0
 18 19  2  0  0  0
 18 20  2  0  0  0
 18 21  1  0  0  0
 21 22  2  0  0  0
 22 23  1  0  0  0
 23 24  2  0  0  0
 24 25  1  0  0  0
 25 26  2  0  0  0
 10 11  1  0  0  0
 11 12  2  0  0  0
 12 13  1  0  0  0
 13 14  1  0  0  0
 14  2  1  0  0  0
 13  5  2  0  0  0
 12  7  1  0  0  0
 26 21  1  0  0  0
  1 15  1  0  0  0
  1 16  1  0  0  0
  6 17  1  0  0  0
M  END
> <minimizedAffinity>
14.24384

> <CNNscore>
0.6872226000

> <CNNaffinity>
5.7339172363

> <CNN_VS>
3.9404776096

> <CNNaffinity_variance>
0.0956896394

$$$$
[H]c1c([H])c([H])c(S(=O)(=O)c2c([H])c([H])c3c(c2[H])c2c(n3[H])C([H])([H])C([H])([H])C([H])(N([H])[H])C2([H])[H])c([H])c1[H]


 26 29  0  0  0  0  0  0  0  0999 V2000
   28.3959   11.0145   58.2298 N   0  0  0  0  0  0  0  0  0  0  0  0
   28.1229   10.5398   56.8755 C   0  0  0  0  0  0  0  0  0  0  0  0
   29.3767    9.9770   56.3120 C   0  0  0  0  0  0  0  0  0  0  0  0
   29.2030    8.8040   55.4021 C   0  0  0  0  0  0  0  0  0  0  0  0
   27.8369    8.6357   54.8777 C   0  0  0  0  0  0  0  0  0  0  0  0
   27.3977    8.1391   53.7211 N   0  0  0  0  0  0  0  0  0  0  0  0
   26.0682    8.1828   53.6760 C   0  0  0  0  0  0  0  0  0  0  0  0
   25.1262    7.7978   52.7147 C   0  0  0  0  0  0  0  0  0  0  0  0
   23.7982    7.9982   53.0194 C   0  0  0  0  0  0  0  0  0  0  0  0
   23.3727    8.5458   54.1968 C   0  0  0  0  0  0  0  0  0  0  0  0
   24.3049    8.9228   55.1393 C   0  0  0  0  0  0  0  0  0  0  0  0
   25.6352    8.7304   54.8526 C   0  0  0  0  0  0  0  0  0  0  0  0
   26.7455    9.0150   55.6078 C   0  0  0  0  0  0  0  0  0  0  0  0
   26.9724    9.6032   56.9470 C   0  0  0  0  0  0  0  0  0  0  0  0
   27.5254   11.0107   58.7801 H   0  0  0  0  0  0  0  0  0  0  0  0
   28.9055   11.9152   58.2165 H   0  0  0  0  0  0  0  0  0  0  0  0
   27.9777    7.7564   52.9288 H   0  0  0  0  0  0  0  0  0  0  0  0
   21.6717    8.7764   54.5289 S   0  0  0  0  0  0  0  0  0  0  0  0
   21.2105   10.0012   53.8146 O   0  0  0  0  0  0  0  0  0  0  0  0
   21.4945    8.9677   56.0064 O   0  0  0  0  0  0  0  0  0  0  0  0
   20.8308    7.3450   53.9770 C   0  0  0  0  0  0  0  0  0  0  0  0
   21.4728    6.1317   53.9980 C   0  0  0  0  0  0  0  0  0  0  0  0
   20.8869    4.9508   53.5815 C   0  0  0  0  0  0  0  0  0  0  0  0
   19.5841    5.0254   53.1243 C   0  0  0  0  0  0  0  0  0  0  0  0
   18.9109    6.2370   53.0919 C   0  0  0  0  0  0  0  0  0  0  0  0
   19.5384    7.3821   53.5171 C   0  0  0  0  0  0  0  0  0  0  0  0
  1  2  1  0  0  0
  2  3  1  0  0  0
  3  4  1  0  0  0
  4  5  1  0  0  0
  5  6  1  0  0  0
  6  7  1  0  0  0
  7  8  2  0  0  0
  8  9  1  0  0  0
  9 10  2  0  0  0
 10 18  1  0  0  0
 18 19  2  0  0  0
 18 20  2  0  0  0
 18 21  1  0  0  0
 21 22  2  0  0  0
 22 23  1  0  0  0
 23 24  2  0  0  0
 24 25  1  0  0  0
 25 26  2  0  0  0
 10 11  1  0  0  0
 11 12  2  0  0  0
 12 13  1  0  0  0
 13 14  1  0  0  0
 14  2  1  0  0  0
 13  5  2  0  0  0
 12  7  1  0  0  0
 26 21  1  0  0  0
  1 15  1  0  0  0
  1 16  1  0  0  0
  6 17  1  0  0  0
M  END
> <minimizedAffinity>
17.74981

> <CNNscore>
0.5926666260

> <CNNaffinity>
5.7577190399

> <CNN_VS>
3.4124078751

> <CNNaffinity_variance>
0.1409307867

$$$$
[H]c1c([H])c([H])c(S(=O)(=O)c2c([H])c([H])c3c(c2[H])c2c(n3[H])C([H])([H])C([H])([H])C([H])(N([H])[H])C2([H])[H])c([H])c1[H]


 26 29  0  0  0  0  0  0  0  0999 V2000
   20.3610    8.4150   55.3405 N   0  0  0  0  0  0  0  0  0  0  0  0
   21.6314    8.0365   54.7266 C   0  0  0  0  0  0  0  0  0  0  0  0
   21.4415    7.9681   53.2550 C   0  0  0  0  0  0  0  0  0  0  0  0
   22.6169    8.3917   52.4347 C   0  0  0  0  0  0  0  0  0  0  0  0
   23.8944    8.4185   53.1674 C   0  0  0  0  0  0  0  0  0  0  0  0
   25.1438    8.1982   52.7578 N   0  0  0  0  0  0  0  0  0  0  0  0
   25.9925    8.3327   53.7743 C   0  0  0  0  0  0  0  0  0  0  0  0
   27.3826    8.2125   53.8877 C   0  0  0  0  0  0  0  0  0  0  0  0
   27.9334    8.4279   55.1314 C   0  0  0  0  0  0  0  0  0  0  0  0
   27.1934    8.7473   56.2348 C   0  0  0  0  0  0  0  0  0  0  0  0
   25.8253    8.8642   56.1168 C   0  0  0  0  0  0  0  0  0  0  0  0
   25.2577    8.6527   54.8831 C   0  0  0  0  0  0  0  0  0  0  0  0
   23.9401    8.7068   54.5026 C   0  0  0  0  0  0  0  0  0  0  0  0
   22.6652    8.9929   55.1982 C   0  0  0  0  0  0  0  0  0  0  0  0
   20.5367    8.8698   56.2476 H   0  0  0  0  0  0  0  0  0  0  0  0
   19.7041    7.6157   55.3675 H   0  0  0  0  0  0  0  0  0  0  0  0
   25.4628    7.9513   51.7842 H   0  0  0  0  0  0  0  0  0  0  0  0
   27.9483    9.0097   57.7898 S   0  0  0  0  0  0  0  0  0  0  0  0
   29.2735    8.3265   57.7954 O   0  0  0  0  0  0  0  0  0  0  0  0
   27.0762    8.4087   58.8525 O   0  0  0  0  0  0  0  0  0  0  0  0
   28.1056   10.7379   58.0116 C   0  0  0  0  0  0  0  0  0  0  0  0
   27.3556   11.5909   57.2405 C   0  0  0  0  0  0  0  0  0  0  0  0
   27.4151   12.9680   57.3470 C   0  0  0  0  0  0  0  0  0  0  0  0
   28.2850   13.4861   58.2887 C   0  0  0  0  0  0  0  0  0  0  0  0
   29.0548   12.6488   59.0814 C   0  0  0  0  0  0  0  0  0  0  0  0
   28.9585   11.2866   58.9361 C   0  0  0  0  0  0  0  0  0  0  0  0
  1  2  1  0  0  0
  2  3  1  0  0  0
  3  4  1  0  0  0
  4  5  1  0  0  0
  5  6  1  0  0  0
  6  7  1  0  0  0
  7  8  2  0  0  0
  8  9  1  0  0  0
  9 10  2  0  0  0
 10 18  1  0  0  0
 18 19  2  0  0  0
 18 20  2  0  0  0
 18 21  1  0  0  0
 21 22  2  0  0  0
 22 23  1  0  0  0
 23 24  2  0  0  0
 24 25  1  0  0  0
 25 26  2  0  0  0
 10 11  1  0  0  0
 11 12  2  0  0  0
 12 13  1  0  0  0
 13 14  1  0  0  0
 14  2  1  0  0  0
 13  5  2  0  0  0
 12  7  1  0  0  0
 26 21  1  0  0  0
  1 15  1  0  0  0
  1 16  1  0  0  0
  6 17  1  0  0  0
M  END
> <minimizedAffinity>
16.67650

> <CNNscore>
0.5880114436

> <CNNaffinity>
5.7457456589

> <CNN_VS>
3.3785641193

> <CNNaffinity_variance>
0.1516724378

$$$$
[H]c1c([H])c([H])c(S(=O)(=O)c2c([H])c([H])c3c(c2[H])c2c(n3[H])C([H])([H])C([H])([H])C([H])(N([H])[H])C2([H])[H])c([H])c1[H]


 26 29  0  0  0  0  0  0  0  0999 V2000
   28.2676   11.6031   58.5317 N   0  0  0  0  0  0  0  0  0  0  0  0
   28.0660   11.0121   57.2111 C   0  0  0  0  0  0  0  0  0  0  0  0
   29.3791   10.5424   56.6998 C   0  0  0  0  0  0  0  0  0  0  0  0
   29.3392    9.2986   55.8719 C   0  0  0  0  0  0  0  0  0  0  0  0
   28.0057    8.9573   55.3476 C   0  0  0  0  0  0  0  0  0  0  0  0
   27.6377    8.3411   54.2241 N   0  0  0  0  0  0  0  0  0  0  0  0
   26.3114    8.2467   54.1635 C   0  0  0  0  0  0  0  0  0  0  0  0
   25.4288    7.7036   53.2224 C   0  0  0  0  0  0  0  0  0  0  0  0
   24.0826    7.7884   53.4999 C   0  0  0  0  0  0  0  0  0  0  0  0
   23.5850    8.3689   54.6323 C   0  0  0  0  0  0  0  0  0  0  0  0
   24.4589    8.9018   55.5552 C   0  0  0  0  0  0  0  0  0  0  0  0
   25.8064    8.8263   55.2952 C   0  0  0  0  0  0  0  0  0  0  0  0
   26.8699    9.2728   56.0392 C   0  0  0  0  0  0  0  0  0  0  0  0
   27.0145    9.9708   57.3365 C   0  0  0  0  0  0  0  0  0  0  0  0
   27.3930   11.5485   59.0726 H   0  0  0  0  0  0  0  0  0  0  0  0
   28.6842   12.5478   58.4608 H   0  0  0  0  0  0  0  0  0  0  0  0
   28.2662    7.9662   53.4657 H   0  0  0  0  0  0  0  0  0  0  0  0
   21.8642    8.4478   54.9315 S   0  0  0  0  0  0  0  0  0  0  0  0
   21.5549    9.7537   55.5812 O   0  0  0  0  0  0  0  0  0  0  0  0
   21.4884    7.3308   55.8601 O   0  0  0  0  0  0  0  0  0  0  0  0
   21.0554    8.2797   53.3894 C   0  0  0  0  0  0  0  0  0  0  0  0
   21.2264    9.2429   52.4262 C   0  0  0  0  0  0  0  0  0  0  0  0
   20.6273    9.1923   51.1813 C   0  0  0  0  0  0  0  0  0  0  0  0
   19.8179    8.1020   50.9199 C   0  0  0  0  0  0  0  0  0  0  0  0
   19.6269    7.1141   51.8736 C   0  0  0  0  0  0  0  0  0  0  0  0
   20.2454    7.2117   53.0958 C   0  0  0  0  0  0  0  0  0  0  0  0
  1  2  1  0  0  0
  2  3  1  0  0  0
  3  4  1  0  0  0
  4  5  1  0  0  0
  5  6  1  0  0  0
  6  7  1  0  0  0
  7  8  2  0  0  0
  8  9  1  0  0  0
  9 10  2  0  0  0
 10 18  1  0  0  0
 18 19  2  0  0  0
 18 20  2  0  0  0
 18 21  1  0  0  0
 21 22  2  0  0  0
 22 23  1  0  0  0
 23 24  2  0  0  0
 24 25  1  0  0  0
 25 26  2  0  0  0
 10 11  1  0  0  0
 11 12  2  0  0  0
 12 13  1  0  0  0
 13 14  1  0  0  0
 14  2  1  0  0  0
 13  5  2  0  0  0
 12  7  1  0  0  0
 26 21  1  0  0  0
  1 15  1  0  0  0
  1 16  1  0  0  0
  6 17  1  0  0  0
M  END
> <minimizedAffinity>
15.56324

> <CNNscore>
0.5837562680

> <CNNaffinity>
5.8286871910

> <CNN_VS>
3.4025325775

> <CNNaffinity_variance>
0.2263660729

$$$$
[H]c1c([H])c([H])c(S(=O)(=O)c2c([H])c([H])c3c(c2[H])c2c(n3[H])C([H])([H])C([H])([H])C([H])(N([H])[H])C2([H])[H])c([H])c1[H]


 26 29  0  0  0  0  0  0  0  0999 V2000
   20.8021   10.7077   51.1687 N   0  0  0  0  0  0  0  0  0  0  0  0
   21.1305    9.7324   52.2054 C   0  0  0  0  0  0  0  0  0  0  0  0
   20.0393    8.7267   52.2687 C   0  0  0  0  0  0  0  0  0  0  0  0
   20.4683    7.3320   52.5922 C   0  0  0  0  0  0  0  0  0  0  0  0
   21.8092    7.2300   53.1932 C   0  0  0  0  0  0  0  0  0  0  0  0
   22.3120    6.3612   54.0705 N   0  0  0  0  0  0  0  0  0  0  0  0
   23.5834    6.6549   54.3329 C   0  0  0  0  0  0  0  0  0  0  0  0
   24.5516    6.0769   55.1625 C   0  0  0  0  0  0  0  0  0  0  0  0
   25.7962    6.6662   55.1825 C   0  0  0  0  0  0  0  0  0  0  0  0
   26.1165    7.7684   54.4412 C   0  0  0  0  0  0  0  0  0  0  0  0
   25.1590    8.3330   53.6264 C   0  0  0  0  0  0  0  0  0  0  0  0
   23.9110    7.7584   53.5935 C   0  0  0  0  0  0  0  0  0  0  0  0
   22.7972    8.1200   52.8775 C   0  0  0  0  0  0  0  0  0  0  0  0
   22.4837    9.1960   51.9105 C   0  0  0  0  0  0  0  0  0  0  0  0
   21.6669   11.1383   50.8119 H   0  0  0  0  0  0  0  0  0  0  0  0
   20.0796   11.3733   51.4944 H   0  0  0  0  0  0  0  0  0  0  0  0
   21.8163    5.5461   54.5182 H   0  0  0  0  0  0  0  0  0  0  0  0
   27.7148    8.4740   54.5071 S   0  0  0  0  0  0  0  0  0  0  0  0
   27.8145    9.5226   53.4519 O   0  0  0  0  0  0  0  0  0  0  0  0
   28.7243    7.3982   54.2340 O   0  0  0  0  0  0  0  0  0  0  0  0
   27.9281    9.1411   56.1103 C   0  0  0  0  0  0  0  0  0  0  0  0
   28.0830   10.4963   56.2651 C   0  0  0  0  0  0  0  0  0  0  0  0
   28.2569   11.1095   57.4919 C   0  0  0  0  0  0  0  0  0  0  0  0
   28.2715   10.2896   58.6052 C   0  0  0  0  0  0  0  0  0  0  0  0
   28.1174    8.9175   58.4791 C   0  0  0  0  0  0  0  0  0  0  0  0
   27.9477    8.3576   57.2367 C   0  0  0  0  0  0  0  0  0  0  0  0
  1  2  1  0  0  0
  2  3  1  0  0  0
  3  4  1  0  0  0
  4  5  1  0  0  0
  5  6  1  0  0  0
  6  7  1  0  0  0
  7  8  2  0  0  0
  8  9  1  0  0  0
  9 10  2  0  0  0
 10 18  1  0  0  0
 18 19  2  0  0  0
 18 20  2  0  0  0
 18 21  1  0  0  0
 21 22  2  0  0  0
 22 23  1  0  0  0
 23 24  2  0  0  0
 24 25  1  0  0  0
 25 26  2  0  0  0
 10 11  1  0  0  0
 11 12  2  0  0  0
 12 13  1  0  0  0
 13 14  1  0  0  0
 14  2  1  0  0  0
 13  5  2  0  0  0
 12  7  1  0  0  0
 26 21  1  0  0  0
  1 15  1  0  0  0
  1 16  1  0  0  0
  6 17  1  0  0  0
M  END
> <minimizedAffinity>
16.25450

> <CNNscore>
0.5781732798

> <CNNaffinity>
5.7208466530

> <CNN_VS>
3.3076407909

> <CNNaffinity_variance>
0.0603542216

$$$$
[H]c1c([H])c([H])c(S(=O)(=O)c2c([H])c([H])c3c(c2[H])c2c(n3[H])C([H])([H])C([H])([H])C([H])(N([H])[H])C2([H])[H])c([H])c1[H]


 26 29  0  0  0  0  0  0  0  0999 V2000
   16.3024    4.5413   54.0358 N   0  0  0  0  0  0  0  0  0  0  0  0
   17.7521    4.4761   54.2037 C   0  0  0  0  0  0  0  0  0  0  0  0
   18.2270    3.1650   53.6923 C   0  0  0  0  0  0  0  0  0  0  0  0
   19.5704    3.1787   53.0372 C   0  0  0  0  0  0  0  0  0  0  0  0
   20.3896    4.3622   53.3500 C   0  0  0  0  0  0  0  0  0  0  0  0
   21.7106    4.5115   53.4499 N   0  0  0  0  0  0  0  0  0  0  0  0
   22.0102    5.7722   53.7539 C   0  0  0  0  0  0  0  0  0  0  0  0
   23.2172    6.4480   53.9689 C   0  0  0  0  0  0  0  0  0  0  0  0
   23.1421    7.7891   54.2728 C   0  0  0  0  0  0  0  0  0  0  0  0
   21.9623    8.4714   54.3708 C   0  0  0  0  0  0  0  0  0  0  0  0
   20.7773    7.8006   54.1580 C   0  0  0  0  0  0  0  0  0  0  0  0
   20.8326    6.4615   53.8536 C   0  0  0  0  0  0  0  0  0  0  0  0
   19.8145    5.5766   53.6000 C   0  0  0  0  0  0  0  0  0  0  0  0
   18.3383    5.6731   53.5484 C   0  0  0  0  0  0  0  0  0  0  0  0
   16.0050    5.5252   53.9731 H   0  0  0  0  0  0  0  0  0  0  0  0
   15.8153    3.9780   54.7545 H   0  0  0  0  0  0  0  0  0  0  0  0
   22.4491    3.7715   53.3168 H   0  0  0  0  0  0  0  0  0  0  0  0
   21.9283   10.1756   54.7600 S   0  0  0  0  0  0  0  0  0  0  0  0
   23.2094   10.5342   55.4334 O   0  0  0  0  0  0  0  0  0  0  0  0
   20.7864   10.4289   55.6997 O   0  0  0  0  0  0  0  0  0  0  0  0
   21.7128   11.0518   53.2612 C   0  0  0  0  0  0  0  0  0  0  0  0
   21.4587   10.3603   52.1028 C   0  0  0  0  0  0  0  0  0  0  0  0
   21.2752   10.9689   50.8752 C   0  0  0  0  0  0  0  0  0  0  0  0
   21.3576   12.3489   50.8419 C   0  0  0  0  0  0  0  0  0  0  0  0
   21.6130   13.0733   51.9961 C   0  0  0  0  0  0  0  0  0  0  0  0
   21.7878   12.4202   53.1914 C   0  0  0  0  0  0  0  0  0  0  0  0
  1  2  1  0  0  0
  2  3  1  0  0  0
  3  4  1  0  0  0
  4  5  1  0  0  0
  5  6  1  0  0  0
  6  7  1  0  0  0
  7  8  2  0  0  0
  8  9  1  0  0  0
  9 10  2  0  0  0
 10 18  1  0  0  0
 18 19  2  0  0  0
 18 20  2  0  0  0
 18 21  1  0  0  0
 21 22  2  0  0  0
 22 23  1  0  0  0
 23 24  2  0  0  0
 24 25  1  0  0  0
 25 26  2  0  0  0
 10 11  1  0  0  0
 11 12  2  0  0  0
 12 13  1  0  0  0
 13 14  1  0  0  0
 14  2  1  0  0  0
 13  5  2  0  0  0
 12  7  1  0  0  0
 26 21  1  0  0  0
  1 15  1  0  0  0
  1 16  1  0  0  0
  6 17  1  0  0  0
M  END
> <minimizedAffinity>
22.77190

> <CNNscore>
0.5501167178

> <CNNaffinity>
6.1902265549

> <CNN_VS>
3.4053471088

> <CNNaffinity_variance>
0.3103013635

$$$$
[H]c1c([H])c([H])c(S(=O)(=O)c2c([H])c([H])c3c(c2[H])c2c(n3[H])C([H])([H])C([H])([H])C([H])(N([H])[H])C2([H])[H])c([H])c1[H]


 26 29  0  0  0  0  0  0  0  0999 V2000
   28.2480   11.1563   57.4411 N   0  0  0  0  0  0  0  0  0  0  0  0
   27.9917   10.3059   56.2814 C   0  0  0  0  0  0  0  0  0  0  0  0
   29.1871    9.4560   56.0472 C   0  0  0  0  0  0  0  0  0  0  0  0
   28.9075    8.0802   55.5343 C   0  0  0  0  0  0  0  0  0  0  0  0
   27.5640    7.9060   54.9561 C   0  0  0  0  0  0  0  0  0  0  0  0
   27.1288    7.1169   53.9737 N   0  0  0  0  0  0  0  0  0  0  0  0
   25.8228    7.2919   53.7863 C   0  0  0  0  0  0  0  0  0  0  0  0
   24.8944    6.7264   52.9042 C   0  0  0  0  0  0  0  0  0  0  0  0
   23.5909    7.1607   52.9990 C   0  0  0  0  0  0  0  0  0  0  0  0
   23.1768    8.1009   53.8999 C   0  0  0  0  0  0  0  0  0  0  0  0
   24.0955    8.6539   54.7657 C   0  0  0  0  0  0  0  0  0  0  0  0
   25.4013    8.2326   54.6858 C   0  0  0  0  0  0  0  0  0  0  0  0
   26.4943    8.6187   55.4207 C   0  0  0  0  0  0  0  0  0  0  0  0
   26.7215    9.5762   56.5265 C   0  0  0  0  0  0  0  0  0  0  0  0
   27.3547   11.4263   57.8766 H   0  0  0  0  0  0  0  0  0  0  0  0
   28.8761   11.9424   57.1990 H   0  0  0  0  0  0  0  0  0  0  0  0
   27.6960    6.4381   53.4007 H   0  0  0  0  0  0  0  0  0  0  0  0
   21.5071    8.6140   53.9744 S   0  0  0  0  0  0  0  0  0  0  0  0
   21.1245    8.7780   55.4061 O   0  0  0  0  0  0  0  0  0  0  0  0
   20.6516    7.5505   53.3513 O   0  0  0  0  0  0  0  0  0  0  0  0
   21.3806   10.1181   53.0900 C   0  0  0  0  0  0  0  0  0  0  0  0
   21.2246   10.0911   51.7264 C   0  0  0  0  0  0  0  0  0  0  0  0
   21.1164   11.2283   50.9478 C   0  0  0  0  0  0  0  0  0  0  0  0
   21.1715   12.4441   51.6042 C   0  0  0  0  0  0  0  0  0  0  0  0
   21.3283   12.5019   52.9805 C   0  0  0  0  0  0  0  0  0  0  0  0
   21.4312   11.3420   53.7086 C   0  0  0  0  0  0  0  0  0  0  0  0
  1  2  1  0  0  0
  2  3  1  0  0  0
  3  4  1  0  0  0
  4  5  1  0  0  0
  5  6  1  0  0  0
  6  7  1  0  0  0
  7  8  2  0  0  0
  8  9  1  0  0  0
  9 10  2  0  0  0
 10 18  1  0  0  0
 18 19  2  0  0  0
 18 20  2  0  0  0
 18 21  1  0  0  0
 21 22  2  0  0  0
 22 23  1  0  0  0
 23 24  2  0  0  0
 24 25  1  0  0  0
 25 26  2  0  0  0
 10 11  1  0  0  0
 11 12  2  0  0  0
 12 13  1  0  0  0
 13 14  1  0  0  0
 14  2  1  0  0  0
 13  5  2  0  0  0
 12  7  1  0  0  0
 26 21  1  0  0  0
  1 15  1  0  0  0
  1 16  1  0  0  0
  6 17  1  0  0  0
M  END
> <minimizedAffinity>
15.78279

> <CNNscore>
0.5467342138

> <CNNaffinity>
5.6396045685

> <CNN_VS>
3.0833647251

> <CNNaffinity_variance>
0.1296838373

$$$$
[H]c1c([H])c([H])c(S(=O)(=O)c2c([H])c([H])c3c(c2[H])c2c(n3[H])C([H])([H])C([H])([H])C([H])(N([H])[H])C2([H])[H])c([H])c1[H]


 26 29  0  0  0  0  0  0  0  0999 V2000
   27.9706   11.4283   57.6136 N   0  0  0  0  0  0  0  0  0  0  0  0
   27.8215   10.5428   56.4614 C   0  0  0  0  0  0  0  0  0  0  0  0
   29.0712    9.7548   56.3081 C   0  0  0  0  0  0  0  0  0  0  0  0
   28.8927    8.3561   55.8122 C   0  0  0  0  0  0  0  0  0  0  0  0
   27.5928    8.0980   55.1695 C   0  0  0  0  0  0  0  0  0  0  0  0
   27.2527    7.2674   54.1837 N   0  0  0  0  0  0  0  0  0  0  0  0
   25.9509    7.3674   53.9253 C   0  0  0  0  0  0  0  0  0  0  0  0
   25.1017    6.7353   53.0093 C   0  0  0  0  0  0  0  0  0  0  0  0
   23.7738    7.0998   53.0271 C   0  0  0  0  0  0  0  0  0  0  0  0
   23.2632    8.0334   53.8843 C   0  0  0  0  0  0  0  0  0  0  0  0
   24.1043    8.6522   54.7838 C   0  0  0  0  0  0  0  0  0  0  0  0
   25.4330    8.3011   54.7807 C   0  0  0  0  0  0  0  0  0  0  0  0
   26.4636    8.7603   55.5624 C   0  0  0  0  0  0  0  0  0  0  0  0
   26.5808    9.7501   56.6568 C   0  0  0  0  0  0  0  0  0  0  0  0
   27.0425   11.6577   57.9963 H   0  0  0  0  0  0  0  0  0  0  0  0
   28.5679   12.2425   57.3868 H   0  0  0  0  0  0  0  0  0  0  0  0
   27.8847    6.6095   53.6560 H   0  0  0  0  0  0  0  0  0  0  0  0
   21.5669    8.4563   53.8612 S   0  0  0  0  0  0  0  0  0  0  0  0
   21.0978    8.6132   55.2677 O   0  0  0  0  0  0  0  0  0  0  0  0
   20.8051    7.3421   53.2058 O   0  0  0  0  0  0  0  0  0  0  0  0
   21.4093    9.9427   52.9522 C   0  0  0  0  0  0  0  0  0  0  0  0
   21.5466   11.1478   53.5952 C   0  0  0  0  0  0  0  0  0  0  0  0
   21.4381   12.3698   52.9579 C   0  0  0  0  0  0  0  0  0  0  0  0
   21.1768   12.3468   51.6003 C   0  0  0  0  0  0  0  0  0  0  0  0
   21.0332   11.1447   50.9247 C   0  0  0  0  0  0  0  0  0  0  0  0
   21.1503    9.9574   51.6047 C   0  0  0  0  0  0  0  0  0  0  0  0
  1  2  1  0  0  0
  2  3  1  0  0  0
  3  4  1  0  0  0
  4  5  1  0  0  0
  5  6  1  0  0  0
  6  7  1  0  0  0
  7  8  2  0  0  0
  8  9  1  0  0  0
  9 10  2  0  0  0
 10 18  1  0  0  0
 18 19  2  0  0  0
 18 20  2  0  0  0
 18 21  1  0  0  0
 21 22  2  0  0  0
 22 23  1  0  0  0
 23 24  2  0  0  0
 24 25  1  0  0  0
 25 26  2  0  0  0
 10 11  1  0  0  0
 11 12  2  0  0  0
 12 13  1  0  0  0
 13 14  1  0  0  0
 14  2  1  0  0  0
 13  5  2  0  0  0
 12  7  1  0  0  0
 26 21  1  0  0  0
  1 15  1  0  0  0
  1 16  1  0  0  0
  6 17  1  0  0  0
M  END
> <minimizedAffinity>
15.86216

> <CNNscore>
0.5378437638

> <CNNaffinity>
5.6654739380

> <CNN_VS>
3.0471398830

> <CNNaffinity_variance>
0.1194643602

$$$$
[H]c1c([H])c([H])c(S(=O)(=O)c2c([H])c([H])c3c(c2[H])c2c(n3[H])C([H])([H])C([H])([H])C([H])(N([H])[H])C2([H])[H])c([H])c1[H]


 26 29  0  0  0  0  0  0  0  0999 V2000
   21.3396    4.3692   53.2449 N   0  0  0  0  0  0  0  0  0  0  0  0
   21.3691    5.8297   53.2412 C   0  0  0  0  0  0  0  0  0  0  0  0
   20.0044    6.3276   52.9312 C   0  0  0  0  0  0  0  0  0  0  0  0
   19.6106    7.5947   53.6191 C   0  0  0  0  0  0  0  0  0  0  0  0
   20.7389    8.3696   54.1632 C   0  0  0  0  0  0  0  0  0  0  0  0
   20.9023    9.6827   54.3256 N   0  0  0  0  0  0  0  0  0  0  0  0
   22.0938    9.9360   54.8617 C   0  0  0  0  0  0  0  0  0  0  0  0
   22.7507   11.1163   55.2296 C   0  0  0  0  0  0  0  0  0  0  0  0
   24.0115   10.9928   55.7696 C   0  0  0  0  0  0  0  0  0  0  0  0
   24.6332    9.7905   55.9566 C   0  0  0  0  0  0  0  0  0  0  0  0
   23.9815    8.6320   55.5925 C   0  0  0  0  0  0  0  0  0  0  0  0
   22.7222    8.7357   55.0518 C   0  0  0  0  0  0  0  0  0  0  0  0
   21.8718    7.7516   54.6134 C   0  0  0  0  0  0  0  0  0  0  0  0
   21.9369    6.2746   54.5395 C   0  0  0  0  0  0  0  0  0  0  0  0
   22.0982    4.0091   53.8410 H   0  0  0  0  0  0  0  0  0  0  0  0
   21.3183    3.9915   52.2816 H   0  0  0  0  0  0  0  0  0  0  0  0
   20.2185   10.4466   54.0812 H   0  0  0  0  0  0  0  0  0  0  0  0
   26.2364    9.6949   56.6475 S   0  0  0  0  0  0  0  0  0  0  0  0
   26.1578    8.9299   57.9249 O   0  0  0  0  0  0  0  0  0  0  0  0
   26.7185   11.0869   56.9321 O   0  0  0  0  0  0  0  0  0  0  0  0
   27.2661    8.9024   55.4761 C   0  0  0  0  0  0  0  0  0  0  0  0
   26.7340    8.4779   54.2839 C   0  0  0  0  0  0  0  0  0  0  0  0
   27.4716    7.8437   53.3016 C   0  0  0  0  0  0  0  0  0  0  0  0
   28.8144    7.6391   53.5607 C   0  0  0  0  0  0  0  0  0  0  0  0
   29.3790    8.0573   54.7559 C   0  0  0  0  0  0  0  0  0  0  0  0
   28.6021    8.6830   55.6998 C   0  0  0  0  0  0  0  0  0  0  0  0
  1  2  1  0  0  0
  2  3  1  0  0  0
  3  4  1  0  0  0
  4  5  1  0  0  0
  5  6  1  0  0  0
  6  7  1  0  0  0
  7  8  2  0  0  0
  8  9  1  0  0  0
  9 10  2  0  0  0
 10 18  1  0  0  0
 18 19  2  0  0  0
 18 20  2  0  0  0
 18 21  1  0  0  0
 21 22  2  0  0  0
 22 23  1  0  0  0
 23 24  2  0  0  0
 24 25  1  0  0  0
 25 26  2  0  0  0
 10 11  1  0  0  0
 11 12  2  0  0  0
 12 13  1  0  0  0
 13 14  1  0  0  0
 14  2  1  0  0  0
 13  5  2  0  0  0
 12  7  1  0  0  0
 26 21  1  0  0  0
  1 15  1  0  0  0
  1 16  1  0  0  0
  6 17  1  0  0  0
M  END
> <minimizedAffinity>
27.57371

> <CNNscore>
0.5360941291

> <CNNaffinity>
5.5779585838

> <CNN_VS>
2.9903109074

> <CNNaffinity_variance>
0.1235288009

$$$$
[H]c1c([H])c(OC([H])([H])[H])c2c(c1[H])[C@]([H])(C([H])([H])N(C([H])([H])[H])C([H])([H])C([H])([H])c1c([H])c([H])c3c(c1[H])C([H])([H])N(S(=O)(=O)C([H])([H])[H])C3([H])[H])C([H])([H])C([H])([H])C2([H])[H]


 30 33  0  0  0  0  0  0  0  0999 V2000
   22.6832    6.4909   53.7549 N   0  0  0  0  0  0  0  0  0  0  0  0
   22.9779    5.2881   54.3997 C   0  0  0  0  0  0  0  0  0  0  0  0
   23.6444    7.4553   53.5149 C   0  0  0  0  0  0  0  0  0  0  0  0
   27.5368    9.3095   55.8537 C   0  0  0  0  0  0  0  0  0  0  0  0
   28.3609    8.8356   54.8412 C   0  0  0  0  0  0  0  0  0  0  0  0
   27.7689    8.1493   53.7785 C   0  0  0  0  0  0  0  0  0  0  0  0
   26.4026    7.9286   53.7015 C   0  0  0  0  0  0  0  0  0  0  0  0
   25.5830    8.4013   54.7116 C   0  0  0  0  0  0  0  0  0  0  0  0
   26.1861    9.0713   55.7426 C   0  0  0  0  0  0  0  0  0  0  0  0
   25.2234    9.5808   56.7892 C   0  0  0  0  0  0  0  0  0  0  0  0
   24.1461   10.3397   56.0261 C   0  0  0  0  0  0  0  0  0  0  0  0
   23.3902    9.4194   55.0959 C   0  0  0  0  0  0  0  0  0  0  0  0
   24.1229    8.1833   54.7353 C   0  0  0  0  0  0  0  0  0  0  0  0
   28.2819    9.3767   58.2021 C   0  0  0  0  0  0  0  0  0  0  0  0
   28.0343   10.0105   56.9641 O   0  0  0  0  0  0  0  0  0  0  0  0
   21.3301    6.7904   53.4650 C   0  0  0  0  0  0  0  0  0  0  0  0
   20.7793    8.0690   54.0019 C   0  0  0  0  0  0  0  0  0  0  0  0
   21.0092    9.2018   53.0327 C   0  0  0  0  0  0  0  0  0  0  0  0
   20.8835    9.0774   51.6703 C   0  0  0  0  0  0  0  0  0  0  0  0
   21.1134   10.1190   50.8041 C   0  0  0  0  0  0  0  0  0  0  0  0
   21.4916   11.3723   51.2787 C   0  0  0  0  0  0  0  0  0  0  0  0
   21.6190   11.5060   52.6280 C   0  0  0  0  0  0  0  0  0  0  0  0
   21.3834   10.4421   53.5101 C   0  0  0  0  0  0  0  0  0  0  0  0
   22.0332   12.8994   52.9431 C   0  0  0  0  0  0  0  0  0  0  0  0
   21.9446   13.5837   51.6931 N   0  0  0  0  0  0  0  0  0  0  0  0
   21.7990   12.6552   50.6234 C   0  0  0  0  0  0  0  0  0  0  0  0
   20.6109   14.6793   51.6372 S   0  0  0  0  0  0  0  0  0  0  0  0
   21.1529   16.3606   51.5209 C   0  0  0  0  0  0  0  0  0  0  0  0
   19.7726   14.3028   50.4495 O   0  0  0  0  0  0  0  0  0  0  0  0
   19.7358   14.4603   52.8508 O   0  0  0  0  0  0  0  0  0  0  0  0
 14 15  1  0  0  0
 15  4  1  0  0  0
  4  5  2  0  0  0
  5  6  1  0  0  0
  6  7  2  0  0  0
  7  8  1  0  0  0
  8  9  2  0  0  0
  9 10  1  0  0  0
 10 11  1  0  0  0
 11 12  1  0  0  0
 12 13  1  0  0  0
 13  3  1  0  0  0
  3  1  1  0  0  0
  1  2  1  0  0  0
  1 16  1  0  0  0
 16 17  1  0  0  0
 17 18  1  0  0  0
 18 19  2  0  0  0
 19 20  1  0  0  0
 20 21  2  0  0  0
 21 22  1  0  0  0
 22 23  2  0  0  0
 22 24  1  0  0  0
 24 25  1  0  0  0
 25 27  1  0  0  0
 27 28  1  0  0  0
 27 29  2  0  0  0
 27 30  2  0  0  0
 25 26  1  0  0  0
  9  4  1  0  0  0
 23 18  1  0  0  0
 13  8  1  0  0  0
 26 21  1  0  0  0
M  END
> <minimizedAffinity>
18.14825

> <CNNscore>
0.6348776221

> <CNNaffinity>
6.4622788429

> <CNN_VS>
4.1027560234

> <CNNaffinity_variance>
0.7040007710

$$$$
[H]c1c([H])c(OC([H])([H])[H])c2c(c1[H])[C@]([H])(C([H])([H])N(C([H])([H])[H])C([H])([H])C([H])([H])c1c([H])c([H])c3c(c1[H])C([H])([H])N(S(=O)(=O)C([H])([H])[H])C3([H])[H])C([H])([H])C([H])([H])C2([H])[H]


 30 33  0  0  0  0  0  0  0  0999 V2000
   22.7941    6.7993   53.8348 N   0  0  0  0  0  0  0  0  0  0  0  0
   23.4872    5.8442   54.5809 C   0  0  0  0  0  0  0  0  0  0  0  0
   23.4391    7.7074   53.0158 C   0  0  0  0  0  0  0  0  0  0  0  0
   26.7099    9.5135   56.1936 C   0  0  0  0  0  0  0  0  0  0  0  0
   25.6698    9.9840   56.9845 C   0  0  0  0  0  0  0  0  0  0  0  0
   24.3609    9.7491   56.5576 C   0  0  0  0  0  0  0  0  0  0  0  0
   24.0690    9.0698   55.3851 C   0  0  0  0  0  0  0  0  0  0  0  0
   25.1068    8.6020   54.5980 C   0  0  0  0  0  0  0  0  0  0  0  0
   26.3813    8.8439   55.0372 C   0  0  0  0  0  0  0  0  0  0  0  0
   27.4568    8.2776   54.1404 C   0  0  0  0  0  0  0  0  0  0  0  0
   27.0828    6.8186   53.9162 C   0  0  0  0  0  0  0  0  0  0  0  0
   25.7584    6.7026   53.1980 C   0  0  0  0  0  0  0  0  0  0  0  0
   24.8953    7.9010   53.3160 C   0  0  0  0  0  0  0  0  0  0  0  0
   28.4546   10.5231   57.6120 C   0  0  0  0  0  0  0  0  0  0  0  0
   28.0593    9.6987   56.5350 O   0  0  0  0  0  0  0  0  0  0  0  0
   21.3986    6.9319   54.0333 C   0  0  0  0  0  0  0  0  0  0  0  0
   20.8896    8.2671   54.4631 C   0  0  0  0  0  0  0  0  0  0  0  0
   21.0664    9.2877   53.3666 C   0  0  0  0  0  0  0  0  0  0  0  0
   20.8180    9.0326   52.0397 C   0  0  0  0  0  0  0  0  0  0  0  0
   21.0011    9.9728   51.0546 C   0  0  0  0  0  0  0  0  0  0  0  0
   21.4560   11.2521   51.3641 C   0  0  0  0  0  0  0  0  0  0  0  0
   21.7054   11.5151   52.6769 C   0  0  0  0  0  0  0  0  0  0  0  0
   21.5173   10.5544   53.6805 C   0  0  0  0  0  0  0  0  0  0  0  0
   22.1861   12.9162   52.8108 C   0  0  0  0  0  0  0  0  0  0  0  0
   22.0081   13.4750   51.5090 N   0  0  0  0  0  0  0  0  0  0  0  0
   21.7420   12.4504   50.5566 C   0  0  0  0  0  0  0  0  0  0  0  0
   20.7072   14.6094   51.4535 S   0  0  0  0  0  0  0  0  0  0  0  0
   21.2985   16.2747   51.3479 C   0  0  0  0  0  0  0  0  0  0  0  0
   19.8630   14.2635   50.2607 O   0  0  0  0  0  0  0  0  0  0  0  0
   19.8211   14.4100   52.6626 O   0  0  0  0  0  0  0  0  0  0  0  0
 14 15  1  0  0  0
 15  4  1  0  0  0
  4  5  2  0  0  0
  5  6  1  0  0  0
  6  7  2  0  0  0
  7  8  1  0  0  0
  8  9  2  0  0  0
  9 10  1  0  0  0
 10 11  1  0  0  0
 11 12  1  0  0  0
 12 13  1  0  0  0
 13  3  1  0  0  0
  3  1  1  0  0  0
  1  2  1  0  0  0
  1 16  1  0  0  0
 16 17  1  0  0  0
 17 18  1  0  0  0
 18 19  2  0  0  0
 19 20  1  0  0  0
 20 21  2  0  0  0
 21 22  1  0  0  0
 22 23  2  0  0  0
 22 24  1  0  0  0
 24 25  1  0  0  0
 25 27  1  0  0  0
 27 28  1  0  0  0
 27 29  2  0  0  0
 27 30  2  0  0  0
 25 26  1  0  0  0
  9  4  1  0  0  0
 23 18  1  0  0  0
 13  8  1  0  0  0
 26 21  1  0  0  0
M  END
> <minimizedAffinity>
22.42889

> <CNNscore>
0.6183684468

> <CNNaffinity>
6.3122930527

> <CNN_VS>
3.9033229351

> <CNNaffinity_variance>
0.7221073508

$$$$
[H]c1c([H])c(OC([H])([H])[H])c2c(c1[H])[C@]([H])(C([H])([H])N(C([H])([H])[H])C([H])([H])C([H])([H])c1c([H])c([H])c3c(c1[H])C([H])([H])N(S(=O)(=O)C([H])([H])[H])C3([H])[H])C([H])([H])C([H])([H])C2([H])[H]


 30 33  0  0  0  0  0  0  0  0999 V2000
   21.0381    6.8852   52.9969 N   0  0  0  0  0  0  0  0  0  0  0  0
   20.6389    6.0622   51.9422 C   0  0  0  0  0  0  0  0  0  0  0  0
   21.4722    6.3768   54.2072 C   0  0  0  0  0  0  0  0  0  0  0  0
   25.8668    8.5180   54.6090 C   0  0  0  0  0  0  0  0  0  0  0  0
   26.2970    7.8281   53.4830 C   0  0  0  0  0  0  0  0  0  0  0  0
   25.3940    6.9684   52.8536 C   0  0  0  0  0  0  0  0  0  0  0  0
   24.0981    6.7835   53.3096 C   0  0  0  0  0  0  0  0  0  0  0  0
   23.6714    7.4715   54.4321 C   0  0  0  0  0  0  0  0  0  0  0  0
   24.5742    8.3087   55.0317 C   0  0  0  0  0  0  0  0  0  0  0  0
   24.0252    9.0448   56.2312 C   0  0  0  0  0  0  0  0  0  0  0  0
   22.7197    9.6766   55.7669 C   0  0  0  0  0  0  0  0  0  0  0  0
   21.7192    8.6188   55.3623 C   0  0  0  0  0  0  0  0  0  0  0  0
   22.3234    7.3120   55.0129 C   0  0  0  0  0  0  0  0  0  0  0  0
   26.5749    9.6025   56.7060 C   0  0  0  0  0  0  0  0  0  0  0  0
   26.6979    9.4046   55.3126 O   0  0  0  0  0  0  0  0  0  0  0  0
   20.8584    8.2839   52.8704 C   0  0  0  0  0  0  0  0  0  0  0  0
   22.0095    9.0805   52.3539 C   0  0  0  0  0  0  0  0  0  0  0  0
   21.7056   10.5571   52.4025 C   0  0  0  0  0  0  0  0  0  0  0  0
   21.6977   11.2966   53.5603 C   0  0  0  0  0  0  0  0  0  0  0  0
   21.4024   12.6383   53.5838 C   0  0  0  0  0  0  0  0  0  0  0  0
   21.0916   13.3218   52.4110 C   0  0  0  0  0  0  0  0  0  0  0  0
   21.0965   12.5976   51.2576 C   0  0  0  0  0  0  0  0  0  0  0  0
   21.3988   11.2288   51.2358 C   0  0  0  0  0  0  0  0  0  0  0  0
   20.7368   13.4875   50.1214 C   0  0  0  0  0  0  0  0  0  0  0  0
   20.7157   14.7959   50.6925 N   0  0  0  0  0  0  0  0  0  0  0  0
   20.7430   14.7219   52.1143 C   0  0  0  0  0  0  0  0  0  0  0  0
   22.0552   15.7579   50.1801 S   0  0  0  0  0  0  0  0  0  0  0  0
   21.6770   16.6728   48.7124 C   0  0  0  0  0  0  0  0  0  0  0  0
   22.4021   16.6807   51.3128 O   0  0  0  0  0  0  0  0  0  0  0  0
   23.2614   14.8673   49.9842 O   0  0  0  0  0  0  0  0  0  0  0  0
 14 15  1  0  0  0
 15  4  1  0  0  0
  4  5  2  0  0  0
  5  6  1  0  0  0
  6  7  2  0  0  0
  7  8  1  0  0  0
  8  9  2  0  0  0
  9 10  1  0  0  0
 10 11  1  0  0  0
 11 12  1  0  0  0
 12 13  1  0  0  0
 13  3  1  0  0  0
  3  1  1  0  0  0
  1  2  1  0  0  0
  1 16  1  0  0  0
 16 17  1  0  0  0
 17 18  1  0  0  0
 18 19  2  0  0  0
 19 20  1  0  0  0
 20 21  2  0  0  0
 21 22  1  0  0  0
 22 23  2  0  0  0
 22 24  1  0  0  0
 24 25  1  0  0  0
 25 27  1  0  0  0
 27 28  1  0  0  0
 27 29  2  0  0  0
 27 30  2  0  0  0
 25 26  1  0  0  0
  9  4  1  0  0  0
 23 18  1  0  0  0
 13  8  1  0  0  0
 26 21  1  0  0  0
M  END
> <minimizedAffinity>
27.53381

> <CNNscore>
0.6179968119

> <CNNaffinity>
6.4801149368

> <CNN_VS>
4.0046901703

> <CNNaffinity_variance>
0.7672765255

$$$$
[H]c1c([H])c(OC([H])([H])[H])c2c(c1[H])[C@]([H])(C([H])([H])N(C([H])([H])[H])C([H])([H])C([H])([H])c1c([H])c([H])c3c(c1[H])C([H])([H])N(S(=O)(=O)C([H])([H])[H])C3([H])[H])C([H])([H])C([H])([H])C2([H])[H]


 30 33  0  0  0  0  0  0  0  0999 V2000
   19.8295    5.2256   53.4425 N   0  0  0  0  0  0  0  0  0  0  0  0
   19.0792    4.0721   53.6787 C   0  0  0  0  0  0  0  0  0  0  0  0
   19.3288    6.4931   53.6755 C   0  0  0  0  0  0  0  0  0  0  0  0
   21.6952   10.7874   53.5413 C   0  0  0  0  0  0  0  0  0  0  0  0
   21.6935   10.8227   54.9297 C   0  0  0  0  0  0  0  0  0  0  0  0
   21.0998    9.7596   55.6138 C   0  0  0  0  0  0  0  0  0  0  0  0
   20.5196    8.6832   54.9609 C   0  0  0  0  0  0  0  0  0  0  0  0
   20.5219    8.6500   53.5774 C   0  0  0  0  0  0  0  0  0  0  0  0
   21.1101    9.7031   52.9287 C   0  0  0  0  0  0  0  0  0  0  0  0
   21.0986    9.5797   51.4233 C   0  0  0  0  0  0  0  0  0  0  0  0
   21.6587    8.1972   51.1171 C   0  0  0  0  0  0  0  0  0  0  0  0
   20.7720    7.1145   51.6873 C   0  0  0  0  0  0  0  0  0  0  0  0
   19.8970    7.5652   52.7946 C   0  0  0  0  0  0  0  0  0  0  0  0
   21.5878   12.3811   51.6642 C   0  0  0  0  0  0  0  0  0  0  0  0
   22.2660   11.8069   52.7625 O   0  0  0  0  0  0  0  0  0  0  0  0
   21.0905    5.0963   52.8119 C   0  0  0  0  0  0  0  0  0  0  0  0
   22.2486    4.7024   53.6662 C   0  0  0  0  0  0  0  0  0  0  0  0
   23.0067    5.9185   54.1372 C   0  0  0  0  0  0  0  0  0  0  0  0
   22.6851    6.6265   55.2698 C   0  0  0  0  0  0  0  0  0  0  0  0
   23.3799    7.7416   55.6721 C   0  0  0  0  0  0  0  0  0  0  0  0
   24.4629    8.2129   54.9344 C   0  0  0  0  0  0  0  0  0  0  0  0
   24.7898    7.5180   53.8097 C   0  0  0  0  0  0  0  0  0  0  0  0
   24.0799    6.3801   53.4013 C   0  0  0  0  0  0  0  0  0  0  0  0
   25.9562    8.1693   53.1557 C   0  0  0  0  0  0  0  0  0  0  0  0
   26.3750    9.1624   54.0921 N   0  0  0  0  0  0  0  0  0  0  0  0
   25.3869    9.3480   55.1005 C   0  0  0  0  0  0  0  0  0  0  0  0
   27.8613    8.7484   54.8679 S   0  0  0  0  0  0  0  0  0  0  0  0
   27.7564    8.9438   56.6242 C   0  0  0  0  0  0  0  0  0  0  0  0
   28.1740    7.3253   54.5044 O   0  0  0  0  0  0  0  0  0  0  0  0
   28.9779    9.5828   54.2816 O   0  0  0  0  0  0  0  0  0  0  0  0
 14 15  1  0  0  0
 15  4  1  0  0  0
  4  5  2  0  0  0
  5  6  1  0  0  0
  6  7  2  0  0  0
  7  8  1  0  0  0
  8  9  2  0  0  0
  9 10  1  0  0  0
 10 11  1  0  0  0
 11 12  1  0  0  0
 12 13  1  0  0  0
 13  3  1  0  0  0
  3  1  1  0  0  0
  1  2  1  0  0  0
  1 16  1  0  0  0
 16 17  1  0  0  0
 17 18  1  0  0  0
 18 19  2  0  0  0
 19 20  1  0  0  0
 20 21  2  0  0  0
 21 22  1  0  0  0
 22 23  2  0  0  0
 22 24  1  0  0  0
 24 25  1  0  0  0
 25 27  1  0  0  0
 27 28  1  0  0  0
 27 29  2  0  0  0
 27 30  2  0  0  0
 25 26  1  0  0  0
  9  4  1  0  0  0
 23 18  1  0  0  0
 13  8  1  0  0  0
 26 21  1  0  0  0
M  END
> <minimizedAffinity>
16.56714

> <CNNscore>
0.5914229155

> <CNNaffinity>
6.6718306541

> <CNN_VS>
3.9458734989

> <CNNaffinity_variance>
0.7974084020

$$$$
[H]c1c([H])c(OC([H])([H])[H])c2c(c1[H])[C@]([H])(C([H])([H])N(C([H])([H])[H])C([H])([H])C([H])([H])c1c([H])c([H])c3c(c1[H])C([H])([H])N(S(=O)(=O)C([H])([H])[H])C3([H])[H])C([H])([H])C([H])([H])C2([H])[H]


 30 33  0  0  0  0  0  0  0  0999 V2000
   28.1810   10.0166   57.9994 N   0  0  0  0  0  0  0  0  0  0  0  0
   28.2280   11.2122   57.2799 C   0  0  0  0  0  0  0  0  0  0  0  0
   28.3603    9.9714   59.3695 C   0  0  0  0  0  0  0  0  0  0  0  0
   29.7917   14.2103   61.3801 C   0  0  0  0  0  0  0  0  0  0  0  0
   28.4815   14.6682   61.3281 C   0  0  0  0  0  0  0  0  0  0  0  0
   27.5079   13.8171   60.8003 C   0  0  0  0  0  0  0  0  0  0  0  0
   27.8022   12.5458   60.3328 C   0  0  0  0  0  0  0  0  0  0  0  0
   29.1085   12.0915   60.3849 C   0  0  0  0  0  0  0  0  0  0  0  0
   30.0452   12.9434   60.9068 C   0  0  0  0  0  0  0  0  0  0  0  0
   31.4398   12.3651   60.9568 C   0  0  0  0  0  0  0  0  0  0  0  0
   31.3017   11.0102   61.6381 C   0  0  0  0  0  0  0  0  0  0  0  0
   30.4327   10.0800   60.8240 C   0  0  0  0  0  0  0  0  0  0  0  0
   29.5241   10.7686   59.8778 C   0  0  0  0  0  0  0  0  0  0  0  0
   30.9171   16.3831   61.6756 C   0  0  0  0  0  0  0  0  0  0  0  0
   30.8422   14.9890   61.8918 O   0  0  0  0  0  0  0  0  0  0  0  0
   28.0871    8.7985   57.2839 C   0  0  0  0  0  0  0  0  0  0  0  0
   28.4282    8.8269   55.8315 C   0  0  0  0  0  0  0  0  0  0  0  0
   27.1920    8.6479   54.9859 C   0  0  0  0  0  0  0  0  0  0  0  0
   27.2213    8.3295   53.6497 C   0  0  0  0  0  0  0  0  0  0  0  0
   26.0826    8.1868   52.8941 C   0  0  0  0  0  0  0  0  0  0  0  0
   24.8228    8.3621   53.4609 C   0  0  0  0  0  0  0  0  0  0  0  0
   24.7829    8.6780   54.7851 C   0  0  0  0  0  0  0  0  0  0  0  0
   25.9459    8.8226   55.5544 C   0  0  0  0  0  0  0  0  0  0  0  0
   23.3650    8.8319   55.2073 C   0  0  0  0  0  0  0  0  0  0  0  0
   22.6118    8.3956   54.0755 N   0  0  0  0  0  0  0  0  0  0  0  0
   23.4509    8.2773   52.9311 C   0  0  0  0  0  0  0  0  0  0  0  0
   21.8508    6.8684   54.3422 S   0  0  0  0  0  0  0  0  0  0  0  0
   20.2050    6.8377   53.6907 C   0  0  0  0  0  0  0  0  0  0  0  0
   22.7063    5.8223   53.6875 O   0  0  0  0  0  0  0  0  0  0  0  0
   21.8688    6.5551   55.8214 O   0  0  0  0  0  0  0  0  0  0  0  0
 14 15  1  0  0  0
 15  4  1  0  0  0
  4  5  2  0  0  0
  5  6  1  0  0  0
  6  7  2  0  0  0
  7  8  1  0  0  0
  8  9  2  0  0  0
  9 10  1  0  0  0
 10 11  1  0  0  0
 11 12  1  0  0  0
 12 13  1  0  0  0
 13  3  1  0  0  0
  3  1  1  0  0  0
  1  2  1  0  0  0
  1 16  1  0  0  0
 16 17  1  0  0  0
 17 18  1  0  0  0
 18 19  2  0  0  0
 19 20  1  0  0  0
 20 21  2  0  0  0
 21 22  1  0  0  0
 22 23  2  0  0  0
 22 24  1  0  0  0
 24 25  1  0  0  0
 25 27  1  0  0  0
 27 28  1  0  0  0
 27 29  2  0  0  0
 27 30  2  0  0  0
 25 26  1  0  0  0
  9  4  1  0  0  0
 23 18  1  0  0  0
 13  8  1  0  0  0
 26 21  1  0  0  0
M  END
> <minimizedAffinity>
2.30914

> <CNNscore>
0.5771756172

> <CNNaffinity>
6.1515164375

> <CNN_VS>
3.5505053997

> <CNNaffinity_variance>
0.5327724814

$$$$
[H]c1c([H])c(OC([H])([H])[H])c2c(c1[H])[C@]([H])(C([H])([H])N(C([H])([H])[H])C([H])([H])C([H])([H])c1c([H])c([H])c3c(c1[H])C([H])([H])N(S(=O)(=O)C([H])([H])[H])C3([H])[H])C([H])([H])C([H])([H])C2([H])[H]


 30 33  0  0  0  0  0  0  0  0999 V2000
   28.1993    9.9514   55.3265 N   0  0  0  0  0  0  0  0  0  0  0  0
   29.4856   10.3533   54.9614 C   0  0  0  0  0  0  0  0  0  0  0  0
   27.7084   10.1204   56.6078 C   0  0  0  0  0  0  0  0  0  0  0  0
   29.8656   11.4149   60.8185 C   0  0  0  0  0  0  0  0  0  0  0  0
   29.2613   12.6627   60.7352 C   0  0  0  0  0  0  0  0  0  0  0  0
   28.4349   12.9213   59.6393 C   0  0  0  0  0  0  0  0  0  0  0  0
   28.2003   11.9851   58.6443 C   0  0  0  0  0  0  0  0  0  0  0  0
   28.8037   10.7425   58.7288 C   0  0  0  0  0  0  0  0  0  0  0  0
   29.6090   10.5121   59.8123 C   0  0  0  0  0  0  0  0  0  0  0  0
   30.2067    9.1252   59.8482 C   0  0  0  0  0  0  0  0  0  0  0  0
   29.0394    8.1665   59.6555 C   0  0  0  0  0  0  0  0  0  0  0  0
   28.3902    8.3671   58.3057 C   0  0  0  0  0  0  0  0  0  0  0  0
   28.6432    9.6954   57.7004 C   0  0  0  0  0  0  0  0  0  0  0  0
   31.4244    9.8371   61.8933 C   0  0  0  0  0  0  0  0  0  0  0  0
   30.7133   11.0576   61.8794 O   0  0  0  0  0  0  0  0  0  0  0  0
   27.4267    9.2209   54.3915 C   0  0  0  0  0  0  0  0  0  0  0  0
   26.6827    8.0302   54.8964 C   0  0  0  0  0  0  0  0  0  0  0  0
   25.1933    8.2373   54.7771 C   0  0  0  0  0  0  0  0  0  0  0  0
   24.5233    9.2980   55.3370 C   0  0  0  0  0  0  0  0  0  0  0  0
   23.1630    9.4588   55.2294 C   0  0  0  0  0  0  0  0  0  0  0  0
   22.3874    8.5348   54.5337 C   0  0  0  0  0  0  0  0  0  0  0  0
   23.0422    7.4794   53.9749 C   0  0  0  0  0  0  0  0  0  0  0  0
   24.4304    7.3175   54.0854 C   0  0  0  0  0  0  0  0  0  0  0  0
   22.0570    6.6034   53.2863 C   0  0  0  0  0  0  0  0  0  0  0  0
   20.8351    7.3402   53.3378 N   0  0  0  0  0  0  0  0  0  0  0  0
   20.9466    8.4318   54.2454 C   0  0  0  0  0  0  0  0  0  0  0  0
   20.3825    7.9702   51.7948 S   0  0  0  0  0  0  0  0  0  0  0  0
   21.2694    7.1798   50.4823 C   0  0  0  0  0  0  0  0  0  0  0  0
   18.9030    7.7622   51.6436 O   0  0  0  0  0  0  0  0  0  0  0  0
   20.5954    9.4672   51.7867 O   0  0  0  0  0  0  0  0  0  0  0  0
 14 15  1  0  0  0
 15  4  1  0  0  0
  4  5  2  0  0  0
  5  6  1  0  0  0
  6  7  2  0  0  0
  7  8  1  0  0  0
  8  9  2  0  0  0
  9 10  1  0  0  0
 10 11  1  0  0  0
 11 12  1  0  0  0
 12 13  1  0  0  0
 13  3  1  0  0  0
  3  1  1  0  0  0
  1  2  1  0  0  0
  1 16  1  0  0  0
 16 17  1  0  0  0
 17 18  1  0  0  0
 18 19  2  0  0  0
 19 20  1  0  0  0
 20 21  2  0  0  0
 21 22  1  0  0  0
 22 23  2  0  0  0
 22 24  1  0  0  0
 24 25  1  0  0  0
 25 27  1  0  0  0
 27 28  1  0  0  0
 27 29  2  0  0  0
 27 30  2  0  0  0
 25 26  1  0  0  0
  9  4  1  0  0  0
 23 18  1  0  0  0
 13  8  1  0  0  0
 26 21  1  0  0  0
M  END
> <minimizedAffinity>
10.92013

> <CNNscore>
0.5738723278

> <CNNaffinity>
6.1861724854

> <CNN_VS>
3.5500731468

> <CNNaffinity_variance>
0.6917136908

$$$$
[H]c1c([H])c(OC([H])([H])[H])c2c(c1[H])[C@]([H])(C([H])([H])N(C([H])([H])[H])C([H])([H])C([H])([H])c1c([H])c([H])c3c(c1[H])C([H])([H])N(S(=O)(=O)C([H])([H])[H])C3([H])[H])C([H])([H])C([H])([H])C2([H])[H]


 30 33  0  0  0  0  0  0  0  0999 V2000
   24.8285    6.5936   53.4629 N   0  0  0  0  0  0  0  0  0  0  0  0
   25.3073    6.0569   54.6595 C   0  0  0  0  0  0  0  0  0  0  0  0
   25.3636    7.7375   52.8999 C   0  0  0  0  0  0  0  0  0  0  0  0
   27.4767    9.8843   56.7709 C   0  0  0  0  0  0  0  0  0  0  0  0
   26.2244   10.0673   57.3430 C   0  0  0  0  0  0  0  0  0  0  0  0
   25.1072    9.6121   56.6393 C   0  0  0  0  0  0  0  0  0  0  0  0
   25.2055    8.9908   55.4040 C   0  0  0  0  0  0  0  0  0  0  0  0
   26.4542    8.8098   54.8354 C   0  0  0  0  0  0  0  0  0  0  0  0
   27.5345    9.2638   55.5441 C   0  0  0  0  0  0  0  0  0  0  0  0
   28.8621    9.0036   54.8721 C   0  0  0  0  0  0  0  0  0  0  0  0
   28.8608    7.5238   54.5127 C   0  0  0  0  0  0  0  0  0  0  0  0
   27.7609    7.2064   53.5263 C   0  0  0  0  0  0  0  0  0  0  0  0
   26.6557    8.1928   53.5093 C   0  0  0  0  0  0  0  0  0  0  0  0
   28.6511   11.0067   58.6245 C   0  0  0  0  0  0  0  0  0  0  0  0
   28.6603   10.3065   57.3976 O   0  0  0  0  0  0  0  0  0  0  0  0
   23.6672    6.0279   52.8833 C   0  0  0  0  0  0  0  0  0  0  0  0
   22.3747    6.2253   53.6021 C   0  0  0  0  0  0  0  0  0  0  0  0
   22.0158    7.6888   53.6697 C   0  0  0  0  0  0  0  0  0  0  0  0
   22.1066    8.4446   54.8134 C   0  0  0  0  0  0  0  0  0  0  0  0
   21.7590    9.7732   54.8564 C   0  0  0  0  0  0  0  0  0  0  0  0
   21.2898   10.4259   53.7192 C   0  0  0  0  0  0  0  0  0  0  0  0
   21.1959    9.6853   52.5801 C   0  0  0  0  0  0  0  0  0  0  0  0
   21.5516    8.3299   52.5382 C   0  0  0  0  0  0  0  0  0  0  0  0
   20.6734   10.5426   51.4827 C   0  0  0  0  0  0  0  0  0  0  0  0
   20.6611   11.8574   52.0392 N   0  0  0  0  0  0  0  0  0  0  0  0
   20.8510   11.8059   53.4495 C   0  0  0  0  0  0  0  0  0  0  0  0
   21.8925   12.8659   51.3691 S   0  0  0  0  0  0  0  0  0  0  0  0
   21.3047   14.5115   51.0854 C   0  0  0  0  0  0  0  0  0  0  0  0
   23.0437   12.8664   52.3333 O   0  0  0  0  0  0  0  0  0  0  0  0
   22.4147   12.2355   50.0976 O   0  0  0  0  0  0  0  0  0  0  0  0
 14 15  1  0  0  0
 15  4  1  0  0  0
  4  5  2  0  0  0
  5  6  1  0  0  0
  6  7  2  0  0  0
  7  8  1  0  0  0
  8  9  2  0  0  0
  9 10  1  0  0  0
 10 11  1  0  0  0
 11 12  1  0  0  0
 12 13  1  0  0  0
 13  3  1  0  0  0
  3  1  1  0  0  0
  1  2  1  0  0  0
  1 16  1  0  0  0
 16 17  1  0  0  0
 17 18  1  0  0  0
 18 19  2  0  0  0
 19 20  1  0  0  0
 20 21  2  0  0  0
 21 22  1  0  0  0
 22 23  2  0  0  0
 22 24  1  0  0  0
 24 25  1  0  0  0
 25 27  1  0  0  0
 27 28  1  0  0  0
 27 29  2  0  0  0
 27 30  2  0  0  0
 25 26  1  0  0  0
  9  4  1  0  0  0
 23 18  1  0  0  0
 13  8  1  0  0  0
 26 21  1  0  0  0
M  END
> <minimizedAffinity>
26.50358

> <CNNscore>
0.5675778985

> <CNNaffinity>
6.2820143700

> <CNN_VS>
3.5655324459

> <CNNaffinity_variance>
0.5503562689

$$$$
[H]c1c([H])c(OC([H])([H])[H])c2c(c1[H])[C@]([H])(C([H])([H])N(C([H])([H])[H])C([H])([H])C([H])([H])c1c([H])c([H])c3c(c1[H])C([H])([H])N(S(=O)(=O)C([H])([H])[H])C3([H])[H])C([H])([H])C([H])([H])C2([H])[H]


 30 33  0  0  0  0  0  0  0  0999 V2000
   22.1901    6.0320   54.7418 N   0  0  0  0  0  0  0  0  0  0  0  0
   22.1442    6.2462   56.1207 C   0  0  0  0  0  0  0  0  0  0  0  0
   21.0625    6.1040   53.9451 C   0  0  0  0  0  0  0  0  0  0  0  0
   21.3795   10.9808   53.5266 C   0  0  0  0  0  0  0  0  0  0  0  0
   21.5082   11.0828   54.9057 C   0  0  0  0  0  0  0  0  0  0  0  0
   21.4906    9.9053   55.6566 C   0  0  0  0  0  0  0  0  0  0  0  0
   21.3512    8.6534   55.0781 C   0  0  0  0  0  0  0  0  0  0  0  0
   21.2226    8.5537   53.7038 C   0  0  0  0  0  0  0  0  0  0  0  0
   21.2431    9.7216   52.9887 C   0  0  0  0  0  0  0  0  0  0  0  0
   21.1272    9.5282   51.4950 C   0  0  0  0  0  0  0  0  0  0  0  0
   22.1805    8.4911   51.1292 C   0  0  0  0  0  0  0  0  0  0  0  0
   21.8950    7.1680   51.8011 C   0  0  0  0  0  0  0  0  0  0  0  0
   21.0327    7.2690   53.0016 C   0  0  0  0  0  0  0  0  0  0  0  0
   21.3828   11.9867   51.2764 C   0  0  0  0  0  0  0  0  0  0  0  0
   21.3848   12.1043   52.6842 O   0  0  0  0  0  0  0  0  0  0  0  0
   23.4048    5.5888   54.1651 C   0  0  0  0  0  0  0  0  0  0  0  0
   24.1927    6.5804   53.3761 C   0  0  0  0  0  0  0  0  0  0  0  0
   24.8043    7.6217   54.2799 C   0  0  0  0  0  0  0  0  0  0  0  0
   24.0940    8.6524   54.8462 C   0  0  0  0  0  0  0  0  0  0  0  0
   24.6747    9.5999   55.6543 C   0  0  0  0  0  0  0  0  0  0  0  0
   26.0367    9.5564   55.9409 C   0  0  0  0  0  0  0  0  0  0  0  0
   26.7499    8.5384   55.3841 C   0  0  0  0  0  0  0  0  0  0  0  0
   26.1553    7.5723   54.5604 C   0  0  0  0  0  0  0  0  0  0  0  0
   28.1747    8.6604   55.7933 C   0  0  0  0  0  0  0  0  0  0  0  0
   28.1727    9.7046   56.7671 N   0  0  0  0  0  0  0  0  0  0  0  0
   26.9305   10.4005   56.7523 C   0  0  0  0  0  0  0  0  0  0  0  0
   28.4354    9.1108   58.3673 S   0  0  0  0  0  0  0  0  0  0  0  0
   28.9554   10.3998   59.4637 C   0  0  0  0  0  0  0  0  0  0  0  0
   27.1465    8.4976   58.8338 O   0  0  0  0  0  0  0  0  0  0  0  0
   29.4406    7.9821   58.3204 O   0  0  0  0  0  0  0  0  0  0  0  0
 14 15  1  0  0  0
 15  4  1  0  0  0
  4  5  2  0  0  0
  5  6  1  0  0  0
  6  7  2  0  0  0
  7  8  1  0  0  0
  8  9  2  0  0  0
  9 10  1  0  0  0
 10 11  1  0  0  0
 11 12  1  0  0  0
 12 13  1  0  0  0
 13  3  1  0  0  0
  3  1  1  0  0  0
  1  2  1  0  0  0
  1 16  1  0  0  0
 16 17  1  0  0  0
 17 18  1  0  0  0
 18 19  2  0  0  0
 19 20  1  0  0  0
 20 21  2  0  0  0
 21 22  1  0  0  0
 22 23  2  0  0  0
 22 24  1  0  0  0
 24 25  1  0  0  0
 25 27  1  0  0  0
 27 28  1  0  0  0
 27 29  2  0  0  0
 27 30  2  0  0  0
 25 26  1  0  0  0
  9  4  1  0  0  0
 23 18  1  0  0  0
 13  8  1  0  0  0
 26 21  1  0  0  0
M  END
> <minimizedAffinity>
11.30870

> <CNNscore>
0.5653756857

> <CNNaffinity>
6.5857405663

> <CNN_VS>
3.7234175205

> <CNNaffinity_variance>
0.5458242297

$$$$
[H]c1c([H])c(OC([H])([H])[H])c2c(c1[H])[C@]([H])(C([H])([H])N(C([H])([H])[H])C([H])([H])C([H])([H])c1c([H])c([H])c3c(c1[H])C([H])([H])N(S(=O)(=O)C([H])([H])[H])C3([H])[H])C([H])([H])C([H])([H])C2([H])[H]


 30 33  0  0  0  0  0  0  0  0999 V2000
   28.2370    9.5180   56.4256 N   0  0  0  0  0  0  0  0  0  0  0  0
   28.5866   10.7833   55.9501 C   0  0  0  0  0  0  0  0  0  0  0  0
   27.8858    9.2955   57.7442 C   0  0  0  0  0  0  0  0  0  0  0  0
   29.8098   12.5480   60.8713 C   0  0  0  0  0  0  0  0  0  0  0  0
   28.8444   13.4717   60.4921 C   0  0  0  0  0  0  0  0  0  0  0  0
   27.9079   13.0867   59.5301 C   0  0  0  0  0  0  0  0  0  0  0  0
   27.9095   11.8283   58.9488 C   0  0  0  0  0  0  0  0  0  0  0  0
   28.8725   10.9093   59.3276 C   0  0  0  0  0  0  0  0  0  0  0  0
   29.7796   11.3095   60.2725 C   0  0  0  0  0  0  0  0  0  0  0  0
   30.7786   10.2426   60.6540 C   0  0  0  0  0  0  0  0  0  0  0  0
   29.9558    9.0049   60.9858 C   0  0  0  0  0  0  0  0  0  0  0  0
   29.1884    8.5237   59.7763 C   0  0  0  0  0  0  0  0  0  0  0  0
   28.9766    9.5596   58.7385 C   0  0  0  0  0  0  0  0  0  0  0  0
   31.4396   14.0936   61.8861 C   0  0  0  0  0  0  0  0  0  0  0  0
   30.7949   12.8379   61.8291 O   0  0  0  0  0  0  0  0  0  0  0  0
   28.3837    8.4054   55.5625 C   0  0  0  0  0  0  0  0  0  0  0  0
   27.8488    8.5365   54.1757 C   0  0  0  0  0  0  0  0  0  0  0  0
   26.4536    7.9709   54.0825 C   0  0  0  0  0  0  0  0  0  0  0  0
   26.1106    6.7120   54.5126 C   0  0  0  0  0  0  0  0  0  0  0  0
   24.8360    6.2104   54.4034 C   0  0  0  0  0  0  0  0  0  0  0  0
   23.8148    6.9716   53.8406 C   0  0  0  0  0  0  0  0  0  0  0  0
   24.1447    8.2212   53.4109 C   0  0  0  0  0  0  0  0  0  0  0  0
   25.4456    8.7313   53.5238 C   0  0  0  0  0  0  0  0  0  0  0  0
   22.9375    8.8744   52.8379 C   0  0  0  0  0  0  0  0  0  0  0  0
   21.8712    7.9771   53.1486 N   0  0  0  0  0  0  0  0  0  0  0  0
   22.3840    6.7249   53.5922 C   0  0  0  0  0  0  0  0  0  0  0  0
   20.8295    8.5959   54.3791 S   0  0  0  0  0  0  0  0  0  0  0  0
   20.8735   10.3646   54.4418 C   0  0  0  0  0  0  0  0  0  0  0  0
   19.4426    8.1043   54.0796 O   0  0  0  0  0  0  0  0  0  0  0  0
   21.2105    7.9832   55.7081 O   0  0  0  0  0  0  0  0  0  0  0  0
 14 15  1  0  0  0
 15  4  1  0  0  0
  4  5  2  0  0  0
  5  6  1  0  0  0
  6  7  2  0  0  0
  7  8  1  0  0  0
  8  9  2  0  0  0
  9 10  1  0  0  0
 10 11  1  0  0  0
 11 12  1  0  0  0
 12 13  1  0  0  0
 13  3  1  0  0  0
  3  1  1  0  0  0
  1  2  1  0  0  0
  1 16  1  0  0  0
 16 17  1  0  0  0
 17 18  1  0  0  0
 18 19  2  0  0  0
 19 20  1  0  0  0
 20 21  2  0  0  0
 21 22  1  0  0  0
 22 23  2  0  0  0
 22 24  1  0  0  0
 24 25  1  0  0  0
 25 27  1  0  0  0
 27 28  1  0  0  0
 27 29  2  0  0  0
 27 30  2  0  0  0
 25 26  1  0  0  0
  9  4  1  0  0  0
 23 18  1  0  0  0
 13  8  1  0  0  0
 26 21  1  0  0  0
M  END
> <minimizedAffinity>
7.47103

> <CNNscore>
0.5585971475

> <CNNaffinity>
6.1362733841

> <CNN_VS>
3.4277048111

> <CNNaffinity_variance>
0.3695499599

$$$$
[H]N=C(c1c([H])c([H])c(C([H])([H])N([H])C(=O)C2([H])N3C(=O)[C@](O[H])(C([H])([H])c4c([H])c([H])c([H])c([H])c4[H])C([H])([H])C([H])([H])[C@]3([H])C([H])([H])C2([H])[H])c([H])c1[H])N([H])[H]


 36 39  0  0  0  0  0  0  0  0999 V2000
   22.5121    6.5975   53.8368 C   0  0  0  0  0  0  0  0  0  0  0  0
   21.9529    6.3051   55.2130 C   0  0  0  0  0  0  0  0  0  0  0  0
   22.2077    7.6301   55.9154 C   0  0  0  0  0  0  0  0  0  0  0  0
   21.7410    8.6116   54.8649 C   0  0  0  0  0  0  0  0  0  0  0  0
   22.4126    9.9520   55.0034 C   0  0  0  0  0  0  0  0  0  0  0  0
   22.1154   10.8463   53.8451 C   0  0  0  0  0  0  0  0  0  0  0  0
   21.4599   10.1590   52.6802 C   0  0  0  0  0  0  0  0  0  0  0  0
   20.0844    9.9803   52.9049 O   0  0  0  0  0  0  0  0  0  0  0  0
   22.1367    8.8526   52.4678 C   0  0  0  0  0  0  0  0  0  0  0  0
   22.6619    8.4840   51.4009 O   0  0  0  0  0  0  0  0  0  0  0  0
   22.1642    7.9790   53.6059 N   0  0  0  0  0  0  0  0  0  0  0  0
   19.8034   10.7898   53.4266 H   0  0  0  0  0  0  0  0  0  0  0  0
   24.8105    7.4155   53.3373 N   0  0  0  0  0  0  0  0  0  0  0  0
   24.0042    6.4224   53.9505 C   0  0  0  0  0  0  0  0  0  0  0  0
   24.5148    5.4647   54.5460 O   0  0  0  0  0  0  0  0  0  0  0  0
   24.3877    8.2404   52.8228 H   0  0  0  0  0  0  0  0  0  0  0  0
   26.2628    7.3909   53.3596 C   0  0  0  0  0  0  0  0  0  0  0  0
   27.7212    9.5086   56.7666 C   0  0  0  0  0  0  0  0  0  0  0  0
   26.3824    9.3532   56.5389 C   0  0  0  0  0  0  0  0  0  0  0  0
   25.8651    8.6696   55.4440 C   0  0  0  0  0  0  0  0  0  0  0  0
   26.7416    8.1249   54.5485 C   0  0  0  0  0  0  0  0  0  0  0  0
   28.0909    8.2649   54.7513 C   0  0  0  0  0  0  0  0  0  0  0  0
   28.6058    8.9476   55.8450 C   0  0  0  0  0  0  0  0  0  0  0  0
   28.4604   11.4883   57.9706 N   0  0  0  0  0  0  0  0  0  0  0  0
   28.2430   10.2285   57.9191 C   0  0  0  0  0  0  0  0  0  0  0  0
   28.5534    9.5031   59.1221 N   0  0  0  0  0  0  0  0  0  0  0  0
   28.2620   12.0754   57.1465 H   0  0  0  0  0  0  0  0  0  0  0  0
   27.8042    9.0182   59.6595 H   0  0  0  0  0  0  0  0  0  0  0  0
   29.5445    9.4730   59.4448 H   0  0  0  0  0  0  0  0  0  0  0  0
   21.5751   11.0379   51.4571 C   0  0  0  0  0  0  0  0  0  0  0  0
   21.0996   12.4023   51.6743 C   0  0  0  0  0  0  0  0  0  0  0  0
   21.1726   13.3948   50.7167 C   0  0  0  0  0  0  0  0  0  0  0  0
   20.7132   14.6792   50.9615 C   0  0  0  0  0  0  0  0  0  0  0  0
   20.1655   14.9991   52.1843 C   0  0  0  0  0  0  0  0  0  0  0  0
   20.0843   14.0331   53.1436 C   0  0  0  0  0  0  0  0  0  0  0  0
   20.5480   12.7445   52.8904 C   0  0  0  0  0  0  0  0  0  0  0  0
 24 25  2  0  0  0
 25 26  1  0  0  0
 25 18  1  0  0  0
 18 19  2  0  0  0
 19 20  1  0  0  0
 20 21  2  0  0  0
 21 17  1  0  0  0
 17 13  1  0  0  0
 13 14  1  0  0  0
 14 15  2  0  0  0
 14  1  1  0  0  0
  1  2  1  0  0  0
  2  3  1  0  0  0
  3  4  1  0  0  0
  4  5  1  0  0  0
  5  6  1  0  0  0
  6  7  1  0  0  0
  7  8  1  0  0  0
  7 30  1  0  0  0
 30 31  1  0  0  0
 31 32  2  0  0  0
 32 33  1  0  0  0
 33 34  2  0  0  0
 34 35  1  0  0  0
 35 36  2  0  0  0
  7  9  1  0  0  0
  9 10  2  0  0  0
  9 11  1  0  0  0
 21 22  1  0  0  0
 22 23  2  0  0  0
 23 18  1  0  0  0
 11  1  1  0  0  0
 11  4  1  0  0  0
 36 31  1  0  0  0
 24 27  1  0  0  0
 26 28  1  0  0  0
 26 29  1  0  0  0
 13 16  1  0  0  0
  8 12  1  0  0  0
M  END
> <minimizedAffinity>
18.44140

> <CNNscore>
0.6951781511

> <CNNaffinity>
6.4938139915

> <CNN_VS>
4.5143575668

> <CNNaffinity_variance>
1.1151034832

$$$$
[H]N=C(c1c([H])c([H])c(C([H])([H])N([H])C(=O)C2([H])N3C(=O)[C@](O[H])(C([H])([H])c4c([H])c([H])c([H])c([H])c4[H])C([H])([H])C([H])([H])[C@]3([H])C([H])([H])C2([H])[H])c([H])c1[H])N([H])[H]


 36 39  0  0  0  0  0  0  0  0999 V2000
   23.6489    5.8972   54.0164 C   0  0  0  0  0  0  0  0  0  0  0  0
   23.4229    5.3449   55.4078 C   0  0  0  0  0  0  0  0  0  0  0  0
   22.9073    6.5810   56.1287 C   0  0  0  0  0  0  0  0  0  0  0  0
   21.9143    7.1134   55.1211 C   0  0  0  0  0  0  0  0  0  0  0  0
   21.7047    8.5977   55.2616 C   0  0  0  0  0  0  0  0  0  0  0  0
   20.8953    9.1549   54.1373 C   0  0  0  0  0  0  0  0  0  0  0  0
   20.6964    8.2099   52.9855 C   0  0  0  0  0  0  0  0  0  0  0  0
   19.6825    7.2776   53.2633 O   0  0  0  0  0  0  0  0  0  0  0  0
   21.9876    7.5246   52.7155 C   0  0  0  0  0  0  0  0  0  0  0  0
   22.5781    7.5170   51.6196 O   0  0  0  0  0  0  0  0  0  0  0  0
   22.5632    6.8299   53.8315 N   0  0  0  0  0  0  0  0  0  0  0  0
   19.0141    7.7835   53.8145 H   0  0  0  0  0  0  0  0  0  0  0  0
   25.2145    7.5805   53.0588 N   0  0  0  0  0  0  0  0  0  0  0  0
   24.9766    6.6079   54.0637 C   0  0  0  0  0  0  0  0  0  0  0  0
   25.8268    6.3652   54.9302 O   0  0  0  0  0  0  0  0  0  0  0  0
   24.4966    7.7982   52.3097 H   0  0  0  0  0  0  0  0  0  0  0  0
   26.4420    8.3520   52.9687 C   0  0  0  0  0  0  0  0  0  0  0  0
   27.8169    9.3812   56.8763 C   0  0  0  0  0  0  0  0  0  0  0  0
   26.4863    9.3753   56.5636 C   0  0  0  0  0  0  0  0  0  0  0  0
   25.9959    9.0446   55.3051 C   0  0  0  0  0  0  0  0  0  0  0  0
   26.8915    8.7081   54.3297 C   0  0  0  0  0  0  0  0  0  0  0  0
   28.2332    8.7053   54.6147 C   0  0  0  0  0  0  0  0  0  0  0  0
   28.7213    9.0357   55.8717 C   0  0  0  0  0  0  0  0  0  0  0  0
   28.6579   10.9036   58.5764 N   0  0  0  0  0  0  0  0  0  0  0  0
   28.3106    9.7311   58.2002 C   0  0  0  0  0  0  0  0  0  0  0  0
   28.4339    8.7045   59.2006 N   0  0  0  0  0  0  0  0  0  0  0  0
   28.5973   11.6918   57.9144 H   0  0  0  0  0  0  0  0  0  0  0  0
   27.5923    8.2036   59.5556 H   0  0  0  0  0  0  0  0  0  0  0  0
   29.3837    8.4725   59.5629 H   0  0  0  0  0  0  0  0  0  0  0  0
   20.2305    8.9901   51.7788 C   0  0  0  0  0  0  0  0  0  0  0  0
   20.8075   10.3298   51.6939 C   0  0  0  0  0  0  0  0  0  0  0  0
   20.7718   11.1023   50.5497 C   0  0  0  0  0  0  0  0  0  0  0  0
   21.3332   12.3686   50.5071 C   0  0  0  0  0  0  0  0  0  0  0  0
   21.9489   12.8925   51.6225 C   0  0  0  0  0  0  0  0  0  0  0  0
   21.9949   12.1456   52.7626 C   0  0  0  0  0  0  0  0  0  0  0  0
   21.4284   10.8737   52.7979 C   0  0  0  0  0  0  0  0  0  0  0  0
 24 25  2  0  0  0
 25 26  1  0  0  0
 25 18  1  0  0  0
 18 19  2  0  0  0
 19 20  1  0  0  0
 20 21  2  0  0  0
 21 17  1  0  0  0
 17 13  1  0  0  0
 13 14  1  0  0  0
 14 15  2  0  0  0
 14  1  1  0  0  0
  1  2  1  0  0  0
  2  3  1  0  0  0
  3  4  1  0  0  0
  4  5  1  0  0  0
  5  6  1  0  0  0
  6  7  1  0  0  0
  7  8  1  0  0  0
  7 30  1  0  0  0
 30 31  1  0  0  0
 31 32  2  0  0  0
 32 33  1  0  0  0
 33 34  2  0  0  0
 34 35  1  0  0  0
 35 36  2  0  0  0
  7  9  1  0  0  0
  9 10  2  0  0  0
  9 11  1  0  0  0
 21 22  1  0  0  0
 22 23  2  0  0  0
 23 18  1  0  0  0
 11  1  1  0  0  0
 11  4  1  0  0  0
 36 31  1  0  0  0
 24 27  1  0  0  0
 26 28  1  0  0  0
 26 29  1  0  0  0
 13 16  1  0  0  0
  8 12  1  0  0  0
M  END
> <minimizedAffinity>
13.37568

> <CNNscore>
0.6454340219

> <CNNaffinity>
6.4636092186

> <CNN_VS>
4.1718335152

> <CNNaffinity_variance>
0.8026409149

$$$$
[H]N=C(c1c([H])c([H])c(C([H])([H])N([H])C(=O)C2([H])N3C(=O)[C@](O[H])(C([H])([H])c4c([H])c([H])c([H])c([H])c4[H])C([H])([H])C([H])([H])[C@]3([H])C([H])([H])C2([H])[H])c([H])c1[H])N([H])[H]


 36 39  0  0  0  0  0  0  0  0999 V2000
   22.7203    6.4586   53.1028 C   0  0  0  0  0  0  0  0  0  0  0  0
   22.3170    5.2590   53.9337 C   0  0  0  0  0  0  0  0  0  0  0  0
   22.6107    5.7680   55.3367 C   0  0  0  0  0  0  0  0  0  0  0  0
   22.0110    7.1541   55.2756 C   0  0  0  0  0  0  0  0  0  0  0  0
   22.6591    8.0958   56.2554 C   0  0  0  0  0  0  0  0  0  0  0  0
   22.2187    9.5072   56.0462 C   0  0  0  0  0  0  0  0  0  0  0  0
   21.4618    9.7402   54.7688 C   0  0  0  0  0  0  0  0  0  0  0  0
   20.1227    9.3326   54.8909 O   0  0  0  0  0  0  0  0  0  0  0  0
   22.1455    8.9960   53.6786 C   0  0  0  0  0  0  0  0  0  0  0  0
   22.5644    9.5013   52.6208 O   0  0  0  0  0  0  0  0  0  0  0  0
   22.3150    7.5888   53.9034 N   0  0  0  0  0  0  0  0  0  0  0  0
   19.8777    9.5409   55.8412 H   0  0  0  0  0  0  0  0  0  0  0  0
   24.9296    7.6074   53.1360 N   0  0  0  0  0  0  0  0  0  0  0  0
   24.2202    6.3893   52.9765 C   0  0  0  0  0  0  0  0  0  0  0  0
   24.8167    5.3295   52.7451 O   0  0  0  0  0  0  0  0  0  0  0  0
   24.4325    8.5228   53.3331 H   0  0  0  0  0  0  0  0  0  0  0  0
   26.3759    7.7069   53.0453 C   0  0  0  0  0  0  0  0  0  0  0  0
   27.8144    9.4472   56.6676 C   0  0  0  0  0  0  0  0  0  0  0  0
   28.6656    9.0690   55.6672 C   0  0  0  0  0  0  0  0  0  0  0  0
   28.2394    8.5009   54.4716 C   0  0  0  0  0  0  0  0  0  0  0  0
   26.8990    8.3106   54.2876 C   0  0  0  0  0  0  0  0  0  0  0  0
   26.0211    8.6806   55.2743 C   0  0  0  0  0  0  0  0  0  0  0  0
   26.4481    9.2477   56.4674 C   0  0  0  0  0  0  0  0  0  0  0  0
   28.5360   11.2805   58.0936 N   0  0  0  0  0  0  0  0  0  0  0  0
   28.2805   10.0400   57.9126 C   0  0  0  0  0  0  0  0  0  0  0  0
   28.4842    9.1981   59.0615 N   0  0  0  0  0  0  0  0  0  0  0  0
   28.4137   11.9464   57.3158 H   0  0  0  0  0  0  0  0  0  0  0  0
   27.6844    8.6971   59.5025 H   0  0  0  0  0  0  0  0  0  0  0  0
   29.4495    9.1002   59.4434 H   0  0  0  0  0  0  0  0  0  0  0  0
   21.4249   11.2220   54.4775 C   0  0  0  0  0  0  0  0  0  0  0  0
   21.3927   11.5337   53.0504 C   0  0  0  0  0  0  0  0  0  0  0  0
   21.0351   10.6187   52.0797 C   0  0  0  0  0  0  0  0  0  0  0  0
   21.0194   10.9514   50.7345 C   0  0  0  0  0  0  0  0  0  0  0  0
   21.3658   12.2218   50.3298 C   0  0  0  0  0  0  0  0  0  0  0  0
   21.7222   13.1403   51.2728 C   0  0  0  0  0  0  0  0  0  0  0  0
   21.7355   12.7987   52.6229 C   0  0  0  0  0  0  0  0  0  0  0  0
 24 25  2  0  0  0
 25 26  1  0  0  0
 25 18  1  0  0  0
 18 19  2  0  0  0
 19 20  1  0  0  0
 20 21  2  0  0  0
 21 17  1  0  0  0
 17 13  1  0  0  0
 13 14  1  0  0  0
 14 15  2  0  0  0
 14  1  1  0  0  0
  1  2  1  0  0  0
  2  3  1  0  0  0
  3  4  1  0  0  0
  4  5  1  0  0  0
  5  6  1  0  0  0
  6  7  1  0  0  0
  7  8  1  0  0  0
  7 30  1  0  0  0
 30 31  1  0  0  0
 31 32  2  0  0  0
 32 33  1  0  0  0
 33 34  2  0  0  0
 34 35  1  0  0  0
 35 36  2  0  0  0
  7  9  1  0  0  0
  9 10  2  0  0  0
  9 11  1  0  0  0
 21 22  1  0  0  0
 22 23  2  0  0  0
 23 18  1  0  0  0
 11  1  1  0  0  0
 11  4  1  0  0  0
 36 31  1  0  0  0
 24 27  1  0  0  0
 26 28  1  0  0  0
 26 29  1  0  0  0
 13 16  1  0  0  0
  8 12  1  0  0  0
M  END
> <minimizedAffinity>
13.80504

> <CNNscore>
0.6450549364

> <CNNaffinity>
6.2669692039

> <CNN_VS>
4.0425395966

> <CNNaffinity_variance>
0.8424404263

$$$$
[H]N=C(c1c([H])c([H])c(C([H])([H])N([H])C(=O)C2([H])N3C(=O)[C@](O[H])(C([H])([H])c4c([H])c([H])c([H])c([H])c4[H])C([H])([H])C([H])([H])[C@]3([H])C([H])([H])C2([H])[H])c([H])c1[H])N([H])[H]


 36 39  0  0  0  0  0  0  0  0999 V2000
   22.1398    9.1511   55.1530 C   0  0  0  0  0  0  0  0  0  0  0  0
   21.5447   10.4631   54.6873 C   0  0  0  0  0  0  0  0  0  0  0  0
   21.4324   10.2139   53.1910 C   0  0  0  0  0  0  0  0  0  0  0  0
   20.8483    8.8199   53.1704 C   0  0  0  0  0  0  0  0  0  0  0  0
   21.1855    8.0828   51.9016 C   0  0  0  0  0  0  0  0  0  0  0  0
   20.7948    6.6434   51.9730 C   0  0  0  0  0  0  0  0  0  0  0  0
   20.4143    6.1692   53.3476 C   0  0  0  0  0  0  0  0  0  0  0  0
   19.1005    6.5495   53.6699 O   0  0  0  0  0  0  0  0  0  0  0  0
   21.3842    6.7348   54.3218 C   0  0  0  0  0  0  0  0  0  0  0  0
   22.0689    6.0675   55.1192 O   0  0  0  0  0  0  0  0  0  0  0  0
   21.5101    8.1642   54.3089 N   0  0  0  0  0  0  0  0  0  0  0  0
   18.6001    6.5010   52.8016 H   0  0  0  0  0  0  0  0  0  0  0  0
   24.1821    8.2139   54.0797 N   0  0  0  0  0  0  0  0  0  0  0  0
   23.6175    9.2446   54.8740 C   0  0  0  0  0  0  0  0  0  0  0  0
   24.3162   10.1689   55.3101 O   0  0  0  0  0  0  0  0  0  0  0  0
   23.5968    7.4154   53.7005 H   0  0  0  0  0  0  0  0  0  0  0  0
   25.5888    8.1618   53.7210 C   0  0  0  0  0  0  0  0  0  0  0  0
   27.8699    9.3603   57.1238 C   0  0  0  0  0  0  0  0  0  0  0  0
   28.4681    9.0371   55.9381 C   0  0  0  0  0  0  0  0  0  0  0  0
   27.7632    8.6441   54.8056 C   0  0  0  0  0  0  0  0  0  0  0  0
   26.4008    8.5774   54.8826 C   0  0  0  0  0  0  0  0  0  0  0  0
   25.7730    8.8961   56.0597 C   0  0  0  0  0  0  0  0  0  0  0  0
   26.4780    9.2883   57.1894 C   0  0  0  0  0  0  0  0  0  0  0  0
   29.0660   10.9490   58.5240 N   0  0  0  0  0  0  0  0  0  0  0  0
   28.6258    9.7690   58.2987 C   0  0  0  0  0  0  0  0  0  0  0  0
   28.9252    8.7980   59.3173 N   0  0  0  0  0  0  0  0  0  0  0  0
   28.8908   11.6994   57.8388 H   0  0  0  0  0  0  0  0  0  0  0  0
   28.1613    8.3465   59.8631 H   0  0  0  0  0  0  0  0  0  0  0  0
   29.9233    8.5558   59.4977 H   0  0  0  0  0  0  0  0  0  0  0  0
   20.4328    4.6590   53.3739 C   0  0  0  0  0  0  0  0  0  0  0  0
   19.1002    4.0615   53.4202 C   0  0  0  0  0  0  0  0  0  0  0  0
   18.1080    4.4811   54.2843 C   0  0  0  0  0  0  0  0  0  0  0  0
   16.8561    3.8869   54.3006 C   0  0  0  0  0  0  0  0  0  0  0  0
   16.5696    2.8485   53.4420 C   0  0  0  0  0  0  0  0  0  0  0  0
   17.5359    2.4191   52.5807 C   0  0  0  0  0  0  0  0  0  0  0  0
   18.7918    3.0211   52.5700 C   0  0  0  0  0  0  0  0  0  0  0  0
 24 25  2  0  0  0
 25 26  1  0  0  0
 25 18  1  0  0  0
 18 19  2  0  0  0
 19 20  1  0  0  0
 20 21  2  0  0  0
 21 17  1  0  0  0
 17 13  1  0  0  0
 13 14  1  0  0  0
 14 15  2  0  0  0
 14  1  1  0  0  0
  1  2  1  0  0  0
  2  3  1  0  0  0
  3  4  1  0  0  0
  4  5  1  0  0  0
  5  6  1  0  0  0
  6  7  1  0  0  0
  7  8  1  0  0  0
  7 30  1  0  0  0
 30 31  1  0  0  0
 31 32  2  0  0  0
 32 33  1  0  0  0
 33 34  2  0  0  0
 34 35  1  0  0  0
 35 36  2  0  0  0
  7  9  1  0  0  0
  9 10  2  0  0  0
  9 11  1  0  0  0
 21 22  1  0  0  0
 22 23  2  0  0  0
 23 18  1  0  0  0
 11  1  1  0  0  0
 11  4  1  0  0  0
 36 31  1  0  0  0
 24 27  1  0  0  0
 26 28  1  0  0  0
 26 29  1  0  0  0
 13 16  1  0  0  0
  8 12  1  0  0  0
M  END
> <minimizedAffinity>
14.44141

> <CNNscore>
0.6160843968

> <CNNaffinity>
6.5628938675

> <CNN_VS>
4.0432963371

> <CNNaffinity_variance>
0.5201776624

$$$$
[H]N=C(c1c([H])c([H])c(C([H])([H])N([H])C(=O)C2([H])N3C(=O)[C@](O[H])(C([H])([H])c4c([H])c([H])c([H])c([H])c4[H])C([H])([H])C([H])([H])[C@]3([H])C([H])([H])C2([H])[H])c([H])c1[H])N([H])[H]


 36 39  0  0  0  0  0  0  0  0999 V2000
   21.6190    6.8071   52.6901 C   0  0  0  0  0  0  0  0  0  0  0  0
   20.3361    6.1400   53.1388 C   0  0  0  0  0  0  0  0  0  0  0  0
   20.0993    6.8362   54.4703 C   0  0  0  0  0  0  0  0  0  0  0  0
   20.3674    8.2765   54.0982 C   0  0  0  0  0  0  0  0  0  0  0  0
   20.8053    9.0959   55.2829 C   0  0  0  0  0  0  0  0  0  0  0  0
   21.2738   10.4546   54.8778 C   0  0  0  0  0  0  0  0  0  0  0  0
   21.4731   10.6289   53.3983 C   0  0  0  0  0  0  0  0  0  0  0  0
   20.2491   10.8476   52.7438 O   0  0  0  0  0  0  0  0  0  0  0  0
   22.1464    9.4128   52.8714 C   0  0  0  0  0  0  0  0  0  0  0  0
   23.2170    9.4062   52.2362 O   0  0  0  0  0  0  0  0  0  0  0  0
   21.4767    8.1718   53.1375 N   0  0  0  0  0  0  0  0  0  0  0  0
   19.7024   11.3799   53.3952 H   0  0  0  0  0  0  0  0  0  0  0  0
   23.8074    6.9120   53.8739 N   0  0  0  0  0  0  0  0  0  0  0  0
   22.7303    6.1048   53.4262 C   0  0  0  0  0  0  0  0  0  0  0  0
   22.7173    4.8849   53.6367 O   0  0  0  0  0  0  0  0  0  0  0  0
   23.8331    7.9575   53.6999 H   0  0  0  0  0  0  0  0  0  0  0  0
   24.9516    6.3868   54.5986 C   0  0  0  0  0  0  0  0  0  0  0  0
   27.8595    9.4716   55.0960 C   0  0  0  0  0  0  0  0  0  0  0  0
   27.7530    8.7691   53.9283 C   0  0  0  0  0  0  0  0  0  0  0  0
   26.8195    7.7589   53.7236 C   0  0  0  0  0  0  0  0  0  0  0  0
   25.9640    7.4524   54.7438 C   0  0  0  0  0  0  0  0  0  0  0  0
   26.0476    8.1408   55.9271 C   0  0  0  0  0  0  0  0  0  0  0  0
   26.9800    9.1491   56.1300 C   0  0  0  0  0  0  0  0  0  0  0  0
   29.7315   10.8786   54.4392 N   0  0  0  0  0  0  0  0  0  0  0  0
   28.8442   10.5256   55.2908 C   0  0  0  0  0  0  0  0  0  0  0  0
   28.8572   11.2582   56.5290 N   0  0  0  0  0  0  0  0  0  0  0  0
   29.7846   10.3992   53.5279 H   0  0  0  0  0  0  0  0  0  0  0  0
   28.0459   11.8505   56.8054 H   0  0  0  0  0  0  0  0  0  0  0  0
   29.6960   11.1838   57.1440 H   0  0  0  0  0  0  0  0  0  0  0  0
   22.3075   11.8638   53.1524 C   0  0  0  0  0  0  0  0  0  0  0  0
   21.6162   12.8870   52.3712 C   0  0  0  0  0  0  0  0  0  0  0  0
   20.7825   13.8361   52.9293 C   0  0  0  0  0  0  0  0  0  0  0  0
   20.1415   14.7896   52.1544 C   0  0  0  0  0  0  0  0  0  0  0  0
   20.3245   14.8117   50.7892 C   0  0  0  0  0  0  0  0  0  0  0  0
   21.1439   13.8829   50.2185 C   0  0  0  0  0  0  0  0  0  0  0  0
   21.7848   12.9277   51.0037 C   0  0  0  0  0  0  0  0  0  0  0  0
 24 25  2  0  0  0
 25 26  1  0  0  0
 25 18  1  0  0  0
 18 19  2  0  0  0
 19 20  1  0  0  0
 20 21  2  0  0  0
 21 17  1  0  0  0
 17 13  1  0  0  0
 13 14  1  0  0  0
 14 15  2  0  0  0
 14  1  1  0  0  0
  1  2  1  0  0  0
  2  3  1  0  0  0
  3  4  1  0  0  0
  4  5  1  0  0  0
  5  6  1  0  0  0
  6  7  1  0  0  0
  7  8  1  0  0  0
  7 30  1  0  0  0
 30 31  1  0  0  0
 31 32  2  0  0  0
 32 33  1  0  0  0
 33 34  2  0  0  0
 34 35  1  0  0  0
 35 36  2  0  0  0
  7  9  1  0  0  0
  9 10  2  0  0  0
  9 11  1  0  0  0
 21 22  1  0  0  0
 22 23  2  0  0  0
 23 18  1  0  0  0
 11  1  1  0  0  0
 11  4  1  0  0  0
 36 31  1  0  0  0
 24 27  1  0  0  0
 26 28  1  0  0  0
 26 29  1  0  0  0
 13 16  1  0  0  0
  8 12  1  0  0  0
M  END
> <minimizedAffinity>
32.14291

> <CNNscore>
0.5524971485

> <CNNaffinity>
5.9317955971

> <CNN_VS>
3.2773001194

> <CNNaffinity_variance>
1.5205979347

$$$$
[H]N=C(c1c([H])c([H])c(C([H])([H])N([H])C(=O)C2([H])N3C(=O)[C@](O[H])(C([H])([H])c4c([H])c([H])c([H])c([H])c4[H])C([H])([H])C([H])([H])[C@]3([H])C([H])([H])C2([H])[H])c([H])c1[H])N([H])[H]


 36 39  0  0  0  0  0  0  0  0999 V2000
   23.9702    6.9212   55.4008 C   0  0  0  0  0  0  0  0  0  0  0  0
   23.8704    5.7181   54.4871 C   0  0  0  0  0  0  0  0  0  0  0  0
   24.4117    6.2964   53.1885 C   0  0  0  0  0  0  0  0  0  0  0  0
   25.6295    7.0409   53.6860 C   0  0  0  0  0  0  0  0  0  0  0  0
   26.0084    8.1795   52.7767 C   0  0  0  0  0  0  0  0  0  0  0  0
   27.0712    9.0407   53.3756 C   0  0  0  0  0  0  0  0  0  0  0  0
   27.3418    8.7746   54.8300 C   0  0  0  0  0  0  0  0  0  0  0  0
   28.1561    7.6415   54.9956 O   0  0  0  0  0  0  0  0  0  0  0  0
   26.0385    8.5968   55.5225 C   0  0  0  0  0  0  0  0  0  0  0  0
   25.6554    9.2562   56.5065 O   0  0  0  0  0  0  0  0  0  0  0  0
   25.1867    7.5757   54.9830 N   0  0  0  0  0  0  0  0  0  0  0  0
   28.7784    7.6567   54.2087 H   0  0  0  0  0  0  0  0  0  0  0  0
   21.7179    7.1548   54.3643 N   0  0  0  0  0  0  0  0  0  0  0  0
   22.7627    7.7707   55.1001 C   0  0  0  0  0  0  0  0  0  0  0  0
   22.6734    8.9487   55.4701 O   0  0  0  0  0  0  0  0  0  0  0  0
   21.7806    6.1476   54.0396 H   0  0  0  0  0  0  0  0  0  0  0  0
   20.4897    7.8379   53.9969 C   0  0  0  0  0  0  0  0  0  0  0  0
   21.4764   11.4559   51.9582 C   0  0  0  0  0  0  0  0  0  0  0  0
   21.1920   10.3049   51.2778 C   0  0  0  0  0  0  0  0  0  0  0  0
   20.8641    9.1063   51.9020 C   0  0  0  0  0  0  0  0  0  0  0  0
   20.8244    9.0778   53.2674 C   0  0  0  0  0  0  0  0  0  0  0  0
   21.1051   10.2178   53.9766 C   0  0  0  0  0  0  0  0  0  0  0  0
   21.4322   11.4137   53.3521 C   0  0  0  0  0  0  0  0  0  0  0  0
   22.8038   12.8664   50.4873 N   0  0  0  0  0  0  0  0  0  0  0  0
   21.8181   12.7009   51.2861 C   0  0  0  0  0  0  0  0  0  0  0  0
   21.0069   13.8681   51.5089 N   0  0  0  0  0  0  0  0  0  0  0  0
   23.4307   12.0749   50.2782 H   0  0  0  0  0  0  0  0  0  0  0  0
   20.0080   13.8861   51.2140 H   0  0  0  0  0  0  0  0  0  0  0  0
   21.4403   14.6958   51.9720 H   0  0  0  0  0  0  0  0  0  0  0  0
   28.1141    9.9354   55.4111 C   0  0  0  0  0  0  0  0  0  0  0  0
   28.3093    9.8392   56.8560 C   0  0  0  0  0  0  0  0  0  0  0  0
   28.2889    8.6446   57.5485 C   0  0  0  0  0  0  0  0  0  0  0  0
   28.4753    8.5941   58.9208 C   0  0  0  0  0  0  0  0  0  0  0  0
   28.6882    9.7524   59.6353 C   0  0  0  0  0  0  0  0  0  0  0  0
   28.7119   10.9427   58.9701 C   0  0  0  0  0  0  0  0  0  0  0  0
   28.5238   10.9857   57.5908 C   0  0  0  0  0  0  0  0  0  0  0  0
 24 25  2  0  0  0
 25 26  1  0  0  0
 25 18  1  0  0  0
 18 19  2  0  0  0
 19 20  1  0  0  0
 20 21  2  0  0  0
 21 17  1  0  0  0
 17 13  1  0  0  0
 13 14  1  0  0  0
 14 15  2  0  0  0
 14  1  1  0  0  0
  1  2  1  0  0  0
  2  3  1  0  0  0
  3  4  1  0  0  0
  4  5  1  0  0  0
  5  6  1  0  0  0
  6  7  1  0  0  0
  7  8  1  0  0  0
  7 30  1  0  0  0
 30 31  1  0  0  0
 31 32  2  0  0  0
 32 33  1  0  0  0
 33 34  2  0  0  0
 34 35  1  0  0  0
 35 36  2  0  0  0
  7  9  1  0  0  0
  9 10  2  0  0  0
  9 11  1  0  0  0
 21 22  1  0  0  0
 22 23  2  0  0  0
 23 18  1  0  0  0
 11  1  1  0  0  0
 11  4  1  0  0  0
 36 31  1  0  0  0
 24 27  1  0  0  0
 26 28  1  0  0  0
 26 29  1  0  0  0
 13 16  1  0  0  0
  8 12  1  0  0  0
M  END
> <minimizedAffinity>
15.74060

> <CNNscore>
0.5495330691

> <CNNaffinity>
6.3387513161

> <CNN_VS>
3.4833533764

> <CNNaffinity_variance>
0.3784322143

$$$$
[H]N=C(c1c([H])c([H])c(C([H])([H])N([H])C(=O)C2([H])N3C(=O)[C@](O[H])(C([H])([H])c4c([H])c([H])c([H])c([H])c4[H])C([H])([H])C([H])([H])[C@]3([H])C([H])([H])C2([H])[H])c([H])c1[H])N([H])[H]


 36 39  0  0  0  0  0  0  0  0999 V2000
   20.7512    9.6801   53.2948 C   0  0  0  0  0  0  0  0  0  0  0  0
   21.2972   10.1029   51.9475 C   0  0  0  0  0  0  0  0  0  0  0  0
   22.3938    9.0688   51.7432 C   0  0  0  0  0  0  0  0  0  0  0  0
   21.6777    7.8004   52.1473 C   0  0  0  0  0  0  0  0  0  0  0  0
   22.6315    6.7399   52.6291 C   0  0  0  0  0  0  0  0  0  0  0  0
   21.9135    5.5747   53.2264 C   0  0  0  0  0  0  0  0  0  0  0  0
   20.4493    5.8064   53.4745 C   0  0  0  0  0  0  0  0  0  0  0  0
   19.7058    5.6672   52.2903 O   0  0  0  0  0  0  0  0  0  0  0  0
   20.2827    7.1675   54.0484 C   0  0  0  0  0  0  0  0  0  0  0  0
   19.7196    7.4244   55.1286 O   0  0  0  0  0  0  0  0  0  0  0  0
   20.8272    8.2392   53.2647 N   0  0  0  0  0  0  0  0  0  0  0  0
   20.1737    4.9421   51.7785 H   0  0  0  0  0  0  0  0  0  0  0  0
   22.4691    9.3275   55.0628 N   0  0  0  0  0  0  0  0  0  0  0  0
   21.6923   10.2546   54.3217 C   0  0  0  0  0  0  0  0  0  0  0  0
   21.7927   11.4726   54.5195 O   0  0  0  0  0  0  0  0  0  0  0  0
   22.3931    8.2819   54.9056 H   0  0  0  0  0  0  0  0  0  0  0  0
   23.4221    9.7219   56.0858 C   0  0  0  0  0  0  0  0  0  0  0  0
   27.2997    8.4327   54.8520 C   0  0  0  0  0  0  0  0  0  0  0  0
   27.1135    9.1384   56.0077 C   0  0  0  0  0  0  0  0  0  0  0  0
   25.8686    9.5754   56.4472 C   0  0  0  0  0  0  0  0  0  0  0  0
   24.7740    9.2840   55.6833 C   0  0  0  0  0  0  0  0  0  0  0  0
   24.9305    8.5770   54.5183 C   0  0  0  0  0  0  0  0  0  0  0  0
   26.1740    8.1414   54.0808 C   0  0  0  0  0  0  0  0  0  0  0  0
   29.7094    8.6191   54.5801 N   0  0  0  0  0  0  0  0  0  0  0  0
   28.6116    7.9845   54.4086 C   0  0  0  0  0  0  0  0  0  0  0  0
   28.7310    6.7290   53.7163 N   0  0  0  0  0  0  0  0  0  0  0  0
   29.7039    9.5272   55.0684 H   0  0  0  0  0  0  0  0  0  0  0  0
   28.4943    5.8337   54.1934 H   0  0  0  0  0  0  0  0  0  0  0  0
   29.0595    6.7342   52.7267 H   0  0  0  0  0  0  0  0  0  0  0  0
   19.9334    4.7485   54.4213 C   0  0  0  0  0  0  0  0  0  0  0  0
   18.7373    4.0652   53.9341 C   0  0  0  0  0  0  0  0  0  0  0  0
   18.7682    3.0574   52.9904 C   0  0  0  0  0  0  0  0  0  0  0  0
   17.6109    2.4345   52.5506 C   0  0  0  0  0  0  0  0  0  0  0  0
   16.3853    2.8131   53.0529 C   0  0  0  0  0  0  0  0  0  0  0  0
   16.3332    3.8065   53.9858 C   0  0  0  0  0  0  0  0  0  0  0  0
   17.5004    4.4279   54.4230 C   0  0  0  0  0  0  0  0  0  0  0  0
 24 25  2  0  0  0
 25 26  1  0  0  0
 25 18  1  0  0  0
 18 19  2  0  0  0
 19 20  1  0  0  0
 20 21  2  0  0  0
 21 17  1  0  0  0
 17 13  1  0  0  0
 13 14  1  0  0  0
 14 15  2  0  0  0
 14  1  1  0  0  0
  1  2  1  0  0  0
  2  3  1  0  0  0
  3  4  1  0  0  0
  4  5  1  0  0  0
  5  6  1  0  0  0
  6  7  1  0  0  0
  7  8  1  0  0  0
  7 30  1  0  0  0
 30 31  1  0  0  0
 31 32  2  0  0  0
 32 33  1  0  0  0
 33 34  2  0  0  0
 34 35  1  0  0  0
 35 36  2  0  0  0
  7  9  1  0  0  0
  9 10  2  0  0  0
  9 11  1  0  0  0
 21 22  1  0  0  0
 22 23  2  0  0  0
 23 18  1  0  0  0
 11  1  1  0  0  0
 11  4  1  0  0  0
 36 31  1  0  0  0
 24 27  1  0  0  0
 26 28  1  0  0  0
 26 29  1  0  0  0
 13 16  1  0  0  0
  8 12  1  0  0  0
M  END
> <minimizedAffinity>
25.36327

> <CNNscore>
0.5261343122

> <CNNaffinity>
6.2156114578

> <CNN_VS>
3.2702465057

> <CNNaffinity_variance>
0.3178590238

$$$$
[H]N=C(c1c([H])c([H])c(C([H])([H])N([H])C(=O)C2([H])N3C(=O)[C@](O[H])(C([H])([H])c4c([H])c([H])c([H])c([H])c4[H])C([H])([H])C([H])([H])[C@]3([H])C([H])([H])C2([H])[H])c([H])c1[H])N([H])[H]


 36 39  0  0  0  0  0  0  0  0999 V2000
   22.1839    6.8279   54.9101 C   0  0  0  0  0  0  0  0  0  0  0  0
   22.4617    5.3690   54.6161 C   0  0  0  0  0  0  0  0  0  0  0  0
   23.5867    5.4886   53.5993 C   0  0  0  0  0  0  0  0  0  0  0  0
   24.4624    6.5320   54.2546 C   0  0  0  0  0  0  0  0  0  0  0  0
   25.2918    7.2876   53.2507 C   0  0  0  0  0  0  0  0  0  0  0  0
   25.9897    8.4536   53.8695 C   0  0  0  0  0  0  0  0  0  0  0  0
   25.5216    8.7950   55.2564 C   0  0  0  0  0  0  0  0  0  0  0  0
   26.0935    7.9366   56.2106 O   0  0  0  0  0  0  0  0  0  0  0  0
   24.0380    8.7050   55.2837 C   0  0  0  0  0  0  0  0  0  0  0  0
   23.2718    9.6232   55.6297 O   0  0  0  0  0  0  0  0  0  0  0  0
   23.4880    7.4451   54.8721 N   0  0  0  0  0  0  0  0  0  0  0  0
   27.0145    7.7445   55.8621 H   0  0  0  0  0  0  0  0  0  0  0  0
   21.9816    7.8738   52.6591 N   0  0  0  0  0  0  0  0  0  0  0  0
   21.3147    7.3195   53.7818 C   0  0  0  0  0  0  0  0  0  0  0  0
   20.0793    7.2495   53.8192 O   0  0  0  0  0  0  0  0  0  0  0  0
   23.0385    7.9416   52.6134 H   0  0  0  0  0  0  0  0  0  0  0  0
   21.2871    8.3890   51.4919 C   0  0  0  0  0  0  0  0  0  0  0  0
   21.2888   12.6512   51.7234 C   0  0  0  0  0  0  0  0  0  0  0  0
   20.7997   11.9934   50.6296 C   0  0  0  0  0  0  0  0  0  0  0  0
   20.7783   10.6077   50.5142 C   0  0  0  0  0  0  0  0  0  0  0  0
   21.2725    9.8648   51.5489 C   0  0  0  0  0  0  0  0  0  0  0  0
   21.7699   10.4977   52.6595 C   0  0  0  0  0  0  0  0  0  0  0  0
   21.7905   11.8811   52.7732 C   0  0  0  0  0  0  0  0  0  0  0  0
   22.2089   14.8712   51.3494 N   0  0  0  0  0  0  0  0  0  0  0  0
   21.3028   14.1031   51.8249 C   0  0  0  0  0  0  0  0  0  0  0  0
   20.2279   14.7726   52.5077 N   0  0  0  0  0  0  0  0  0  0  0  0
   23.0118   14.4642   50.8464 H   0  0  0  0  0  0  0  0  0  0  0  0
   19.2535   14.7244   52.1423 H   0  0  0  0  0  0  0  0  0  0  0  0
   20.4448   15.3072   53.3763 H   0  0  0  0  0  0  0  0  0  0  0  0
   25.9900   10.1870   55.6093 C   0  0  0  0  0  0  0  0  0  0  0  0
   26.9565   10.2154   56.7047 C   0  0  0  0  0  0  0  0  0  0  0  0
   27.4895   11.3810   57.2190 C   0  0  0  0  0  0  0  0  0  0  0  0
   28.4070   11.3671   58.2575 C   0  0  0  0  0  0  0  0  0  0  0  0
   28.8139   10.1718   58.8080 C   0  0  0  0  0  0  0  0  0  0  0  0
   28.2994    9.0092   58.3144 C   0  0  0  0  0  0  0  0  0  0  0  0
   27.3776    9.0310   57.2706 C   0  0  0  0  0  0  0  0  0  0  0  0
 24 25  2  0  0  0
 25 26  1  0  0  0
 25 18  1  0  0  0
 18 19  2  0  0  0
 19 20  1  0  0  0
 20 21  2  0  0  0
 21 17  1  0  0  0
 17 13  1  0  0  0
 13 14  1  0  0  0
 14 15  2  0  0  0
 14  1  1  0  0  0
  1  2  1  0  0  0
  2  3  1  0  0  0
  3  4  1  0  0  0
  4  5  1  0  0  0
  5  6  1  0  0  0
  6  7  1  0  0  0
  7  8  1  0  0  0
  7 30  1  0  0  0
 30 31  1  0  0  0
 31 32  2  0  0  0
 32 33  1  0  0  0
 33 34  2  0  0  0
 34 35  1  0  0  0
 35 36  2  0  0  0
  7  9  1  0  0  0
  9 10  2  0  0  0
  9 11  1  0  0  0
 21 22  1  0  0  0
 22 23  2  0  0  0
 23 18  1  0  0  0
 11  1  1  0  0  0
 11  4  1  0  0  0
 36 31  1  0  0  0
 24 27  1  0  0  0
 26 28  1  0  0  0
 26 29  1  0  0  0
 13 16  1  0  0  0
  8 12  1  0  0  0
M  END
> <minimizedAffinity>
24.92850

> <CNNscore>
0.4772753119

> <CNNaffinity>
6.1322450638

> <CNN_VS>
2.9267692566

> <CNNaffinity_variance>
0.4124917388

$$$$
[H]N=C(c1c([H])c([H])c(C([H])([H])N([H])C(=O)C2([H])N3C(=O)[C@](O[H])(C([H])([H])c4c([H])c([H])c([H])c([H])c4[H])C([H])([H])C([H])([H])[C@]3([H])C([H])([H])C2([H])[H])c([H])c1[H])N([H])[H]


 36 39  0  0  0  0  0  0  0  0999 V2000
   24.9078    6.8844   53.1682 C   0  0  0  0  0  0  0  0  0  0  0  0
   25.6616    6.7024   54.4685 C   0  0  0  0  0  0  0  0  0  0  0  0
   24.7749    7.4820   55.4275 C   0  0  0  0  0  0  0  0  0  0  0  0
   23.4040    6.9912   55.0218 C   0  0  0  0  0  0  0  0  0  0  0  0
   22.3258    7.9916   55.3433 C   0  0  0  0  0  0  0  0  0  0  0  0
   21.0109    7.6027   54.7520 C   0  0  0  0  0  0  0  0  0  0  0  0
   21.0842    6.4796   53.7557 C   0  0  0  0  0  0  0  0  0  0  0  0
   21.1710    5.2342   54.4006 O   0  0  0  0  0  0  0  0  0  0  0  0
   22.2645    6.7074   52.8812 C   0  0  0  0  0  0  0  0  0  0  0  0
   22.2308    6.7814   51.6390 O   0  0  0  0  0  0  0  0  0  0  0  0
   23.5199    6.8473   53.5622 N   0  0  0  0  0  0  0  0  0  0  0  0
   20.6140    5.3358   55.2289 H   0  0  0  0  0  0  0  0  0  0  0  0
   26.6563    8.4379   52.3135 N   0  0  0  0  0  0  0  0  0  0  0  0
   25.2925    8.2473   52.6538 C   0  0  0  0  0  0  0  0  0  0  0  0
   24.4701    9.1643   52.5296 O   0  0  0  0  0  0  0  0  0  0  0  0
   27.3722    7.6627   52.4157 H   0  0  0  0  0  0  0  0  0  0  0  0
   27.1844    9.6911   51.8028 C   0  0  0  0  0  0  0  0  0  0  0  0
   28.7143    8.9846   47.8812 C   0  0  0  0  0  0  0  0  0  0  0  0
   28.4809   10.2502   48.3418 C   0  0  0  0  0  0  0  0  0  0  0  0
   27.9855   10.5248   49.6118 C   0  0  0  0  0  0  0  0  0  0  0  0
   27.7179    9.4739   50.4429 C   0  0  0  0  0  0  0  0  0  0  0  0
   27.9425    8.1927   50.0077 C   0  0  0  0  0  0  0  0  0  0  0  0
   28.4371    7.9201   48.7395 C   0  0  0  0  0  0  0  0  0  0  0  0
   29.3053    9.5698   45.5957 N   0  0  0  0  0  0  0  0  0  0  0  0
   29.2329    8.7179   46.5475 C   0  0  0  0  0  0  0  0  0  0  0  0
   29.7155    7.4004   46.2292 N   0  0  0  0  0  0  0  0  0  0  0  0
   28.9783   10.5357   45.7482 H   0  0  0  0  0  0  0  0  0  0  0  0
   30.5437    7.0038   46.7211 H   0  0  0  0  0  0  0  0  0  0  0  0
   29.2185    6.8508   45.4955 H   0  0  0  0  0  0  0  0  0  0  0  0
   19.8068    6.4472   52.9501 C   0  0  0  0  0  0  0  0  0  0  0  0
   18.8126    5.5130   53.4732 C   0  0  0  0  0  0  0  0  0  0  0  0
   19.0977    4.2010   53.7968 C   0  0  0  0  0  0  0  0  0  0  0  0
   18.1262    3.3435   54.2881 C   0  0  0  0  0  0  0  0  0  0  0  0
   16.8346    3.7879   54.4669 C   0  0  0  0  0  0  0  0  0  0  0  0
   16.5324    5.0803   54.1533 C   0  0  0  0  0  0  0  0  0  0  0  0
   17.5140    5.9363   53.6600 C   0  0  0  0  0  0  0  0  0  0  0  0
 24 25  2  0  0  0
 25 26  1  0  0  0
 25 18  1  0  0  0
 18 19  2  0  0  0
 19 20  1  0  0  0
 20 21  2  0  0  0
 21 17  1  0  0  0
 17 13  1  0  0  0
 13 14  1  0  0  0
 14 15  2  0  0  0
 14  1  1  0  0  0
  1  2  1  0  0  0
  2  3  1  0  0  0
  3  4  1  0  0  0
  4  5  1  0  0  0
  5  6  1  0  0  0
  6  7  1  0  0  0
  7  8  1  0  0  0
  7 30  1  0  0  0
 30 31  1  0  0  0
 31 32  2  0  0  0
 32 33  1  0  0  0
 33 34  2  0  0  0
 34 35  1  0  0  0
 35 36  2  0  0  0
  7  9  1  0  0  0
  9 10  2  0  0  0
  9 11  1  0  0  0
 21 22  1  0  0  0
 22 23  2  0  0  0
 23 18  1  0  0  0
 11  1  1  0  0  0
 11  4  1  0  0  0
 36 31  1  0  0  0
 24 27  1  0  0  0
 26 28  1  0  0  0
 26 29  1  0  0  0
 13 16  1  0  0  0
  8 12  1  0  0  0
M  END
> <minimizedAffinity>
43.49879

> <CNNscore>
0.4624151289

> <CNNaffinity>
5.5555205345

> <CNN_VS>
2.5689568520

> <CNNaffinity_variance>
0.3012261689

$$$$
[H]c1c(OC([H])([H])[H])c(C([H])([H])N(C([H])([H])[H])C([H])([H])[H])c([H])c(OC([H])([H])[H])c1-c1c([H])n(C([H])([H])[H])c(=O)c2c([H])c([H])c([H])c([H])c12


 26 28  0  0  0  0  0  0  0  0999 V2000
   26.4281   10.0855   56.0507 C   0  0  0  0  0  0  0  0  0  0  0  0
   25.2711    9.7645   55.2996 C   0  0  0  0  0  0  0  0  0  0  0  0
   25.1396    8.4894   54.5753 C   0  0  0  0  0  0  0  0  0  0  0  0
   26.1443    7.6487   54.6241 C   0  0  0  0  0  0  0  0  0  0  0  0
   27.3491    7.9446   55.3116 C   0  0  0  0  0  0  0  0  0  0  0  0
   27.4237    9.0803   55.9505 C   0  0  0  0  0  0  0  0  0  0  0  0
   23.7319    8.2680   54.2387 C   0  0  0  0  0  0  0  0  0  0  0  0
   23.4233    7.5920   52.9957 C   0  0  0  0  0  0  0  0  0  0  0  0
   22.2244    7.7801   52.3422 N   0  0  0  0  0  0  0  0  0  0  0  0
   21.8611    7.2132   51.1089 C   0  0  0  0  0  0  0  0  0  0  0  0
   21.4984    8.6205   53.0232 C   0  0  0  0  0  0  0  0  0  0  0  0
   20.2823    8.7602   52.2879 O   0  0  0  0  0  0  0  0  0  0  0  0
   21.4816    9.3351   54.0527 C   0  0  0  0  0  0  0  0  0  0  0  0
   20.4652   10.1943   54.5141 C   0  0  0  0  0  0  0  0  0  0  0  0
   20.9344   10.7987   55.8123 C   0  0  0  0  0  0  0  0  0  0  0  0
   21.9469   10.6190   56.3619 C   0  0  0  0  0  0  0  0  0  0  0  0
   23.0213    9.7557   55.9201 C   0  0  0  0  0  0  0  0  0  0  0  0
   22.7643    9.1461   54.7898 C   0  0  0  0  0  0  0  0  0  0  0  0
   26.9206   12.1479   57.4813 C   0  0  0  0  0  0  0  0  0  0  0  0
   26.6910   11.0954   56.8111 O   0  0  0  0  0  0  0  0  0  0  0  0
   26.0938    6.3642   54.0196 O   0  0  0  0  0  0  0  0  0  0  0  0
   24.7322    5.9279   53.9613 C   0  0  0  0  0  0  0  0  0  0  0  0
   28.6051    9.4319   56.8005 C   0  0  0  0  0  0  0  0  0  0  0  0
   28.5983    9.5362   58.1598 N   0  0  0  0  0  0  0  0  0  0  0  0
   27.9701    8.3736   58.7505 C   0  0  0  0  0  0  0  0  0  0  0  0
   28.8139   10.5523   59.0285 C   0  0  0  0  0  0  0  0  0  0  0  0
 19 20  1  0  0  0
 20  1  1  0  0  0
  1  2  2  0  0  0
  2  3  1  0  0  0
  3  7  1  0  0  0
  7  8  2  0  0  0
  8  9  1  0  0  0
  9 10  1  0  0  0
  9 11  1  0  0  0
 11 12  2  0  0  0
 11 13  1  0  0  0
 13 14  2  0  0  0
 14 15  1  0  0  0
 15 16  2  0  0  0
 16 17  1  0  0  0
 17 18  2  0  0  0
  3  4  2  0  0  0
  4 21  1  0  0  0
 21 22  1  0  0  0
  4  5  1  0  0  0
  5  6  2  0  0  0
  6 23  1  0  0  0
 23 24  1  0  0  0
 24 25  1  0  0  0
 24 26  1  0  0  0
  6  1  1  0  0  0
 18  7  1  0  0  0
 18 13  1  0  0  0
M  END
> <minimizedAffinity>
23.26136

> <CNNscore>
0.6719409227

> <CNNaffinity>
5.8480043411

> <CNN_VS>
3.9295134544

> <CNNaffinity_variance>
0.3780356944

$$$$
[H]c1c(OC([H])([H])[H])c(C([H])([H])N(C([H])([H])[H])C([H])([H])[H])c([H])c(OC([H])([H])[H])c1-c1c([H])n(C([H])([H])[H])c(=O)c2c([H])c([H])c([H])c([H])c12


 26 28  0  0  0  0  0  0  0  0999 V2000
   25.9527    8.1613   54.6614 C   0  0  0  0  0  0  0  0  0  0  0  0
   24.6015    7.8932   54.3325 C   0  0  0  0  0  0  0  0  0  0  0  0
   23.4844    8.5843   54.9976 C   0  0  0  0  0  0  0  0  0  0  0  0
   23.7712    9.4556   55.9340 C   0  0  0  0  0  0  0  0  0  0  0  0
   25.1034    9.7187   56.3440 C   0  0  0  0  0  0  0  0  0  0  0  0
   26.0671    9.0945   55.7234 C   0  0  0  0  0  0  0  0  0  0  0  0
   22.2672    8.4113   54.2022 C   0  0  0  0  0  0  0  0  0  0  0  0
   21.7798    7.0658   53.9805 C   0  0  0  0  0  0  0  0  0  0  0  0
   21.0085    6.7416   52.8851 N   0  0  0  0  0  0  0  0  0  0  0  0
   20.5396    5.4578   52.5592 C   0  0  0  0  0  0  0  0  0  0  0  0
   20.8314    7.8099   52.1609 C   0  0  0  0  0  0  0  0  0  0  0  0
   20.0283    7.3951   51.0555 O   0  0  0  0  0  0  0  0  0  0  0  0
   21.1068    9.0299   52.0790 C   0  0  0  0  0  0  0  0  0  0  0  0
   20.7350    9.9536   51.0828 C   0  0  0  0  0  0  0  0  0  0  0  0
   21.3027   11.2946   51.4704 C   0  0  0  0  0  0  0  0  0  0  0  0
   21.9422   11.5579   52.4092 C   0  0  0  0  0  0  0  0  0  0  0  0
   22.3558   10.6410   53.4499 C   0  0  0  0  0  0  0  0  0  0  0  0
   21.9344    9.4159   53.2582 C   0  0  0  0  0  0  0  0  0  0  0  0
   28.1826    7.3511   53.7056 C   0  0  0  0  0  0  0  0  0  0  0  0
   27.0528    7.7311   54.1397 O   0  0  0  0  0  0  0  0  0  0  0  0
   22.7743   10.2269   56.5891 O   0  0  0  0  0  0  0  0  0  0  0  0
   21.4906    9.8758   56.0632 C   0  0  0  0  0  0  0  0  0  0  0  0
   27.5080    9.3906   56.0025 C   0  0  0  0  0  0  0  0  0  0  0  0
   28.0018    9.8805   57.1750 N   0  0  0  0  0  0  0  0  0  0  0  0
   27.9931    8.8519   58.1934 C   0  0  0  0  0  0  0  0  0  0  0  0
   28.2539   11.1252   57.6452 C   0  0  0  0  0  0  0  0  0  0  0  0
 19 20  1  0  0  0
 20  1  1  0  0  0
  1  2  2  0  0  0
  2  3  1  0  0  0
  3  7  1  0  0  0
  7  8  2  0  0  0
  8  9  1  0  0  0
  9 10  1  0  0  0
  9 11  1  0  0  0
 11 12  2  0  0  0
 11 13  1  0  0  0
 13 14  2  0  0  0
 14 15  1  0  0  0
 15 16  2  0  0  0
 16 17  1  0  0  0
 17 18  2  0  0  0
  3  4  2  0  0  0
  4 21  1  0  0  0
 21 22  1  0  0  0
  4  5  1  0  0  0
  5  6  2  0  0  0
  6 23  1  0  0  0
 23 24  1  0  0  0
 24 25  1  0  0  0
 24 26  1  0  0  0
  6  1  1  0  0  0
 18  7  1  0  0  0
 18 13  1  0  0  0
M  END
> <minimizedAffinity>
10.73362

> <CNNscore>
0.6602019668

> <CNNaffinity>
6.1436777115

> <CNN_VS>
4.0560679436

> <CNNaffinity_variance>
0.2771361470

$$$$
[H]c1c(OC([H])([H])[H])c(C([H])([H])N(C([H])([H])[H])C([H])([H])[H])c([H])c(OC([H])([H])[H])c1-c1c([H])n(C([H])([H])[H])c(=O)c2c([H])c([H])c([H])c([H])c12


 26 28  0  0  0  0  0  0  0  0999 V2000
   22.5091    9.9955   54.3602 C   0  0  0  0  0  0  0  0  0  0  0  0
   23.6675    9.8806   55.1667 C   0  0  0  0  0  0  0  0  0  0  0  0
   24.3002    8.5801   55.4434 C   0  0  0  0  0  0  0  0  0  0  0  0
   23.7460    7.5067   54.9344 C   0  0  0  0  0  0  0  0  0  0  0  0
   22.5525    7.5583   54.1696 C   0  0  0  0  0  0  0  0  0  0  0  0
   22.0275    8.7303   53.9368 C   0  0  0  0  0  0  0  0  0  0  0  0
   25.6578    8.8005   55.9457 C   0  0  0  0  0  0  0  0  0  0  0  0
   25.8656    9.8537   56.9177 C   0  0  0  0  0  0  0  0  0  0  0  0
   27.0844   10.4806   57.0634 N   0  0  0  0  0  0  0  0  0  0  0  0
   27.3634   11.5455   57.9365 C   0  0  0  0  0  0  0  0  0  0  0  0
   27.9287    9.9670   56.2146 C   0  0  0  0  0  0  0  0  0  0  0  0
   29.1576   10.6625   56.4275 O   0  0  0  0  0  0  0  0  0  0  0  0
   28.0501    9.1165   55.3020 C   0  0  0  0  0  0  0  0  0  0  0  0
   29.1858    8.8089   54.5277 C   0  0  0  0  0  0  0  0  0  0  0  0
   28.8078    7.6932   53.5880 C   0  0  0  0  0  0  0  0  0  0  0  0
   27.7751    7.1614   53.4855 C   0  0  0  0  0  0  0  0  0  0  0  0
   26.5812    7.4516   54.2506 C   0  0  0  0  0  0  0  0  0  0  0  0
   26.7477    8.4114   55.1260 C   0  0  0  0  0  0  0  0  0  0  0  0
   21.2964   12.1122   53.5914 C   0  0  0  0  0  0  0  0  0  0  0  0
   21.8704   11.0355   53.9385 O   0  0  0  0  0  0  0  0  0  0  0  0
   24.3131    6.2127   55.0819 O   0  0  0  0  0  0  0  0  0  0  0  0
   23.6876    5.3195   54.1552 C   0  0  0  0  0  0  0  0  0  0  0  0
   20.8372    8.8991   53.0443 C   0  0  0  0  0  0  0  0  0  0  0  0
   20.4331    8.0141   52.0894 N   0  0  0  0  0  0  0  0  0  0  0  0
   19.9303    6.8044   52.7051 C   0  0  0  0  0  0  0  0  0  0  0  0
   20.6203    7.9196   50.7516 C   0  0  0  0  0  0  0  0  0  0  0  0
 19 20  1  0  0  0
 20  1  1  0  0  0
  1  2  2  0  0  0
  2  3  1  0  0  0
  3  7  1  0  0  0
  7  8  2  0  0  0
  8  9  1  0  0  0
  9 10  1  0  0  0
  9 11  1  0  0  0
 11 12  2  0  0  0
 11 13  1  0  0  0
 13 14  2  0  0  0
 14 15  1  0  0  0
 15 16  2  0  0  0
 16 17  1  0  0  0
 17 18  2  0  0  0
  3  4  2  0  0  0
  4 21  1  0  0  0
 21 22  1  0  0  0
  4  5  1  0  0  0
  5  6  2  0  0  0
  6 23  1  0  0  0
 23 24  1  0  0  0
 24 25  1  0  0  0
 24 26  1  0  0  0
  6  1  1  0  0  0
 18  7  1  0  0  0
 18 13  1  0  0  0
M  END
> <minimizedAffinity>
23.03926

> <CNNscore>
0.6090234518

> <CNNaffinity>
5.6773443222

> <CNN_VS>
3.4576358795

> <CNNaffinity_variance>
0.4376464784

$$$$
[H]c1c(OC([H])([H])[H])c(C([H])([H])N(C([H])([H])[H])C([H])([H])[H])c([H])c(OC([H])([H])[H])c1-c1c([H])n(C([H])([H])[H])c(=O)c2c([H])c([H])c([H])c([H])c12


 26 28  0  0  0  0  0  0  0  0999 V2000
   22.4795    9.4521   54.7069 C   0  0  0  0  0  0  0  0  0  0  0  0
   23.7880    9.2988   55.2265 C   0  0  0  0  0  0  0  0  0  0  0  0
   24.4946    8.0074   55.1937 C   0  0  0  0  0  0  0  0  0  0  0  0
   23.8669    6.9766   54.6819 C   0  0  0  0  0  0  0  0  0  0  0  0
   22.5347    7.0604   54.2021 C   0  0  0  0  0  0  0  0  0  0  0  0
   21.9456    8.2245   54.2381 C   0  0  0  0  0  0  0  0  0  0  0  0
   25.9237    8.2328   55.4189 C   0  0  0  0  0  0  0  0  0  0  0  0
   26.3566    8.6061   56.7495 C   0  0  0  0  0  0  0  0  0  0  0  0
   27.5157    9.3201   56.9651 N   0  0  0  0  0  0  0  0  0  0  0  0
   27.9842    9.7731   58.2099 C   0  0  0  0  0  0  0  0  0  0  0  0
   28.0827    9.5631   55.8177 C   0  0  0  0  0  0  0  0  0  0  0  0
   29.2679   10.2985   56.1238 O   0  0  0  0  0  0  0  0  0  0  0  0
   27.9669    9.3988   54.5806 C   0  0  0  0  0  0  0  0  0  0  0  0
   28.8199    9.8363   53.5486 C   0  0  0  0  0  0  0  0  0  0  0  0
   28.2400    9.3551   52.2436 C   0  0  0  0  0  0  0  0  0  0  0  0
   27.2645    8.7383   52.0770 C   0  0  0  0  0  0  0  0  0  0  0  0
   26.3548    8.2780   53.1043 C   0  0  0  0  0  0  0  0  0  0  0  0
   26.7243    8.6184   54.3137 C   0  0  0  0  0  0  0  0  0  0  0  0
   21.1018   11.5875   54.4160 C   0  0  0  0  0  0  0  0  0  0  0  0
   21.7414   10.5023   54.5673 O   0  0  0  0  0  0  0  0  0  0  0  0
   24.4813    5.7038   54.5388 O   0  0  0  0  0  0  0  0  0  0  0  0
   24.0450    5.1091   53.3125 C   0  0  0  0  0  0  0  0  0  0  0  0
   20.5861    8.4400   53.6488 C   0  0  0  0  0  0  0  0  0  0  0  0
   20.1201    7.8644   52.5043 N   0  0  0  0  0  0  0  0  0  0  0  0
   19.4779    6.6017   52.8014 C   0  0  0  0  0  0  0  0  0  0  0  0
   20.3346    8.0812   51.1849 C   0  0  0  0  0  0  0  0  0  0  0  0
 19 20  1  0  0  0
 20  1  1  0  0  0
  1  2  2  0  0  0
  2  3  1  0  0  0
  3  7  1  0  0  0
  7  8  2  0  0  0
  8  9  1  0  0  0
  9 10  1  0  0  0
  9 11  1  0  0  0
 11 12  2  0  0  0
 11 13  1  0  0  0
 13 14  2  0  0  0
 14 15  1  0  0  0
 15 16  2  0  0  0
 16 17  1  0  0  0
 17 18  2  0  0  0
  3  4  2  0  0  0
  4 21  1  0  0  0
 21 22  1  0  0  0
  4  5  1  0  0  0
  5  6  2  0  0  0
  6 23  1  0  0  0
 23 24  1  0  0  0
 24 25  1  0  0  0
 24 26  1  0  0  0
  6  1  1  0  0  0
 18  7  1  0  0  0
 18 13  1  0  0  0
M  END
> <minimizedAffinity>
21.72940

> <CNNscore>
0.5867637992

> <CNNaffinity>
5.6743617058

> <CNN_VS>
3.3295099735

> <CNNaffinity_variance>
0.3490490317

$$$$
[H]c1c(OC([H])([H])[H])c(C([H])([H])N(C([H])([H])[H])C([H])([H])[H])c([H])c(OC([H])([H])[H])c1-c1c([H])n(C([H])([H])[H])c(=O)c2c([H])c([H])c([H])c([H])c12


 26 28  0  0  0  0  0  0  0  0999 V2000
   26.6863    8.4498   54.8104 C   0  0  0  0  0  0  0  0  0  0  0  0
   25.4188    8.0232   54.3443 C   0  0  0  0  0  0  0  0  0  0  0  0
   24.1680    8.4161   55.0144 C   0  0  0  0  0  0  0  0  0  0  0  0
   24.2545    9.1674   56.0851 C   0  0  0  0  0  0  0  0  0  0  0  0
   25.4999    9.5736   56.6290 C   0  0  0  0  0  0  0  0  0  0  0  0
   26.5861    9.2145   56.0008 C   0  0  0  0  0  0  0  0  0  0  0  0
   23.0403    8.1755   54.1119 C   0  0  0  0  0  0  0  0  0  0  0  0
   22.9043    6.8600   53.5218 C   0  0  0  0  0  0  0  0  0  0  0  0
   22.2493    6.6624   52.3253 N   0  0  0  0  0  0  0  0  0  0  0  0
   22.1170    5.4363   51.6518 C   0  0  0  0  0  0  0  0  0  0  0  0
   21.8204    7.8101   51.8828 C   0  0  0  0  0  0  0  0  0  0  0  0
   21.1572    7.5229   50.6513 O   0  0  0  0  0  0  0  0  0  0  0  0
   21.7855    9.0379   52.1323 C   0  0  0  0  0  0  0  0  0  0  0  0
   21.2068   10.0759   51.3761 C   0  0  0  0  0  0  0  0  0  0  0  0
   21.4199   11.3626   52.1310 C   0  0  0  0  0  0  0  0  0  0  0  0
   21.9641   11.5133   53.1513 C   0  0  0  0  0  0  0  0  0  0  0  0
   22.5810   10.4799   53.9551 C   0  0  0  0  0  0  0  0  0  0  0  0
   22.4788    9.2847   53.4295 C   0  0  0  0  0  0  0  0  0  0  0  0
   29.0112    8.2046   53.7725 C   0  0  0  0  0  0  0  0  0  0  0  0
   27.8687    8.2864   54.3180 O   0  0  0  0  0  0  0  0  0  0  0  0
   23.1089    9.6594   56.7660 O   0  0  0  0  0  0  0  0  0  0  0  0
   21.9785    8.8516   56.4234 C   0  0  0  0  0  0  0  0  0  0  0  0
   27.9396    9.6904   56.4286 C   0  0  0  0  0  0  0  0  0  0  0  0
   28.1801   10.6631   57.3531 N   0  0  0  0  0  0  0  0  0  0  0  0
   27.8526   11.9646   56.8108 C   0  0  0  0  0  0  0  0  0  0  0  0
   28.8606   10.7045   58.5231 C   0  0  0  0  0  0  0  0  0  0  0  0
 19 20  1  0  0  0
 20  1  1  0  0  0
  1  2  2  0  0  0
  2  3  1  0  0  0
  3  7  1  0  0  0
  7  8  2  0  0  0
  8  9  1  0  0  0
  9 10  1  0  0  0
  9 11  1  0  0  0
 11 12  2  0  0  0
 11 13  1  0  0  0
 13 14  2  0  0  0
 14 15  1  0  0  0
 15 16  2  0  0  0
 16 17  1  0  0  0
 17 18  2  0  0  0
  3  4  2  0  0  0
  4 21  1  0  0  0
 21 22  1  0  0  0
  4  5  1  0  0  0
  5  6  2  0  0  0
  6 23  1  0  0  0
 23 24  1  0  0  0
 24 25  1  0  0  0
 24 26  1  0  0  0
  6  1  1  0  0  0
 18  7  1  0  0  0
 18 13  1  0  0  0
M  END
> <minimizedAffinity>
21.21824

> <CNNscore>
0.5838495493

> <CNNaffinity>
5.7729163170

> <CNN_VS>
3.3705146313

> <CNNaffinity_variance>
0.3084654808

$$$$
[H]c1c(OC([H])([H])[H])c(C([H])([H])N(C([H])([H])[H])C([H])([H])[H])c([H])c(OC([H])([H])[H])c1-c1c([H])n(C([H])([H])[H])c(=O)c2c([H])c([H])c([H])c([H])c12


 26 28  0  0  0  0  0  0  0  0999 V2000
   26.7190   10.4796   56.3962 C   0  0  0  0  0  0  0  0  0  0  0  0
   25.5286   10.3161   55.6465 C   0  0  0  0  0  0  0  0  0  0  0  0
   25.3195    9.1628   54.7554 C   0  0  0  0  0  0  0  0  0  0  0  0
   26.2858    8.2830   54.6523 C   0  0  0  0  0  0  0  0  0  0  0  0
   27.5211    8.4287   55.3339 C   0  0  0  0  0  0  0  0  0  0  0  0
   27.6647    9.4585   56.1229 C   0  0  0  0  0  0  0  0  0  0  0  0
   23.8945    9.0495   54.4383 C   0  0  0  0  0  0  0  0  0  0  0  0
   22.9879   10.0284   55.0014 C   0  0  0  0  0  0  0  0  0  0  0  0
   21.6541    9.7509   55.2100 N   0  0  0  0  0  0  0  0  0  0  0  0
   20.7158   10.6146   55.7999 C   0  0  0  0  0  0  0  0  0  0  0  0
   21.4106    8.5300   54.8264 C   0  0  0  0  0  0  0  0  0  0  0  0
   20.0194    8.3212   55.0713 O   0  0  0  0  0  0  0  0  0  0  0  0
   21.9377    7.5007   54.3430 C   0  0  0  0  0  0  0  0  0  0  0  0
   21.3408    6.2598   54.0462 C   0  0  0  0  0  0  0  0  0  0  0  0
   22.4062    5.3709   53.4584 C   0  0  0  0  0  0  0  0  0  0  0  0
   23.5294    5.6242   53.2739 C   0  0  0  0  0  0  0  0  0  0  0  0
   24.1860    6.8790   53.5727 C   0  0  0  0  0  0  0  0  0  0  0  0
   23.3831    7.7720   54.0952 C   0  0  0  0  0  0  0  0  0  0  0  0
   27.4458   12.2549   58.0880 C   0  0  0  0  0  0  0  0  0  0  0  0
   27.0482   11.3601   57.2814 O   0  0  0  0  0  0  0  0  0  0  0  0
   26.1604    7.1002   53.8758 O   0  0  0  0  0  0  0  0  0  0  0  0
   27.4654    6.5839   53.5960 C   0  0  0  0  0  0  0  0  0  0  0  0
   28.8836    9.6373   56.9739 C   0  0  0  0  0  0  0  0  0  0  0  0
   28.8829    9.8749   58.3163 N   0  0  0  0  0  0  0  0  0  0  0  0
   28.2256    8.7931   59.0184 C   0  0  0  0  0  0  0  0  0  0  0  0
   29.1274   10.9654   59.0809 C   0  0  0  0  0  0  0  0  0  0  0  0
 19 20  1  0  0  0
 20  1  1  0  0  0
  1  2  2  0  0  0
  2  3  1  0  0  0
  3  7  1  0  0  0
  7  8  2  0  0  0
  8  9  1  0  0  0
  9 10  1  0  0  0
  9 11  1  0  0  0
 11 12  2  0  0  0
 11 13  1  0  0  0
 13 14  2  0  0  0
 14 15  1  0  0  0
 15 16  2  0  0  0
 16 17  1  0  0  0
 17 18  2  0  0  0
  3  4  2  0  0  0
  4 21  1  0  0  0
 21 22  1  0  0  0
  4  5  1  0  0  0
  5  6  2  0  0  0
  6 23  1  0  0  0
 23 24  1  0  0  0
 24 25  1  0  0  0
 24 26  1  0  0  0
  6  1  1  0  0  0
 18  7  1  0  0  0
 18 13  1  0  0  0
M  END
> <minimizedAffinity>
19.94057

> <CNNscore>
0.5729634166

> <CNNaffinity>
5.6389265060

> <CNN_VS>
3.2308986187

> <CNNaffinity_variance>
0.1480664909

$$$$
[H]c1c(OC([H])([H])[H])c(C([H])([H])N(C([H])([H])[H])C([H])([H])[H])c([H])c(OC([H])([H])[H])c1-c1c([H])n(C([H])([H])[H])c(=O)c2c([H])c([H])c([H])c([H])c12


 26 28  0  0  0  0  0  0  0  0999 V2000
   22.6265    8.8157   53.4004 C   0  0  0  0  0  0  0  0  0  0  0  0
   23.8554    8.9131   54.0977 C   0  0  0  0  0  0  0  0  0  0  0  0
   24.4366    7.7684   54.8188 C   0  0  0  0  0  0  0  0  0  0  0  0
   23.7696    6.6399   54.8193 C   0  0  0  0  0  0  0  0  0  0  0  0
   22.5068    6.5041   54.1879 C   0  0  0  0  0  0  0  0  0  0  0  0
   22.0295    7.5378   53.5498 C   0  0  0  0  0  0  0  0  0  0  0  0
   25.8504    8.0358   55.0900 C   0  0  0  0  0  0  0  0  0  0  0  0
   26.2411    8.3382   56.4514 C   0  0  0  0  0  0  0  0  0  0  0  0
   27.3650    9.0824   56.7386 N   0  0  0  0  0  0  0  0  0  0  0  0
   27.7897    9.4713   58.0202 C   0  0  0  0  0  0  0  0  0  0  0  0
   27.9440    9.4228   55.6223 C   0  0  0  0  0  0  0  0  0  0  0  0
   29.0914   10.1835   56.0017 O   0  0  0  0  0  0  0  0  0  0  0  0
   27.8596    9.3354   54.3748 C   0  0  0  0  0  0  0  0  0  0  0  0
   28.7138    9.8736   53.3927 C   0  0  0  0  0  0  0  0  0  0  0  0
   28.1802    9.4561   52.0467 C   0  0  0  0  0  0  0  0  0  0  0  0
   27.2347    8.8129   51.8187 C   0  0  0  0  0  0  0  0  0  0  0  0
   26.3248    8.2500   52.7934 C   0  0  0  0  0  0  0  0  0  0  0  0
   26.6559    8.5250   54.0303 C   0  0  0  0  0  0  0  0  0  0  0  0
   21.3561   10.5360   51.9972 C   0  0  0  0  0  0  0  0  0  0  0  0
   22.0087    9.6659   52.6502 O   0  0  0  0  0  0  0  0  0  0  0  0
   24.2725    5.4573   55.4245 O   0  0  0  0  0  0  0  0  0  0  0  0
   23.2717    4.9133   56.2907 C   0  0  0  0  0  0  0  0  0  0  0  0
   20.7632    7.4593   52.7549 C   0  0  0  0  0  0  0  0  0  0  0  0
   19.8001    6.5045   52.8939 N   0  0  0  0  0  0  0  0  0  0  0  0
   18.5131    7.1199   53.1388 C   0  0  0  0  0  0  0  0  0  0  0  0
   19.8220    5.1652   53.0930 C   0  0  0  0  0  0  0  0  0  0  0  0
 19 20  1  0  0  0
 20  1  1  0  0  0
  1  2  2  0  0  0
  2  3  1  0  0  0
  3  7  1  0  0  0
  7  8  2  0  0  0
  8  9  1  0  0  0
  9 10  1  0  0  0
  9 11  1  0  0  0
 11 12  2  0  0  0
 11 13  1  0  0  0
 13 14  2  0  0  0
 14 15  1  0  0  0
 15 16  2  0  0  0
 16 17  1  0  0  0
 17 18  2  0  0  0
  3  4  2  0  0  0
  4 21  1  0  0  0
 21 22  1  0  0  0
  4  5  1  0  0  0
  5  6  2  0  0  0
  6 23  1  0  0  0
 23 24  1  0  0  0
 24 25  1  0  0  0
 24 26  1  0  0  0
  6  1  1  0  0  0
 18  7  1  0  0  0
 18 13  1  0  0  0
M  END
> <minimizedAffinity>
25.55364

> <CNNscore>
0.5697222948

> <CNNaffinity>
5.7772755623

> <CNN_VS>
3.2914426327

> <CNNaffinity_variance>
0.4022189677

$$$$
[H]c1c(OC([H])([H])[H])c(C([H])([H])N(C([H])([H])[H])C([H])([H])[H])c([H])c(OC([H])([H])[H])c1-c1c([H])n(C([H])([H])[H])c(=O)c2c([H])c([H])c([H])c([H])c12


 26 28  0  0  0  0  0  0  0  0999 V2000
   23.3896    7.4876   53.0671 C   0  0  0  0  0  0  0  0  0  0  0  0
   24.4962    8.0113   53.7791 C   0  0  0  0  0  0  0  0  0  0  0  0
   24.3341    9.0079   54.8508 C   0  0  0  0  0  0  0  0  0  0  0  0
   23.1216    9.4243   55.1241 C   0  0  0  0  0  0  0  0  0  0  0  0
   21.9849    8.9779   54.4026 C   0  0  0  0  0  0  0  0  0  0  0  0
   22.1676    8.0863   53.4672 C   0  0  0  0  0  0  0  0  0  0  0  0
   25.5588    9.0596   55.6517 C   0  0  0  0  0  0  0  0  0  0  0  0
   25.6702   10.0865   56.6668 C   0  0  0  0  0  0  0  0  0  0  0  0
   26.8925   10.5558   57.0972 N   0  0  0  0  0  0  0  0  0  0  0  0
   27.0966   11.5845   58.0323 C   0  0  0  0  0  0  0  0  0  0  0  0
   27.8367    9.9325   56.4513 C   0  0  0  0  0  0  0  0  0  0  0  0
   29.0620   10.4693   56.9509 O   0  0  0  0  0  0  0  0  0  0  0  0
   28.0550    9.0658   55.5727 C   0  0  0  0  0  0  0  0  0  0  0  0
   29.2894    8.6106   55.0696 C   0  0  0  0  0  0  0  0  0  0  0  0
   28.9984    7.5435   54.0461 C   0  0  0  0  0  0  0  0  0  0  0  0
   27.9579    7.1454   53.7018 C   0  0  0  0  0  0  0  0  0  0  0  0
   26.6673    7.5905   54.1825 C   0  0  0  0  0  0  0  0  0  0  0  0
   26.7491    8.5291   55.0922 C   0  0  0  0  0  0  0  0  0  0  0  0
   23.3315    5.6039   51.3377 C   0  0  0  0  0  0  0  0  0  0  0  0
   23.3210    6.5604   52.1711 O   0  0  0  0  0  0  0  0  0  0  0  0
   22.8471   10.3302   56.1833 O   0  0  0  0  0  0  0  0  0  0  0  0
   21.4310   10.5034   56.2953 C   0  0  0  0  0  0  0  0  0  0  0  0
   21.0200    7.4675   52.7311 C   0  0  0  0  0  0  0  0  0  0  0  0
   20.4102    6.2935   53.0603 N   0  0  0  0  0  0  0  0  0  0  0  0
   18.9713    6.4416   53.0070 C   0  0  0  0  0  0  0  0  0  0  0  0
   20.8288    5.1440   53.6410 C   0  0  0  0  0  0  0  0  0  0  0  0
 19 20  1  0  0  0
 20  1  1  0  0  0
  1  2  2  0  0  0
  2  3  1  0  0  0
  3  7  1  0  0  0
  7  8  2  0  0  0
  8  9  1  0  0  0
  9 10  1  0  0  0
  9 11  1  0  0  0
 11 12  2  0  0  0
 11 13  1  0  0  0
 13 14  2  0  0  0
 14 15  1  0  0  0
 15 16  2  0  0  0
 16 17  1  0  0  0
 17 18  2  0  0  0
  3  4  2  0  0  0
  4 21  1  0  0  0
 21 22  1  0  0  0
  4  5  1  0  0  0
  5  6  2  0  0  0
  6 23  1  0  0  0
 23 24  1  0  0  0
 24 25  1  0  0  0
 24 26  1  0  0  0
  6  1  1  0  0  0
 18  7  1  0  0  0
 18 13  1  0  0  0
M  END
> <minimizedAffinity>
29.09027

> <CNNscore>
0.5547754169

> <CNNaffinity>
5.4687471390

> <CNN_VS>
3.0339264870

> <CNNaffinity_variance>
0.3278020918

$$$$
[H]c1c(OC([H])([H])[H])c(C([H])([H])N(C([H])([H])[H])C([H])([H])[H])c([H])c(OC([H])([H])[H])c1-c1c([H])n(C([H])([H])[H])c(=O)c2c([H])c([H])c([H])c([H])c12


 26 28  0  0  0  0  0  0  0  0999 V2000
   23.1776    6.7730   53.9397 C   0  0  0  0  0  0  0  0  0  0  0  0
   24.3776    7.3747   54.3913 C   0  0  0  0  0  0  0  0  0  0  0  0
   24.4032    8.7304   54.9651 C   0  0  0  0  0  0  0  0  0  0  0  0
   23.2727    9.3906   55.0319 C   0  0  0  0  0  0  0  0  0  0  0  0
   22.0530    8.8594   54.5400 C   0  0  0  0  0  0  0  0  0  0  0  0
   22.0685    7.6504   54.0484 C   0  0  0  0  0  0  0  0  0  0  0  0
   25.6602    8.9242   55.6906 C   0  0  0  0  0  0  0  0  0  0  0  0
   25.7433   10.0182   56.6359 C   0  0  0  0  0  0  0  0  0  0  0  0
   26.9458   10.6043   56.9680 N   0  0  0  0  0  0  0  0  0  0  0  0
   27.1170   11.7020   57.8282 C   0  0  0  0  0  0  0  0  0  0  0  0
   27.9010   10.0146   56.3070 C   0  0  0  0  0  0  0  0  0  0  0  0
   29.1048   10.6723   56.7038 O   0  0  0  0  0  0  0  0  0  0  0  0
   28.1406    9.1133   55.4695 C   0  0  0  0  0  0  0  0  0  0  0  0
   29.3790    8.7217   54.9245 C   0  0  0  0  0  0  0  0  0  0  0  0
   29.1197    7.5737   53.9834 C   0  0  0  0  0  0  0  0  0  0  0  0
   28.0972    7.0776   53.7227 C   0  0  0  0  0  0  0  0  0  0  0  0
   26.8024    7.4535   54.2492 C   0  0  0  0  0  0  0  0  0  0  0  0
   26.8576    8.4508   55.0963 C   0  0  0  0  0  0  0  0  0  0  0  0
   22.7738    4.3806   53.1299 C   0  0  0  0  0  0  0  0  0  0  0  0
   22.9414    5.5838   53.4956 O   0  0  0  0  0  0  0  0  0  0  0  0
   23.1742   10.6755   55.6297 O   0  0  0  0  0  0  0  0  0  0  0  0
   21.8033   11.0858   55.6332 C   0  0  0  0  0  0  0  0  0  0  0  0
   20.8139    6.9590   53.6129 C   0  0  0  0  0  0  0  0  0  0  0  0
   20.0878    7.2650   52.5004 N   0  0  0  0  0  0  0  0  0  0  0  0
   20.9156    7.9534   51.5329 C   0  0  0  0  0  0  0  0  0  0  0  0
   18.7642    7.2888   52.2154 C   0  0  0  0  0  0  0  0  0  0  0  0
 19 20  1  0  0  0
 20  1  1  0  0  0
  1  2  2  0  0  0
  2  3  1  0  0  0
  3  7  1  0  0  0
  7  8  2  0  0  0
  8  9  1  0  0  0
  9 10  1  0  0  0
  9 11  1  0  0  0
 11 12  2  0  0  0
 11 13  1  0  0  0
 13 14  2  0  0  0
 14 15  1  0  0  0
 15 16  2  0  0  0
 16 17  1  0  0  0
 17 18  2  0  0  0
  3  4  2  0  0  0
  4 21  1  0  0  0
 21 22  1  0  0  0
  4  5  1  0  0  0
  5  6  2  0  0  0
  6 23  1  0  0  0
 23 24  1  0  0  0
 24 25  1  0  0  0
 24 26  1  0  0  0
  6  1  1  0  0  0
 18  7  1  0  0  0
 18 13  1  0  0  0
M  END
> <minimizedAffinity>
27.11490

> <CNNscore>
0.5511541963

> <CNNaffinity>
5.4730796814

> <CNN_VS>
3.0165107250

> <CNNaffinity_variance>
0.2686457336

$$$$
[H]c1nc([H])c(N([H])C(=O)c2nn(-c3c([H])c([H])c([H])c([H])c3Cl)c(-c3c([H])c([H])c(Cl)c([H])c3[H])c2C([H])([H])C(=O)N([H])[H])c(C([H])([H])[H])c1[H]


 36 39  0  0  0  0  0  0  0  0999 V2000
   22.3366    9.4264   53.1974 C   0  0  0  0  0  0  0  0  0  0  0  0
   23.6721    9.4265   53.3281 N   0  0  0  0  0  0  0  0  0  0  0  0
   24.0925    8.3540   54.0104 N   0  0  0  0  0  0  0  0  0  0  0  0
   23.0126    7.5887   54.3622 C   0  0  0  0  0  0  0  0  0  0  0  0
   21.9251    8.2637   53.8486 C   0  0  0  0  0  0  0  0  0  0  0  0
   25.4658    8.1801   54.2887 C   0  0  0  0  0  0  0  0  0  0  0  0
   26.2411    7.3905   53.4720 C   0  0  0  0  0  0  0  0  0  0  0  0
   27.5984    7.1831   53.7456 C   0  0  0  0  0  0  0  0  0  0  0  0
   28.1903    7.7721   54.8498 C   0  0  0  0  0  0  0  0  0  0  0  0
   27.4123    8.5596   55.6623 C   0  0  0  0  0  0  0  0  0  0  0  0
   26.0788    8.7633   55.3938 C   0  0  0  0  0  0  0  0  0  0  0  0
   25.0759    9.7638   56.4198 Cl  0  0  0  0  0  0  0  0  0  0  0  0
   23.0622    6.4265   55.2353 C   0  0  0  0  0  0  0  0  0  0  0  0
   24.0290    5.4540   55.1970 C   0  0  0  0  0  0  0  0  0  0  0  0
   24.1334    4.4063   56.1031 C   0  0  0  0  0  0  0  0  0  0  0  0
   23.2171    4.3093   57.1191 C   0  0  0  0  0  0  0  0  0  0  0  0
   23.3702    2.9821   58.2458 Cl  0  0  0  0  0  0  0  0  0  0  0  0
   22.2345    5.2445   57.2066 C   0  0  0  0  0  0  0  0  0  0  0  0
   22.1462    6.2938   56.2855 C   0  0  0  0  0  0  0  0  0  0  0  0
   21.6202   11.7743   52.9792 N   0  0  0  0  0  0  0  0  0  0  0  0
   21.5293   10.4442   52.5194 C   0  0  0  0  0  0  0  0  0  0  0  0
   20.7989   10.1374   51.5794 O   0  0  0  0  0  0  0  0  0  0  0  0
   22.2956   11.9100   53.8070 H   0  0  0  0  0  0  0  0  0  0  0  0
   22.2237   12.5919   50.3939 C   0  0  0  0  0  0  0  0  0  0  0  0
   21.2430   13.3462   51.1949 C   0  0  0  0  0  0  0  0  0  0  0  0
   20.6270   14.4562   50.6526 C   0  0  0  0  0  0  0  0  0  0  0  0
   19.7115   15.1877   51.3673 C   0  0  0  0  0  0  0  0  0  0  0  0
   19.4479   14.7730   52.6089 N   0  0  0  0  0  0  0  0  0  0  0  0
   20.0419   13.6754   53.1766 C   0  0  0  0  0  0  0  0  0  0  0  0
   20.9604   12.9152   52.5029 C   0  0  0  0  0  0  0  0  0  0  0  0
   20.4900    7.8402   53.8531 C   0  0  0  0  0  0  0  0  0  0  0  0
   20.3407    6.8397   52.7263 C   0  0  0  0  0  0  0  0  0  0  0  0
   20.2634    5.4802   53.0740 N   0  0  0  0  0  0  0  0  0  0  0  0
   20.2885    7.2014   51.5451 O   0  0  0  0  0  0  0  0  0  0  0  0
   20.9912    4.9829   53.6644 H   0  0  0  0  0  0  0  0  0  0  0  0
   19.4665    4.8444   52.7706 H   0  0  0  0  0  0  0  0  0  0  0  0
 24 25  1  0  0  0
 25 26  2  0  0  0
 26 27  1  0  0  0
 27 28  2  0  0  0
 28 29  1  0  0  0
 29 30  2  0  0  0
 30 20  1  0  0  0
 20 21  1  0  0  0
 21 22  2  0  0  0
 21  1  1  0  0  0
  1  2  2  0  0  0
  2  3  1  0  0  0
  3  6  1  0  0  0
  6  7  2  0  0  0
  7  8  1  0  0  0
  8  9  2  0  0  0
  9 10  1  0  0  0
 10 11  2  0  0  0
 11 12  1  0  0  0
  3  4  1  0  0  0
  4 13  1  0  0  0
 13 14  2  0  0  0
 14 15  1  0  0  0
 15 16  2  0  0  0
 16 17  1  0  0  0
 16 18  1  0  0  0
 18 19  2  0  0  0
  4  5  2  0  0  0
  5 31  1  0  0  0
 31 32  1  0  0  0
 32 33  1  0  0  0
 32 34  2  0  0  0
 30 25  1  0  0  0
  5  1  1  0  0  0
 11  6  1  0  0  0
 19 13  1  0  0  0
 20 23  1  0  0  0
 33 35  1  0  0  0
 33 36  1  0  0  0
M  END
> <minimizedAffinity>
34.47908

> <CNNscore>
0.5047206283

> <CNNaffinity>
6.5764861107

> <CNN_VS>
3.3192882538

> <CNNaffinity_variance>
0.4878947139

$$$$
[H]c1nc([H])c(N([H])C(=O)c2nn(-c3c([H])c([H])c([H])c([H])c3Cl)c(-c3c([H])c([H])c(Cl)c([H])c3[H])c2C([H])([H])C(=O)N([H])[H])c(C([H])([H])[H])c1[H]


 36 39  0  0  0  0  0  0  0  0999 V2000
   20.6232    6.5223   53.2716 C   0  0  0  0  0  0  0  0  0  0  0  0
   20.4387    7.7917   52.8778 N   0  0  0  0  0  0  0  0  0  0  0  0
   21.5585    8.5115   53.0210 N   0  0  0  0  0  0  0  0  0  0  0  0
   22.5482    7.7133   53.5302 C   0  0  0  0  0  0  0  0  0  0  0  0
   21.9561    6.4767   53.6795 C   0  0  0  0  0  0  0  0  0  0  0  0
   21.5691    9.8851   52.6946 C   0  0  0  0  0  0  0  0  0  0  0  0
   21.6036   10.2815   51.3781 C   0  0  0  0  0  0  0  0  0  0  0  0
   21.6420   11.6380   51.0335 C   0  0  0  0  0  0  0  0  0  0  0  0
   21.6462   12.6125   52.0168 C   0  0  0  0  0  0  0  0  0  0  0  0
   21.6117   12.2120   53.3298 C   0  0  0  0  0  0  0  0  0  0  0  0
   21.5741   10.8794   53.6684 C   0  0  0  0  0  0  0  0  0  0  0  0
   21.5297   10.3547   55.3364 Cl  0  0  0  0  0  0  0  0  0  0  0  0
   23.8581    8.1785   53.9580 C   0  0  0  0  0  0  0  0  0  0  0  0
   24.1213    8.7999   55.1524 C   0  0  0  0  0  0  0  0  0  0  0  0
   25.3897    9.1428   55.6030 C   0  0  0  0  0  0  0  0  0  0  0  0
   26.4770    8.8542   54.8184 C   0  0  0  0  0  0  0  0  0  0  0  0
   28.0618    9.2959   55.4079 Cl  0  0  0  0  0  0  0  0  0  0  0  0
   26.2772    8.2397   53.6224 C   0  0  0  0  0  0  0  0  0  0  0  0
   24.9921    7.9004   53.1858 C   0  0  0  0  0  0  0  0  0  0  0  0
   18.3248    5.7620   53.7330 N   0  0  0  0  0  0  0  0  0  0  0  0
   19.6190    5.4551   53.2643 C   0  0  0  0  0  0  0  0  0  0  0  0
   19.9063    4.3304   52.8598 O   0  0  0  0  0  0  0  0  0  0  0  0
   18.2032    6.7817   54.0575 H   0  0  0  0  0  0  0  0  0  0  0  0
   18.5899    3.4560   55.2588 C   0  0  0  0  0  0  0  0  0  0  0  0
   17.3085    3.7571   54.5956 C   0  0  0  0  0  0  0  0  0  0  0  0
   16.2444    2.8896   54.7395 C   0  0  0  0  0  0  0  0  0  0  0  0
   15.0362    3.1320   54.1347 C   0  0  0  0  0  0  0  0  0  0  0  0
   14.9427    4.2452   53.4031 N   0  0  0  0  0  0  0  0  0  0  0  0
   15.9800    5.1269   53.2404 C   0  0  0  0  0  0  0  0  0  0  0  0
   17.2027    4.9274   53.8238 C   0  0  0  0  0  0  0  0  0  0  0  0
   22.5942    5.1945   54.1128 C   0  0  0  0  0  0  0  0  0  0  0  0
   22.9082    5.3549   55.5855 C   0  0  0  0  0  0  0  0  0  0  0  0
   21.9903    6.0759   56.3681 N   0  0  0  0  0  0  0  0  0  0  0  0
   23.9316    4.8714   56.0832 O   0  0  0  0  0  0  0  0  0  0  0  0
   21.6725    7.0623   56.1409 H   0  0  0  0  0  0  0  0  0  0  0  0
   21.5429    5.6861   57.2509 H   0  0  0  0  0  0  0  0  0  0  0  0
 24 25  1  0  0  0
 25 26  2  0  0  0
 26 27  1  0  0  0
 27 28  2  0  0  0
 28 29  1  0  0  0
 29 30  2  0  0  0
 30 20  1  0  0  0
 20 21  1  0  0  0
 21 22  2  0  0  0
 21  1  1  0  0  0
  1  2  2  0  0  0
  2  3  1  0  0  0
  3  6  1  0  0  0
  6  7  2  0  0  0
  7  8  1  0  0  0
  8  9  2  0  0  0
  9 10  1  0  0  0
 10 11  2  0  0  0
 11 12  1  0  0  0
  3  4  1  0  0  0
  4 13  1  0  0  0
 13 14  2  0  0  0
 14 15  1  0  0  0
 15 16  2  0  0  0
 16 17  1  0  0  0
 16 18  1  0  0  0
 18 19  2  0  0  0
  4  5  2  0  0  0
  5 31  1  0  0  0
 31 32  1  0  0  0
 32 33  1  0  0  0
 32 34  2  0  0  0
 30 25  1  0  0  0
  5  1  1  0  0  0
 11  6  1  0  0  0
 19 13  1  0  0  0
 20 23  1  0  0  0
 33 35  1  0  0  0
 33 36  1  0  0  0
M  END
> <minimizedAffinity>
25.67796

> <CNNscore>
0.4096332788

> <CNNaffinity>
6.9745397568

> <CNN_VS>
2.8570036888

> <CNNaffinity_variance>
0.5352165103

$$$$
[H]c1nc([H])c(N([H])C(=O)c2nn(-c3c([H])c([H])c([H])c([H])c3Cl)c(-c3c([H])c([H])c(Cl)c([H])c3[H])c2C([H])([H])C(=O)N([H])[H])c(C([H])([H])[H])c1[H]


 36 39  0  0  0  0  0  0  0  0999 V2000
   21.0470    6.1591   53.5117 C   0  0  0  0  0  0  0  0  0  0  0  0
   22.2977    6.3515   53.9580 N   0  0  0  0  0  0  0  0  0  0  0  0
   22.6587    7.6363   53.8508 N   0  0  0  0  0  0  0  0  0  0  0  0
   21.6238    8.3544   53.3131 C   0  0  0  0  0  0  0  0  0  0  0  0
   20.6247    7.4259   53.1088 C   0  0  0  0  0  0  0  0  0  0  0  0
   23.9538    8.0469   54.2352 C   0  0  0  0  0  0  0  0  0  0  0  0
   25.0521    7.6204   53.5258 C   0  0  0  0  0  0  0  0  0  0  0  0
   26.3467    7.9938   53.9064 C   0  0  0  0  0  0  0  0  0  0  0  0
   26.5478    8.8044   55.0106 C   0  0  0  0  0  0  0  0  0  0  0  0
   25.4483    9.2277   55.7157 C   0  0  0  0  0  0  0  0  0  0  0  0
   24.1764    8.8608   55.3420 C   0  0  0  0  0  0  0  0  0  0  0  0
   22.7667    9.3927   56.2305 Cl  0  0  0  0  0  0  0  0  0  0  0  0
   21.6967    9.7504   52.9117 C   0  0  0  0  0  0  0  0  0  0  0  0
   21.7246   10.1960   51.6146 C   0  0  0  0  0  0  0  0  0  0  0  0
   21.6832   11.5319   51.2361 C   0  0  0  0  0  0  0  0  0  0  0  0
   21.6112   12.4983   52.2067 C   0  0  0  0  0  0  0  0  0  0  0  0
   21.5604   14.1715   51.7045 Cl  0  0  0  0  0  0  0  0  0  0  0  0
   21.5821   12.1161   53.5109 C   0  0  0  0  0  0  0  0  0  0  0  0
   21.6231   10.7654   53.8730 C   0  0  0  0  0  0  0  0  0  0  0  0
   18.9198    4.9238   53.3610 N   0  0  0  0  0  0  0  0  0  0  0  0
   20.3255    4.8845   53.4689 C   0  0  0  0  0  0  0  0  0  0  0  0
   20.9364    3.8192   53.5257 O   0  0  0  0  0  0  0  0  0  0  0  0
   18.5081    5.9181   53.3189 H   0  0  0  0  0  0  0  0  0  0  0  0
   16.4446    5.3019   54.5636 C   0  0  0  0  0  0  0  0  0  0  0  0
   16.7511    4.0248   53.8946 C   0  0  0  0  0  0  0  0  0  0  0  0
   15.8022    3.0226   53.8679 C   0  0  0  0  0  0  0  0  0  0  0  0
   16.0503    1.8177   53.2590 C   0  0  0  0  0  0  0  0  0  0  0  0
   17.2514    1.6647   52.6959 N   0  0  0  0  0  0  0  0  0  0  0  0
   18.2153    2.6397   52.7048 C   0  0  0  0  0  0  0  0  0  0  0  0
   18.0136    3.8567   53.2995 C   0  0  0  0  0  0  0  0  0  0  0  0
   19.2291    7.6638   52.6246 C   0  0  0  0  0  0  0  0  0  0  0  0
   19.3422    7.9860   51.1493 C   0  0  0  0  0  0  0  0  0  0  0  0
   20.5565    7.6800   50.5114 N   0  0  0  0  0  0  0  0  0  0  0  0
   18.4045    8.4983   50.5272 O   0  0  0  0  0  0  0  0  0  0  0  0
   21.5004    8.0290   50.8473 H   0  0  0  0  0  0  0  0  0  0  0  0
   20.6216    7.0731   49.6403 H   0  0  0  0  0  0  0  0  0  0  0  0
 24 25  1  0  0  0
 25 26  2  0  0  0
 26 27  1  0  0  0
 27 28  2  0  0  0
 28 29  1  0  0  0
 29 30  2  0  0  0
 30 20  1  0  0  0
 20 21  1  0  0  0
 21 22  2  0  0  0
 21  1  1  0  0  0
  1  2  2  0  0  0
  2  3  1  0  0  0
  3  6  1  0  0  0
  6  7  2  0  0  0
  7  8  1  0  0  0
  8  9  2  0  0  0
  9 10  1  0  0  0
 10 11  2  0  0  0
 11 12  1  0  0  0
  3  4  1  0  0  0
  4 13  1  0  0  0
 13 14  2  0  0  0
 14 15  1  0  0  0
 15 16  2  0  0  0
 16 17  1  0  0  0
 16 18  1  0  0  0
 18 19  2  0  0  0
  4  5  2  0  0  0
  5 31  1  0  0  0
 31 32  1  0  0  0
 32 33  1  0  0  0
 32 34  2  0  0  0
 30 25  1  0  0  0
  5  1  1  0  0  0
 11  6  1  0  0  0
 19 13  1  0  0  0
 20 23  1  0  0  0
 33 35  1  0  0  0
 33 36  1  0  0  0
M  END
> <minimizedAffinity>
31.84683

> <CNNscore>
0.3810033202

> <CNNaffinity>
6.8401041031

> <CNN_VS>
2.6061024666

> <CNNaffinity_variance>
0.6796587706

$$$$
[H]c1nc([H])c(N([H])C(=O)c2nn(-c3c([H])c([H])c([H])c([H])c3Cl)c(-c3c([H])c([H])c(Cl)c([H])c3[H])c2C([H])([H])C(=O)N([H])[H])c(C([H])([H])[H])c1[H]


 36 39  0  0  0  0  0  0  0  0999 V2000
   20.8235    6.2471   53.3923 C   0  0  0  0  0  0  0  0  0  0  0  0
   20.5689    7.5031   52.9945 N   0  0  0  0  0  0  0  0  0  0  0  0
   21.6523    8.2799   53.1180 N   0  0  0  0  0  0  0  0  0  0  0  0
   22.6885    7.5364   53.6171 C   0  0  0  0  0  0  0  0  0  0  0  0
   22.1627    6.2720   53.7813 C   0  0  0  0  0  0  0  0  0  0  0  0
   21.5881    9.6504   52.7844 C   0  0  0  0  0  0  0  0  0  0  0  0
   21.5526   10.0388   51.4655 C   0  0  0  0  0  0  0  0  0  0  0  0
   21.5162   11.3932   51.1127 C   0  0  0  0  0  0  0  0  0  0  0  0
   21.5153   12.3737   52.0900 C   0  0  0  0  0  0  0  0  0  0  0  0
   21.5508   11.9812   53.4054 C   0  0  0  0  0  0  0  0  0  0  0  0
   21.5866   10.6506   53.7521 C   0  0  0  0  0  0  0  0  0  0  0  0
   21.6320   10.1361   55.4232 Cl  0  0  0  0  0  0  0  0  0  0  0  0
   23.9788    8.0704   54.0238 C   0  0  0  0  0  0  0  0  0  0  0  0
   24.2399    8.6621   55.2336 C   0  0  0  0  0  0  0  0  0  0  0  0
   25.4975    9.0706   55.6594 C   0  0  0  0  0  0  0  0  0  0  0  0
   26.5751    8.8842   54.8317 C   0  0  0  0  0  0  0  0  0  0  0  0
   28.1463    9.4068   55.3906 Cl  0  0  0  0  0  0  0  0  0  0  0  0
   26.3767    8.3037   53.6186 C   0  0  0  0  0  0  0  0  0  0  0  0
   25.1028    7.8971   53.2075 C   0  0  0  0  0  0  0  0  0  0  0  0
   18.5099    5.4241   53.5999 N   0  0  0  0  0  0  0  0  0  0  0  0
   19.8753    5.1300   53.4049 C   0  0  0  0  0  0  0  0  0  0  0  0
   20.2684    3.9757   53.2490 O   0  0  0  0  0  0  0  0  0  0  0  0
   18.2974    6.4728   53.7225 H   0  0  0  0  0  0  0  0  0  0  0  0
   16.0141    6.5359   54.1010 C   0  0  0  0  0  0  0  0  0  0  0  0
   16.1449    5.0823   53.8948 C   0  0  0  0  0  0  0  0  0  0  0  0
   15.0225    4.2807   53.9498 C   0  0  0  0  0  0  0  0  0  0  0  0
   15.1029    2.9226   53.7674 C   0  0  0  0  0  0  0  0  0  0  0  0
   16.3172    2.4181   53.5348 N   0  0  0  0  0  0  0  0  0  0  0  0
   17.4512    3.1864   53.4739 C   0  0  0  0  0  0  0  0  0  0  0  0
   17.4203    4.5442   53.6494 C   0  0  0  0  0  0  0  0  0  0  0  0
   22.8715    5.0267   54.2121 C   0  0  0  0  0  0  0  0  0  0  0  0
   23.0595    5.1437   55.7102 C   0  0  0  0  0  0  0  0  0  0  0  0
   22.0981    5.8757   56.4278 N   0  0  0  0  0  0  0  0  0  0  0  0
   24.0204    4.6169   56.2827 O   0  0  0  0  0  0  0  0  0  0  0  0
   21.8309    6.8765   56.1987 H   0  0  0  0  0  0  0  0  0  0  0  0
   21.5636    5.4804   57.2580 H   0  0  0  0  0  0  0  0  0  0  0  0
 24 25  1  0  0  0
 25 26  2  0  0  0
 26 27  1  0  0  0
 27 28  2  0  0  0
 28 29  1  0  0  0
 29 30  2  0  0  0
 30 20  1  0  0  0
 20 21  1  0  0  0
 21 22  2  0  0  0
 21  1  1  0  0  0
  1  2  2  0  0  0
  2  3  1  0  0  0
  3  6  1  0  0  0
  6  7  2  0  0  0
  7  8  1  0  0  0
  8  9  2  0  0  0
  9 10  1  0  0  0
 10 11  2  0  0  0
 11 12  1  0  0  0
  3  4  1  0  0  0
  4 13  1  0  0  0
 13 14  2  0  0  0
 14 15  1  0  0  0
 15 16  2  0  0  0
 16 17  1  0  0  0
 16 18  1  0  0  0
 18 19  2  0  0  0
  4  5  2  0  0  0
  5 31  1  0  0  0
 31 32  1  0  0  0
 32 33  1  0  0  0
 32 34  2  0  0  0
 30 25  1  0  0  0
  5  1  1  0  0  0
 11  6  1  0  0  0
 19 13  1  0  0  0
 20 23  1  0  0  0
 33 35  1  0  0  0
 33 36  1  0  0  0
M  END
> <minimizedAffinity>
25.99791

> <CNNscore>
0.3557782173

> <CNNaffinity>
6.7232918739

> <CNN_VS>
2.3920009136

> <CNNaffinity_variance>
0.6025999784

$$$$
[H]c1nc([H])c(N([H])C(=O)c2nn(-c3c([H])c([H])c([H])c([H])c3Cl)c(-c3c([H])c([H])c(Cl)c([H])c3[H])c2C([H])([H])C(=O)N([H])[H])c(C([H])([H])[H])c1[H]


 36 39  0  0  0  0  0  0  0  0999 V2000
   25.5134    9.9731   56.0563 C   0  0  0  0  0  0  0  0  0  0  0  0
   24.2697   10.1484   55.5838 N   0  0  0  0  0  0  0  0  0  0  0  0
   23.8591    9.0791   54.8907 N   0  0  0  0  0  0  0  0  0  0  0  0
   24.8512    8.1349   54.8842 C   0  0  0  0  0  0  0  0  0  0  0  0
   25.8750    8.7004   55.6151 C   0  0  0  0  0  0  0  0  0  0  0  0
   22.5870    9.0726   54.2781 C   0  0  0  0  0  0  0  0  0  0  0  0
   22.3771    9.7763   53.1152 C   0  0  0  0  0  0  0  0  0  0  0  0
   21.1166    9.8051   52.5065 C   0  0  0  0  0  0  0  0  0  0  0  0
   20.0506    9.1220   53.0663 C   0  0  0  0  0  0  0  0  0  0  0  0
   20.2648    8.4208   54.2273 C   0  0  0  0  0  0  0  0  0  0  0  0
   21.5031    8.3925   54.8255 C   0  0  0  0  0  0  0  0  0  0  0  0
   21.7905    7.5036   56.3043 Cl  0  0  0  0  0  0  0  0  0  0  0  0
   24.8269    6.9041   54.1096 C   0  0  0  0  0  0  0  0  0  0  0  0
   25.6905    6.5998   53.0882 C   0  0  0  0  0  0  0  0  0  0  0  0
   25.7335    5.3795   52.4257 C   0  0  0  0  0  0  0  0  0  0  0  0
   24.8603    4.3886   52.7957 C   0  0  0  0  0  0  0  0  0  0  0  0
   24.9345    2.8629   51.9468 Cl  0  0  0  0  0  0  0  0  0  0  0  0
   23.9795    4.6335   53.8017 C   0  0  0  0  0  0  0  0  0  0  0  0
   23.9521    5.8684   54.4586 C   0  0  0  0  0  0  0  0  0  0  0  0
   27.2376   10.4262   57.7578 N   0  0  0  0  0  0  0  0  0  0  0  0
   26.2854   10.9333   56.8494 C   0  0  0  0  0  0  0  0  0  0  0  0
   26.1013   12.1418   56.7190 O   0  0  0  0  0  0  0  0  0  0  0  0
   27.3022    9.3513   57.7751 H   0  0  0  0  0  0  0  0  0  0  0  0
   29.0546    8.9272   59.2301 C   0  0  0  0  0  0  0  0  0  0  0  0
   29.0263   10.3943   59.3691 C   0  0  0  0  0  0  0  0  0  0  0  0
   29.9072   11.0161   60.2310 C   0  0  0  0  0  0  0  0  0  0  0  0
   29.9097   12.3792   60.3919 C   0  0  0  0  0  0  0  0  0  0  0  0
   29.0202   13.0708   59.6751 N   0  0  0  0  0  0  0  0  0  0  0  0
   28.1322   12.4841   58.8108 C   0  0  0  0  0  0  0  0  0  0  0  0
   28.0925   11.1289   58.6175 C   0  0  0  0  0  0  0  0  0  0  0  0
   27.1773    8.0798   56.0120 C   0  0  0  0  0  0  0  0  0  0  0  0
   28.1695    8.4495   54.9294 C   0  0  0  0  0  0  0  0  0  0  0  0
   28.5830    7.4299   54.0550 N   0  0  0  0  0  0  0  0  0  0  0  0
   28.6010    9.6026   54.8165 O   0  0  0  0  0  0  0  0  0  0  0  0
   29.0021    6.5113   54.3806 H   0  0  0  0  0  0  0  0  0  0  0  0
   28.5068    7.5022   52.9965 H   0  0  0  0  0  0  0  0  0  0  0  0
 24 25  1  0  0  0
 25 26  2  0  0  0
 26 27  1  0  0  0
 27 28  2  0  0  0
 28 29  1  0  0  0
 29 30  2  0  0  0
 30 20  1  0  0  0
 20 21  1  0  0  0
 21 22  2  0  0  0
 21  1  1  0  0  0
  1  2  2  0  0  0
  2  3  1  0  0  0
  3  6  1  0  0  0
  6  7  2  0  0  0
  7  8  1  0  0  0
  8  9  2  0  0  0
  9 10  1  0  0  0
 10 11  2  0  0  0
 11 12  1  0  0  0
  3  4  1  0  0  0
  4 13  1  0  0  0
 13 14  2  0  0  0
 14 15  1  0  0  0
 15 16  2  0  0  0
 16 17  1  0  0  0
 16 18  1  0  0  0
 18 19  2  0  0  0
  4  5  2  0  0  0
  5 31  1  0  0  0
 31 32  1  0  0  0
 32 33  1  0  0  0
 32 34  2  0  0  0
 30 25  1  0  0  0
  5  1  1  0  0  0
 11  6  1  0  0  0
 19 13  1  0  0  0
 20 23  1  0  0  0
 33 35  1  0  0  0
 33 36  1  0  0  0
M  END
> <minimizedAffinity>
38.52573

> <CNNscore>
0.2747566104

> <CNNaffinity>
6.0269536972

> <CNN_VS>
1.6559454203

> <CNNaffinity_variance>
0.6042757034

$$$$
[H]c1nc([H])c(N([H])C(=O)c2nn(-c3c([H])c([H])c([H])c([H])c3Cl)c(-c3c([H])c([H])c(Cl)c([H])c3[H])c2C([H])([H])C(=O)N([H])[H])c(C([H])([H])[H])c1[H]


 36 39  0  0  0  0  0  0  0  0999 V2000
   25.1499    8.3462   55.0439 C   0  0  0  0  0  0  0  0  0  0  0  0
   24.4432    9.2816   54.3910 N   0  0  0  0  0  0  0  0  0  0  0  0
   23.2979    8.7787   53.9136 N   0  0  0  0  0  0  0  0  0  0  0  0
   23.2109    7.4533   54.2475 C   0  0  0  0  0  0  0  0  0  0  0  0
   24.3673    7.1953   54.9534 C   0  0  0  0  0  0  0  0  0  0  0  0
   22.4207    9.5919   53.1633 C   0  0  0  0  0  0  0  0  0  0  0  0
   22.1934    9.3193   51.8346 C   0  0  0  0  0  0  0  0  0  0  0  0
   21.3486   10.1291   51.0659 C   0  0  0  0  0  0  0  0  0  0  0  0
   20.7220   11.2264   51.6314 C   0  0  0  0  0  0  0  0  0  0  0  0
   20.9520   11.4947   52.9583 C   0  0  0  0  0  0  0  0  0  0  0  0
   21.7819   10.6992   53.7136 C   0  0  0  0  0  0  0  0  0  0  0  0
   22.0839   11.0288   55.4046 Cl  0  0  0  0  0  0  0  0  0  0  0  0
   22.1815    6.5400   53.7769 C   0  0  0  0  0  0  0  0  0  0  0  0
   22.3682    5.2037   53.5291 C   0  0  0  0  0  0  0  0  0  0  0  0
   21.3580    4.3141   53.1860 C   0  0  0  0  0  0  0  0  0  0  0  0
   20.0710    4.7758   53.0774 C   0  0  0  0  0  0  0  0  0  0  0  0
   18.8185    3.6366   52.6445 Cl  0  0  0  0  0  0  0  0  0  0  0  0
   19.8255    6.0924   53.3102 C   0  0  0  0  0  0  0  0  0  0  0  0
   20.8558    6.9733   53.6563 C   0  0  0  0  0  0  0  0  0  0  0  0
   26.4768    9.1071   56.9762 N   0  0  0  0  0  0  0  0  0  0  0  0
   26.4526    8.5330   55.6883 C   0  0  0  0  0  0  0  0  0  0  0  0
   27.4866    8.1959   55.1152 O   0  0  0  0  0  0  0  0  0  0  0  0
   25.5045    9.3563   57.3667 H   0  0  0  0  0  0  0  0  0  0  0  0
   27.3057   11.7544   57.1203 C   0  0  0  0  0  0  0  0  0  0  0  0
   28.0164   10.7172   57.8894 C   0  0  0  0  0  0  0  0  0  0  0  0
   29.0912   11.0695   58.6807 C   0  0  0  0  0  0  0  0  0  0  0  0
   29.7818   10.1330   59.4087 C   0  0  0  0  0  0  0  0  0  0  0  0
   29.3629    8.8686   59.3132 N   0  0  0  0  0  0  0  0  0  0  0  0
   28.2995    8.4859   58.5369 C   0  0  0  0  0  0  0  0  0  0  0  0
   27.5808    9.3840   57.7938 C   0  0  0  0  0  0  0  0  0  0  0  0
   24.7644    5.9278   55.6422 C   0  0  0  0  0  0  0  0  0  0  0  0
   23.5170    5.4098   56.3271 C   0  0  0  0  0  0  0  0  0  0  0  0
   23.5914    4.1463   56.9379 N   0  0  0  0  0  0  0  0  0  0  0  0
   22.4722    6.0705   56.3500 O   0  0  0  0  0  0  0  0  0  0  0  0
   23.9001    3.2667   56.4314 H   0  0  0  0  0  0  0  0  0  0  0  0
   23.3429    3.9755   57.9579 H   0  0  0  0  0  0  0  0  0  0  0  0
 24 25  1  0  0  0
 25 26  2  0  0  0
 26 27  1  0  0  0
 27 28  2  0  0  0
 28 29  1  0  0  0
 29 30  2  0  0  0
 30 20  1  0  0  0
 20 21  1  0  0  0
 21 22  2  0  0  0
 21  1  1  0  0  0
  1  2  2  0  0  0
  2  3  1  0  0  0
  3  6  1  0  0  0
  6  7  2  0  0  0
  7  8  1  0  0  0
  8  9  2  0  0  0
  9 10  1  0  0  0
 10 11  2  0  0  0
 11 12  1  0  0  0
  3  4  1  0  0  0
  4 13  1  0  0  0
 13 14  2  0  0  0
 14 15  1  0  0  0
 15 16  2  0  0  0
 16 17  1  0  0  0
 16 18  1  0  0  0
 18 19  2  0  0  0
  4  5  2  0  0  0
  5 31  1  0  0  0
 31 32  1  0  0  0
 32 33  1  0  0  0
 32 34  2  0  0  0
 30 25  1  0  0  0
  5  1  1  0  0  0
 11  6  1  0  0  0
 19 13  1  0  0  0
 20 23  1  0  0  0
 33 35  1  0  0  0
 33 36  1  0  0  0
M  END
> <minimizedAffinity>
36.04380

> <CNNscore>
0.2104040533

> <CNNaffinity>
6.1123752594

> <CNN_VS>
1.2860685587

> <CNNaffinity_variance>
0.2566959858

$$$$
[H]c1nc([H])c(N([H])C(=O)c2nn(-c3c([H])c([H])c([H])c([H])c3Cl)c(-c3c([H])c([H])c(Cl)c([H])c3[H])c2C([H])([H])C(=O)N([H])[H])c(C([H])([H])[H])c1[H]


 36 39  0  0  0  0  0  0  0  0999 V2000
   20.9359    6.1446   53.4739 C   0  0  0  0  0  0  0  0  0  0  0  0
   20.6774    7.3788   53.0148 N   0  0  0  0  0  0  0  0  0  0  0  0
   21.7284    8.1901   53.1871 N   0  0  0  0  0  0  0  0  0  0  0  0
   22.7454    7.4939   53.7843 C   0  0  0  0  0  0  0  0  0  0  0  0
   22.2425    6.2211   53.9556 C   0  0  0  0  0  0  0  0  0  0  0  0
   21.6523    9.5462   52.8013 C   0  0  0  0  0  0  0  0  0  0  0  0
   21.9225   10.5396   53.7132 C   0  0  0  0  0  0  0  0  0  0  0  0
   21.8263   11.8906   53.3586 C   0  0  0  0  0  0  0  0  0  0  0  0
   21.4553   12.2552   52.0756 C   0  0  0  0  0  0  0  0  0  0  0  0
   21.1866   11.2600   51.1685 C   0  0  0  0  0  0  0  0  0  0  0  0
   21.2809    9.9328   51.5169 C   0  0  0  0  0  0  0  0  0  0  0  0
   20.9417    8.6546   50.3719 Cl  0  0  0  0  0  0  0  0  0  0  0  0
   23.9887    8.0781   54.2621 C   0  0  0  0  0  0  0  0  0  0  0  0
   24.1180    8.8304   55.4019 C   0  0  0  0  0  0  0  0  0  0  0  0
   25.3245    9.2929   55.9118 C   0  0  0  0  0  0  0  0  0  0  0  0
   26.4874    8.9939   55.2487 C   0  0  0  0  0  0  0  0  0  0  0  0
   27.9919    9.5876   55.9106 Cl  0  0  0  0  0  0  0  0  0  0  0  0
   26.4209    8.2522   54.1115 C   0  0  0  0  0  0  0  0  0  0  0  0
   25.1964    7.7936   53.6138 C   0  0  0  0  0  0  0  0  0  0  0  0
   18.6375    5.2611   53.5757 N   0  0  0  0  0  0  0  0  0  0  0  0
   20.0189    5.0018   53.4590 C   0  0  0  0  0  0  0  0  0  0  0  0
   20.4508    3.8563   53.3474 O   0  0  0  0  0  0  0  0  0  0  0  0
   18.3905    6.3055   53.6657 H   0  0  0  0  0  0  0  0  0  0  0  0
   16.1419    6.2537   54.2847 C   0  0  0  0  0  0  0  0  0  0  0  0
   16.2960    4.8304   53.9341 C   0  0  0  0  0  0  0  0  0  0  0  0
   15.1952    3.9978   53.9582 C   0  0  0  0  0  0  0  0  0  0  0  0
   15.2978    2.6660   53.6426 C   0  0  0  0  0  0  0  0  0  0  0  0
   16.5117    2.2181   53.3123 N   0  0  0  0  0  0  0  0  0  0  0  0
   17.6245    3.0184   53.2787 C   0  0  0  0  0  0  0  0  0  0  0  0
   17.5711    4.3520   53.5853 C   0  0  0  0  0  0  0  0  0  0  0  0
   22.9512    5.0119   54.4793 C   0  0  0  0  0  0  0  0  0  0  0  0
   22.9462    5.1391   55.9883 C   0  0  0  0  0  0  0  0  0  0  0  0
   21.9652    5.9638   56.5649 N   0  0  0  0  0  0  0  0  0  0  0  0
   23.7717    4.5419   56.6887 O   0  0  0  0  0  0  0  0  0  0  0  0
   21.8199    6.9797   56.2957 H   0  0  0  0  0  0  0  0  0  0  0  0
   21.2916    5.6310   57.3178 H   0  0  0  0  0  0  0  0  0  0  0  0
 24 25  1  0  0  0
 25 26  2  0  0  0
 26 27  1  0  0  0
 27 28  2  0  0  0
 28 29  1  0  0  0
 29 30  2  0  0  0
 30 20  1  0  0  0
 20 21  1  0  0  0
 21 22  2  0  0  0
 21  1  1  0  0  0
  1  2  2  0  0  0
  2  3  1  0  0  0
  3  6  1  0  0  0
  6  7  2  0  0  0
  7  8  1  0  0  0
  8  9  2  0  0  0
  9 10  1  0  0  0
 10 11  2  0  0  0
 11 12  1  0  0  0
  3  4  1  0  0  0
  4 13  1  0  0  0
 13 14  2  0  0  0
 14 15  1  0  0  0
 15 16  2  0  0  0
 16 17  1  0  0  0
 16 18  1  0  0  0
 18 19  2  0  0  0
  4  5  2  0  0  0
  5 31  1  0  0  0
 31 32  1  0  0  0
 32 33  1  0  0  0
 32 34  2  0  0  0
 30 25  1  0  0  0
  5  1  1  0  0  0
 11  6  1  0  0  0
 19 13  1  0  0  0
 20 23  1  0  0  0
 33 35  1  0  0  0
 33 36  1  0  0  0
M  END
> <minimizedAffinity>
28.61511

> <CNNscore>
0.1672894210

> <CNNaffinity>
6.4509735107

> <CNN_VS>
1.0791796446

> <CNNaffinity_variance>
0.6495935321

$$$$
[H]OC([H])([H])C([H])([H])n1c(C2([H])C([H])([H])C([H])([H])N(c3nc([H])nc(N([H])[H])c3C#N)C([H])([H])C2([H])[H])nc(-c2c([H])c([H])c(F)c(C([H])([H])[H])c2[H])c1[H]


 34 37  0  0  0  0  0  0  0  0999 V2000
   19.6158    5.5809   53.3923 C   0  0  0  0  0  0  0  0  0  0  0  0
   19.3818    6.9339   53.4652 C   0  0  0  0  0  0  0  0  0  0  0  0
   20.6065    7.5496   53.4725 N   0  0  0  0  0  0  0  0  0  0  0  0
   21.5618    6.6189   53.4071 C   0  0  0  0  0  0  0  0  0  0  0  0
   20.9368    5.4314   53.3591 N   0  0  0  0  0  0  0  0  0  0  0  0
   14.9753    3.9490   54.2935 C   0  0  0  0  0  0  0  0  0  0  0  0
   16.3536    3.7413   53.7855 C   0  0  0  0  0  0  0  0  0  0  0  0
   17.3169    4.7497   53.8309 C   0  0  0  0  0  0  0  0  0  0  0  0
   18.5863    4.5501   53.3600 C   0  0  0  0  0  0  0  0  0  0  0  0
   18.9183    3.3233   52.8291 C   0  0  0  0  0  0  0  0  0  0  0  0
   17.9863    2.3064   52.7710 C   0  0  0  0  0  0  0  0  0  0  0  0
   16.7011    2.5184   53.2511 C   0  0  0  0  0  0  0  0  0  0  0  0
   15.8108    1.4826   53.1731 F   0  0  0  0  0  0  0  0  0  0  0  0
   23.0086    6.8218   53.3939 C   0  0  0  0  0  0  0  0  0  0  0  0
   23.6086    6.6545   54.7766 C   0  0  0  0  0  0  0  0  0  0  0  0
   25.0816    6.4399   54.5337 C   0  0  0  0  0  0  0  0  0  0  0  0
   25.6392    7.6570   53.9005 N   0  0  0  0  0  0  0  0  0  0  0  0
   24.9310    8.2526   52.8211 C   0  0  0  0  0  0  0  0  0  0  0  0
   23.4014    8.2245   52.9809 C   0  0  0  0  0  0  0  0  0  0  0  0
   26.8418    8.1117   54.4972 C   0  0  0  0  0  0  0  0  0  0  0  0
   28.0563    7.6694   54.0406 N   0  0  0  0  0  0  0  0  0  0  0  0
   29.2057    8.0483   54.6050 C   0  0  0  0  0  0  0  0  0  0  0  0
   29.2331    8.8807   55.6469 N   0  0  0  0  0  0  0  0  0  0  0  0
   28.0855    9.3560   56.1487 C   0  0  0  0  0  0  0  0  0  0  0  0
   28.0585   10.2505   57.2644 N   0  0  0  0  0  0  0  0  0  0  0  0
   26.8706    8.9580   55.5543 C   0  0  0  0  0  0  0  0  0  0  0  0
   28.3373    9.8951   58.2208 H   0  0  0  0  0  0  0  0  0  0  0  0
   27.7761   11.2469   57.1903 H   0  0  0  0  0  0  0  0  0  0  0  0
   25.6640    9.5301   56.1015 C   0  0  0  0  0  0  0  0  0  0  0  0
   24.6788    9.9831   56.5153 N   0  0  0  0  0  0  0  0  0  0  0  0
   20.7324    8.9754   53.5357 C   0  0  0  0  0  0  0  0  0  0  0  0
   20.9830    9.3902   54.9549 C   0  0  0  0  0  0  0  0  0  0  0  0
   22.0301   10.2555   55.1397 O   0  0  0  0  0  0  0  0  0  0  0  0
   21.8062   11.0231   55.7456 H   0  0  0  0  0  0  0  0  0  0  0  0
  6  7  1  0  0  0
  7  8  2  0  0  0
  8  9  1  0  0  0
  9  1  1  0  0  0
  1  2  2  0  0  0
  2  3  1  0  0  0
  3 31  1  0  0  0
 31 32  1  0  0  0
 32 33  1  0  0  0
  3  4  1  0  0  0
  4 14  1  0  0  0
 14 15  1  0  0  0
 15 16  1  0  0  0
 16 17  1  0  0  0
 17 20  1  0  0  0
 20 21  2  0  0  0
 21 22  1  0  0  0
 22 23  2  0  0  0
 23 24  1  0  0  0
 24 25  1  0  0  0
 24 26  2  0  0  0
 26 29  1  0  0  0
 29 30  3  0  0  0
 17 18  1  0  0  0
 18 19  1  0  0  0
  4  5  2  0  0  0
  9 10  2  0  0  0
 10 11  1  0  0  0
 11 12  2  0  0  0
 12 13  1  0  0  0
 12  7  1  0  0  0
  5  1  1  0  0  0
 19 14  1  0  0  0
 26 20  1  0  0  0
 33 34  1  0  0  0
 25 27  1  0  0  0
 25 28  1  0  0  0
M  END
> <minimizedAffinity>
23.49159

> <CNNscore>
0.5316442251

> <CNNaffinity>
6.5932526588

> <CNN_VS>
3.5052647591

> <CNNaffinity_variance>
0.8019438982

$$$$
[H]OC([H])([H])C([H])([H])n1c(C2([H])C([H])([H])C([H])([H])N(c3nc([H])nc(N([H])[H])c3C#N)C([H])([H])C2([H])[H])nc(-c2c([H])c([H])c(F)c(C([H])([H])[H])c2[H])c1[H]


 34 37  0  0  0  0  0  0  0  0999 V2000
   24.6558    8.6218   54.6946 C   0  0  0  0  0  0  0  0  0  0  0  0
   23.8052    9.6794   54.9152 C   0  0  0  0  0  0  0  0  0  0  0  0
   22.5502    9.2625   54.5547 N   0  0  0  0  0  0  0  0  0  0  0  0
   22.6173    7.9991   54.1278 C   0  0  0  0  0  0  0  0  0  0  0  0
   23.9053    7.6310   54.2218 N   0  0  0  0  0  0  0  0  0  0  0  0
   28.6260    9.5783   57.5811 C   0  0  0  0  0  0  0  0  0  0  0  0
   28.0211    9.0840   56.3199 C   0  0  0  0  0  0  0  0  0  0  0  0
   26.6415    9.0889   56.1113 C   0  0  0  0  0  0  0  0  0  0  0  0
   26.0913    8.6309   54.9448 C   0  0  0  0  0  0  0  0  0  0  0  0
   26.9217    8.1545   53.9546 C   0  0  0  0  0  0  0  0  0  0  0  0
   28.2907    8.1375   54.1324 C   0  0  0  0  0  0  0  0  0  0  0  0
   28.8395    8.6040   55.3191 C   0  0  0  0  0  0  0  0  0  0  0  0
   30.2007    8.5681   55.4513 F   0  0  0  0  0  0  0  0  0  0  0  0
   21.5241    7.1594   53.6436 C   0  0  0  0  0  0  0  0  0  0  0  0
   20.1752    7.6804   54.1009 C   0  0  0  0  0  0  0  0  0  0  0  0
   19.1764    7.0191   53.1843 C   0  0  0  0  0  0  0  0  0  0  0  0
   19.2351    5.5548   53.3976 N   0  0  0  0  0  0  0  0  0  0  0  0
   20.5072    4.9227   53.4589 C   0  0  0  0  0  0  0  0  0  0  0  0
   21.5844    5.7466   54.1846 C   0  0  0  0  0  0  0  0  0  0  0  0
   17.9634    4.9485   53.5528 C   0  0  0  0  0  0  0  0  0  0  0  0
   16.8950    5.6776   54.0068 N   0  0  0  0  0  0  0  0  0  0  0  0
   15.6936    5.1280   54.2004 C   0  0  0  0  0  0  0  0  0  0  0  0
   15.4683    3.8352   53.9611 N   0  0  0  0  0  0  0  0  0  0  0  0
   16.4641    3.0582   53.5146 C   0  0  0  0  0  0  0  0  0  0  0  0
   16.2765    1.6666   53.2426 N   0  0  0  0  0  0  0  0  0  0  0  0
   17.7334    3.6362   53.3087 C   0  0  0  0  0  0  0  0  0  0  0  0
   16.1073    0.9995   54.0458 H   0  0  0  0  0  0  0  0  0  0  0  0
   16.2971    1.2643   52.2857 H   0  0  0  0  0  0  0  0  0  0  0  0
   18.7623    2.7699   52.7857 C   0  0  0  0  0  0  0  0  0  0  0  0
   19.5698    2.0494   52.3665 N   0  0  0  0  0  0  0  0  0  0  0  0
   21.4101   10.1233   54.6642 C   0  0  0  0  0  0  0  0  0  0  0  0
   21.3809   11.0612   53.4943 C   0  0  0  0  0  0  0  0  0  0  0  0
   21.4428   10.4666   52.2606 O   0  0  0  0  0  0  0  0  0  0  0  0
   20.7711   10.8324   51.6114 H   0  0  0  0  0  0  0  0  0  0  0  0
  6  7  1  0  0  0
  7  8  2  0  0  0
  8  9  1  0  0  0
  9  1  1  0  0  0
  1  2  2  0  0  0
  2  3  1  0  0  0
  3 31  1  0  0  0
 31 32  1  0  0  0
 32 33  1  0  0  0
  3  4  1  0  0  0
  4 14  1  0  0  0
 14 15  1  0  0  0
 15 16  1  0  0  0
 16 17  1  0  0  0
 17 20  1  0  0  0
 20 21  2  0  0  0
 21 22  1  0  0  0
 22 23  2  0  0  0
 23 24  1  0  0  0
 24 25  1  0  0  0
 24 26  2  0  0  0
 26 29  1  0  0  0
 29 30  3  0  0  0
 17 18  1  0  0  0
 18 19  1  0  0  0
  4  5  2  0  0  0
  9 10  2  0  0  0
 10 11  1  0  0  0
 11 12  2  0  0  0
 12 13  1  0  0  0
 12  7  1  0  0  0
  5  1  1  0  0  0
 19 14  1  0  0  0
 26 20  1  0  0  0
 33 34  1  0  0  0
 25 27  1  0  0  0
 25 28  1  0  0  0
M  END
> <minimizedAffinity>
27.20717

> <CNNscore>
0.5240015984

> <CNNaffinity>
6.6896262169

> <CNN_VS>
3.5053749084

> <CNNaffinity_variance>
0.9742248654

$$$$
[H]OC([H])([H])C([H])([H])n1c(C2([H])C([H])([H])C([H])([H])N(c3nc([H])nc(N([H])[H])c3C#N)C([H])([H])C2([H])[H])nc(-c2c([H])c([H])c(F)c(C([H])([H])[H])c2[H])c1[H]


 34 37  0  0  0  0  0  0  0  0999 V2000
   21.6722   11.0869   52.9856 C   0  0  0  0  0  0  0  0  0  0  0  0
   22.7983   10.7711   53.7085 C   0  0  0  0  0  0  0  0  0  0  0  0
   22.6385    9.4838   54.1518 N   0  0  0  0  0  0  0  0  0  0  0  0
   21.4626    9.0188   53.7228 C   0  0  0  0  0  0  0  0  0  0  0  0
   20.8936   10.0093   53.0169 N   0  0  0  0  0  0  0  0  0  0  0  0
   19.3704   15.5162   52.6822 C   0  0  0  0  0  0  0  0  0  0  0  0
   20.3260   14.5065   52.1642 C   0  0  0  0  0  0  0  0  0  0  0  0
   20.5407   13.2913   52.8153 C   0  0  0  0  0  0  0  0  0  0  0  0
   21.4243   12.3650   52.3310 C   0  0  0  0  0  0  0  0  0  0  0  0
   22.1166   12.6416   51.1729 C   0  0  0  0  0  0  0  0  0  0  0  0
   21.9249   13.8356   50.5068 C   0  0  0  0  0  0  0  0  0  0  0  0
   21.0267   14.7690   51.0058 C   0  0  0  0  0  0  0  0  0  0  0  0
   20.8689   15.9380   50.3130 F   0  0  0  0  0  0  0  0  0  0  0  0
   20.8811    7.7000   53.9623 C   0  0  0  0  0  0  0  0  0  0  0  0
   21.5213    6.6401   53.0866 C   0  0  0  0  0  0  0  0  0  0  0  0
   21.1668    5.3307   53.7457 C   0  0  0  0  0  0  0  0  0  0  0  0
   19.6950    5.1688   53.7160 N   0  0  0  0  0  0  0  0  0  0  0  0
   18.8778    6.2711   54.0878 C   0  0  0  0  0  0  0  0  0  0  0  0
   19.4088    7.6352   53.6154 C   0  0  0  0  0  0  0  0  0  0  0  0
   19.2695    3.8922   53.2706 C   0  0  0  0  0  0  0  0  0  0  0  0
   20.1665    3.0096   52.7271 N   0  0  0  0  0  0  0  0  0  0  0  0
   19.7920    1.8148   52.2632 C   0  0  0  0  0  0  0  0  0  0  0  0
   18.5200    1.4152   52.3043 N   0  0  0  0  0  0  0  0  0  0  0  0
   17.5855    2.2233   52.8223 C   0  0  0  0  0  0  0  0  0  0  0  0
   16.2081    1.8440   52.8902 N   0  0  0  0  0  0  0  0  0  0  0  0
   17.9785    3.4851   53.3133 C   0  0  0  0  0  0  0  0  0  0  0  0
   15.6489    1.7592   51.9964 H   0  0  0  0  0  0  0  0  0  0  0  0
   15.7147    1.6433   53.7814 H   0  0  0  0  0  0  0  0  0  0  0  0
   16.9441    4.3019   53.9012 C   0  0  0  0  0  0  0  0  0  0  0  0
   16.1094    4.9739   54.3469 N   0  0  0  0  0  0  0  0  0  0  0  0
   23.6396    8.8288   54.9401 C   0  0  0  0  0  0  0  0  0  0  0  0
   24.6992    8.2726   54.0363 C   0  0  0  0  0  0  0  0  0  0  0  0
   24.6539    6.9166   53.8399 O   0  0  0  0  0  0  0  0  0  0  0  0
   24.7533    6.6532   52.8770 H   0  0  0  0  0  0  0  0  0  0  0  0
  6  7  1  0  0  0
  7  8  2  0  0  0
  8  9  1  0  0  0
  9  1  1  0  0  0
  1  2  2  0  0  0
  2  3  1  0  0  0
  3 31  1  0  0  0
 31 32  1  0  0  0
 32 33  1  0  0  0
  3  4  1  0  0  0
  4 14  1  0  0  0
 14 15  1  0  0  0
 15 16  1  0  0  0
 16 17  1  0  0  0
 17 20  1  0  0  0
 20 21  2  0  0  0
 21 22  1  0  0  0
 22 23  2  0  0  0
 23 24  1  0  0  0
 24 25  1  0  0  0
 24 26  2  0  0  0
 26 29  1  0  0  0
 29 30  3  0  0  0
 17 18  1  0  0  0
 18 19  1  0  0  0
  4  5  2  0  0  0
  9 10  2  0  0  0
 10 11  1  0  0  0
 11 12  2  0  0  0
 12 13  1  0  0  0
 12  7  1  0  0  0
  5  1  1  0  0  0
 19 14  1  0  0  0
 26 20  1  0  0  0
 33 34  1  0  0  0
 25 27  1  0  0  0
 25 28  1  0  0  0
M  END
> <minimizedAffinity>
42.29203

> <CNNscore>
0.5033812523

> <CNNaffinity>
6.5178313255

> <CNN_VS>
3.2809541225

> <CNNaffinity_variance>
0.7191841602

$$$$
[H]OC([H])([H])C([H])([H])n1c(C2([H])C([H])([H])C([H])([H])N(c3nc([H])nc(N([H])[H])c3C#N)C([H])([H])C2([H])[H])nc(-c2c([H])c([H])c(F)c(C([H])([H])[H])c2[H])c1[H]


 34 37  0  0  0  0  0  0  0  0999 V2000
   21.3859    6.7624   53.4625 C   0  0  0  0  0  0  0  0  0  0  0  0
   21.1664    7.9032   52.7270 C   0  0  0  0  0  0  0  0  0  0  0  0
   22.1594    8.7879   53.0590 N   0  0  0  0  0  0  0  0  0  0  0  0
   22.9626    8.2213   53.9628 C   0  0  0  0  0  0  0  0  0  0  0  0
   22.4736    6.9919   54.1924 N   0  0  0  0  0  0  0  0  0  0  0  0
   17.0636    4.3483   54.1686 C   0  0  0  0  0  0  0  0  0  0  0  0
   18.4868    4.3765   53.7506 C   0  0  0  0  0  0  0  0  0  0  0  0
   19.2492    5.5438   53.8055 C   0  0  0  0  0  0  0  0  0  0  0  0
   20.5617    5.5616   53.4178 C   0  0  0  0  0  0  0  0  0  0  0  0
   21.1413    4.3978   52.9630 C   0  0  0  0  0  0  0  0  0  0  0  0
   20.4118    3.2275   52.8976 C   0  0  0  0  0  0  0  0  0  0  0  0
   19.0811    3.2194   53.2929 C   0  0  0  0  0  0  0  0  0  0  0  0
   18.3974    2.0373   53.2109 F   0  0  0  0  0  0  0  0  0  0  0  0
   24.1438    8.8010   54.5979 C   0  0  0  0  0  0  0  0  0  0  0  0
   25.0826    7.7283   55.1156 C   0  0  0  0  0  0  0  0  0  0  0  0
   26.4017    8.4330   55.3113 C   0  0  0  0  0  0  0  0  0  0  0  0
   26.2312    9.4778   56.3471 N   0  0  0  0  0  0  0  0  0  0  0  0
   25.0965   10.3315   56.2775 C   0  0  0  0  0  0  0  0  0  0  0  0
   23.8072    9.6279   55.8208 C   0  0  0  0  0  0  0  0  0  0  0  0
   27.2462    9.4726   57.3363 C   0  0  0  0  0  0  0  0  0  0  0  0
   27.6658    8.2944   57.8975 N   0  0  0  0  0  0  0  0  0  0  0  0
   28.5922    8.2581   58.8585 C   0  0  0  0  0  0  0  0  0  0  0  0
   29.1609    9.3708   59.3251 N   0  0  0  0  0  0  0  0  0  0  0  0
   28.8027   10.5608   58.8249 C   0  0  0  0  0  0  0  0  0  0  0  0
   29.3807   11.7838   59.2895 N   0  0  0  0  0  0  0  0  0  0  0  0
   27.8252   10.6018   57.8097 C   0  0  0  0  0  0  0  0  0  0  0  0
   29.1623   12.1217   60.2677 H   0  0  0  0  0  0  0  0  0  0  0  0
   30.0138   12.3710   58.7131 H   0  0  0  0  0  0  0  0  0  0  0  0
   27.5042   11.9021   57.2721 C   0  0  0  0  0  0  0  0  0  0  0  0
   27.2529   12.9603   56.8674 N   0  0  0  0  0  0  0  0  0  0  0  0
   22.2377   10.0898   52.4660 C   0  0  0  0  0  0  0  0  0  0  0  0
   21.3958   11.0473   53.2555 C   0  0  0  0  0  0  0  0  0  0  0  0
   21.3261   10.7988   54.6019 O   0  0  0  0  0  0  0  0  0  0  0  0
   21.4540   11.6209   55.1626 H   0  0  0  0  0  0  0  0  0  0  0  0
  6  7  1  0  0  0
  7  8  2  0  0  0
  8  9  1  0  0  0
  9  1  1  0  0  0
  1  2  2  0  0  0
  2  3  1  0  0  0
  3 31  1  0  0  0
 31 32  1  0  0  0
 32 33  1  0  0  0
  3  4  1  0  0  0
  4 14  1  0  0  0
 14 15  1  0  0  0
 15 16  1  0  0  0
 16 17  1  0  0  0
 17 20  1  0  0  0
 20 21  2  0  0  0
 21 22  1  0  0  0
 22 23  2  0  0  0
 23 24  1  0  0  0
 24 25  1  0  0  0
 24 26  2  0  0  0
 26 29  1  0  0  0
 29 30  3  0  0  0
 17 18  1  0  0  0
 18 19  1  0  0  0
  4  5  2  0  0  0
  9 10  2  0  0  0
 10 11  1  0  0  0
 11 12  2  0  0  0
 12 13  1  0  0  0
 12  7  1  0  0  0
  5  1  1  0  0  0
 19 14  1  0  0  0
 26 20  1  0  0  0
 33 34  1  0  0  0
 25 27  1  0  0  0
 25 28  1  0  0  0
M  END
> <minimizedAffinity>
28.53882

> <CNNscore>
0.4690807462

> <CNNaffinity>
6.5472459793

> <CNN_VS>
3.0711870193

> <CNNaffinity_variance>
0.5754091144

$$$$
[H]OC([H])([H])C([H])([H])n1c(C2([H])C([H])([H])C([H])([H])N(c3nc([H])nc(N([H])[H])c3C#N)C([H])([H])C2([H])[H])nc(-c2c([H])c([H])c(F)c(C([H])([H])[H])c2[H])c1[H]


 34 37  0  0  0  0  0  0  0  0999 V2000
   24.1241    8.2387   53.7738 C   0  0  0  0  0  0  0  0  0  0  0  0
   23.3889    9.2696   53.2378 C   0  0  0  0  0  0  0  0  0  0  0  0
   22.1488    8.7639   52.9456 N   0  0  0  0  0  0  0  0  0  0  0  0
   22.1143    7.4730   53.2853 C   0  0  0  0  0  0  0  0  0  0  0  0
   23.3244    7.1762   53.7860 N   0  0  0  0  0  0  0  0  0  0  0  0
   27.5683    9.3466   57.2263 C   0  0  0  0  0  0  0  0  0  0  0  0
   27.1847    8.8658   55.8763 C   0  0  0  0  0  0  0  0  0  0  0  0
   25.8514    8.7827   55.4735 C   0  0  0  0  0  0  0  0  0  0  0  0
   25.5058    8.3378   54.2262 C   0  0  0  0  0  0  0  0  0  0  0  0
   26.5000    7.9639   53.3494 C   0  0  0  0  0  0  0  0  0  0  0  0
   27.8280    8.0353   53.7198 C   0  0  0  0  0  0  0  0  0  0  0  0
   28.1688    8.4878   54.9872 C   0  0  0  0  0  0  0  0  0  0  0  0
   29.4969    8.5419   55.3108 F   0  0  0  0  0  0  0  0  0  0  0  0
   20.9974    6.5413   53.1469 C   0  0  0  0  0  0  0  0  0  0  0  0
   19.6898    7.1670   53.5928 C   0  0  0  0  0  0  0  0  0  0  0  0
   18.6191    6.2968   52.9834 C   0  0  0  0  0  0  0  0  0  0  0  0
   18.7326    4.9357   53.5560 N   0  0  0  0  0  0  0  0  0  0  0  0
   20.0185    4.3357   53.6449 C   0  0  0  0  0  0  0  0  0  0  0  0
   21.1442    5.3140   54.0212 C   0  0  0  0  0  0  0  0  0  0  0  0
   17.4972    4.3941   53.9912 C   0  0  0  0  0  0  0  0  0  0  0  0
   16.3639    4.5497   53.2358 N   0  0  0  0  0  0  0  0  0  0  0  0
   15.1774    4.0853   53.6351 C   0  0  0  0  0  0  0  0  0  0  0  0
   15.0314    3.4425   54.7947 N   0  0  0  0  0  0  0  0  0  0  0  0
   16.0943    3.2511   55.5874 C   0  0  0  0  0  0  0  0  0  0  0  0
   15.9928    2.5689   56.8404 N   0  0  0  0  0  0  0  0  0  0  0  0
   17.3483    3.7400   55.1678 C   0  0  0  0  0  0  0  0  0  0  0  0
   15.4712    3.0260   57.6389 H   0  0  0  0  0  0  0  0  0  0  0  0
   16.4086    1.6340   57.0165 H   0  0  0  0  0  0  0  0  0  0  0  0
   18.4708    3.4716   56.0342 C   0  0  0  0  0  0  0  0  0  0  0  0
   19.3864    3.2389   56.7084 N   0  0  0  0  0  0  0  0  0  0  0  0
   21.1187    9.5787   52.3732 C   0  0  0  0  0  0  0  0  0  0  0  0
   21.5763   11.0064   52.3372 C   0  0  0  0  0  0  0  0  0  0  0  0
   21.4733   11.6277   51.1195 O   0  0  0  0  0  0  0  0  0  0  0  0
   21.0698   12.5444   51.1764 H   0  0  0  0  0  0  0  0  0  0  0  0
  6  7  1  0  0  0
  7  8  2  0  0  0
  8  9  1  0  0  0
  9  1  1  0  0  0
  1  2  2  0  0  0
  2  3  1  0  0  0
  3 31  1  0  0  0
 31 32  1  0  0  0
 32 33  1  0  0  0
  3  4  1  0  0  0
  4 14  1  0  0  0
 14 15  1  0  0  0
 15 16  1  0  0  0
 16 17  1  0  0  0
 17 20  1  0  0  0
 20 21  2  0  0  0
 21 22  1  0  0  0
 22 23  2  0  0  0
 23 24  1  0  0  0
 24 25  1  0  0  0
 24 26  2  0  0  0
 26 29  1  0  0  0
 29 30  3  0  0  0
 17 18  1  0  0  0
 18 19  1  0  0  0
  4  5  2  0  0  0
  9 10  2  0  0  0
 10 11  1  0  0  0
 11 12  2  0  0  0
 12 13  1  0  0  0
 12  7  1  0  0  0
  5  1  1  0  0  0
 19 14  1  0  0  0
 26 20  1  0  0  0
 33 34  1  0  0  0
 25 27  1  0  0  0
 25 28  1  0  0  0
M  END
> <minimizedAffinity>
31.87352

> <CNNscore>
0.4386166632

> <CNNaffinity>
6.5473937988

> <CNN_VS>
2.8717961311

> <CNNaffinity_variance>
1.2787517309

$$$$
[H]OC([H])([H])C([H])([H])n1c(C2([H])C([H])([H])C([H])([H])N(c3nc([H])nc(N([H])[H])c3C#N)C([H])([H])C2([H])[H])nc(-c2c([H])c([H])c(F)c(C([H])([H])[H])c2[H])c1[H]


 34 37  0  0  0  0  0  0  0  0999 V2000
   24.6478    8.1797   53.9584 C   0  0  0  0  0  0  0  0  0  0  0  0
   24.0424    8.9048   52.9592 C   0  0  0  0  0  0  0  0  0  0  0  0
   22.7464    8.4658   52.8784 N   0  0  0  0  0  0  0  0  0  0  0  0
   22.5538    7.5081   53.7886 C   0  0  0  0  0  0  0  0  0  0  0  0
   23.7217    7.3513   54.4325 N   0  0  0  0  0  0  0  0  0  0  0  0
   28.1288    9.4960   57.2989 C   0  0  0  0  0  0  0  0  0  0  0  0
   27.7314    8.9532   55.9767 C   0  0  0  0  0  0  0  0  0  0  0  0
   26.3932    8.8269   55.6025 C   0  0  0  0  0  0  0  0  0  0  0  0
   26.0348    8.3250   54.3806 C   0  0  0  0  0  0  0  0  0  0  0  0
   27.0210    7.9361   53.5012 C   0  0  0  0  0  0  0  0  0  0  0  0
   28.3536    8.0493   53.8437 C   0  0  0  0  0  0  0  0  0  0  0  0
   28.7073    8.5595   55.0853 C   0  0  0  0  0  0  0  0  0  0  0  0
   30.0395    8.6535   55.3816 F   0  0  0  0  0  0  0  0  0  0  0  0
   21.3281    6.7578   54.0518 C   0  0  0  0  0  0  0  0  0  0  0  0
   21.4245    5.3334   53.5398 C   0  0  0  0  0  0  0  0  0  0  0  0
   20.3289    4.5898   54.2620 C   0  0  0  0  0  0  0  0  0  0  0  0
   19.0239    5.1669   53.8652 N   0  0  0  0  0  0  0  0  0  0  0  0
   18.8793    6.5811   53.8436 C   0  0  0  0  0  0  0  0  0  0  0  0
   20.1227    7.3327   53.3385 C   0  0  0  0  0  0  0  0  0  0  0  0
   18.0539    4.1961   53.5110 C   0  0  0  0  0  0  0  0  0  0  0  0
   18.4382    2.9602   53.0592 N   0  0  0  0  0  0  0  0  0  0  0  0
   17.5506    2.0369   52.6813 C   0  0  0  0  0  0  0  0  0  0  0  0
   16.2378    2.2691   52.7236 N   0  0  0  0  0  0  0  0  0  0  0  0
   15.7856    3.4542   53.1548 C   0  0  0  0  0  0  0  0  0  0  0  0
   14.3888    3.7549   53.2197 N   0  0  0  0  0  0  0  0  0  0  0  0
   16.7206    4.4305   53.5550 C   0  0  0  0  0  0  0  0  0  0  0  0
   13.8397    3.8643   52.3224 H   0  0  0  0  0  0  0  0  0  0  0  0
   13.8717    3.8746   54.1120 H   0  0  0  0  0  0  0  0  0  0  0  0
   16.1848    5.6746   54.0528 C   0  0  0  0  0  0  0  0  0  0  0  0
   15.7423    6.6809   54.4248 N   0  0  0  0  0  0  0  0  0  0  0  0
   21.8212    9.0191   51.9346 C   0  0  0  0  0  0  0  0  0  0  0  0
   21.3921   10.3794   52.3976 C   0  0  0  0  0  0  0  0  0  0  0  0
   21.4307   10.5798   53.7533 O   0  0  0  0  0  0  0  0  0  0  0  0
   21.8559   11.4508   54.0121 H   0  0  0  0  0  0  0  0  0  0  0  0
  6  7  1  0  0  0
  7  8  2  0  0  0
  8  9  1  0  0  0
  9  1  1  0  0  0
  1  2  2  0  0  0
  2  3  1  0  0  0
  3 31  1  0  0  0
 31 32  1  0  0  0
 32 33  1  0  0  0
  3  4  1  0  0  0
  4 14  1  0  0  0
 14 15  1  0  0  0
 15 16  1  0  0  0
 16 17  1  0  0  0
 17 20  1  0  0  0
 20 21  2  0  0  0
 21 22  1  0  0  0
 22 23  2  0  0  0
 23 24  1  0  0  0
 24 25  1  0  0  0
 24 26  2  0  0  0
 26 29  1  0  0  0
 29 30  3  0  0  0
 17 18  1  0  0  0
 18 19  1  0  0  0
  4  5  2  0  0  0
  9 10  2  0  0  0
 10 11  1  0  0  0
 11 12  2  0  0  0
 12 13  1  0  0  0
 12  7  1  0  0  0
  5  1  1  0  0  0
 19 14  1  0  0  0
 26 20  1  0  0  0
 33 34  1  0  0  0
 25 27  1  0  0  0
 25 28  1  0  0  0
M  END
> <minimizedAffinity>
29.31532

> <CNNscore>
0.4323637784

> <CNNaffinity>
6.4186277390

> <CNN_VS>
2.7751822472

> <CNNaffinity_variance>
1.1440249681

$$$$
[H]OC([H])([H])C([H])([H])n1c(C2([H])C([H])([H])C([H])([H])N(c3nc([H])nc(N([H])[H])c3C#N)C([H])([H])C2([H])[H])nc(-c2c([H])c([H])c(F)c(C([H])([H])[H])c2[H])c1[H]


 34 37  0  0  0  0  0  0  0  0999 V2000
   19.4892    5.7826   53.4968 C   0  0  0  0  0  0  0  0  0  0  0  0
   19.3195    7.1470   53.5030 C   0  0  0  0  0  0  0  0  0  0  0  0
   20.5720    7.7038   53.4888 N   0  0  0  0  0  0  0  0  0  0  0  0
   21.4822    6.7269   53.4746 C   0  0  0  0  0  0  0  0  0  0  0  0
   20.8017    5.5693   53.4796 N   0  0  0  0  0  0  0  0  0  0  0  0
   17.5853    1.3074   52.3317 C   0  0  0  0  0  0  0  0  0  0  0  0
   17.4729    2.6484   52.9561 C   0  0  0  0  0  0  0  0  0  0  0  0
   18.5237    3.5659   52.9287 C   0  0  0  0  0  0  0  0  0  0  0  0
   18.4120    4.8012   53.5073 C   0  0  0  0  0  0  0  0  0  0  0  0
   17.2329    5.1443   54.1310 C   0  0  0  0  0  0  0  0  0  0  0  0
   16.1759    4.2572   54.1740 C   0  0  0  0  0  0  0  0  0  0  0  0
   16.2986    3.0065   53.5844 C   0  0  0  0  0  0  0  0  0  0  0  0
   15.2258    2.1603   53.6515 F   0  0  0  0  0  0  0  0  0  0  0  0
   22.9371    6.8602   53.4612 C   0  0  0  0  0  0  0  0  0  0  0  0
   23.5167    6.7949   54.8611 C   0  0  0  0  0  0  0  0  0  0  0  0
   24.9799    6.4905   54.6581 C   0  0  0  0  0  0  0  0  0  0  0  0
   25.6000    7.6160   53.9219 N   0  0  0  0  0  0  0  0  0  0  0  0
   24.9300    8.1405   52.7829 C   0  0  0  0  0  0  0  0  0  0  0  0
   23.3995    8.1985   52.9249 C   0  0  0  0  0  0  0  0  0  0  0  0
   26.8177    8.0681   54.4893 C   0  0  0  0  0  0  0  0  0  0  0  0
   28.0191    7.6021   54.0217 N   0  0  0  0  0  0  0  0  0  0  0  0
   29.1821    7.9784   54.5592 C   0  0  0  0  0  0  0  0  0  0  0  0
   29.2368    8.8311   55.5835 N   0  0  0  0  0  0  0  0  0  0  0  0
   28.1034    9.3301   56.0945 C   0  0  0  0  0  0  0  0  0  0  0  0
   28.1057   10.2470   57.1922 N   0  0  0  0  0  0  0  0  0  0  0  0
   26.8741    8.9349   55.5284 C   0  0  0  0  0  0  0  0  0  0  0  0
   28.3963    9.9075   58.1508 H   0  0  0  0  0  0  0  0  0  0  0  0
   27.8338   11.2451   57.1027 H   0  0  0  0  0  0  0  0  0  0  0  0
   25.6837    9.5324   56.0839 C   0  0  0  0  0  0  0  0  0  0  0  0
   24.7092    9.9927   56.5144 N   0  0  0  0  0  0  0  0  0  0  0  0
   20.7653    9.1234   53.4841 C   0  0  0  0  0  0  0  0  0  0  0  0
   20.9687    9.6023   54.8907 C   0  0  0  0  0  0  0  0  0  0  0  0
   22.1470   10.2632   55.1235 O   0  0  0  0  0  0  0  0  0  0  0  0
   22.0285   11.1085   55.6507 H   0  0  0  0  0  0  0  0  0  0  0  0
  6  7  1  0  0  0
  7  8  2  0  0  0
  8  9  1  0  0  0
  9  1  1  0  0  0
  1  2  2  0  0  0
  2  3  1  0  0  0
  3 31  1  0  0  0
 31 32  1  0  0  0
 32 33  1  0  0  0
  3  4  1  0  0  0
  4 14  1  0  0  0
 14 15  1  0  0  0
 15 16  1  0  0  0
 16 17  1  0  0  0
 17 20  1  0  0  0
 20 21  2  0  0  0
 21 22  1  0  0  0
 22 23  2  0  0  0
 23 24  1  0  0  0
 24 25  1  0  0  0
 24 26  2  0  0  0
 26 29  1  0  0  0
 29 30  3  0  0  0
 17 18  1  0  0  0
 18 19  1  0  0  0
  4  5  2  0  0  0
  9 10  2  0  0  0
 10 11  1  0  0  0
 11 12  2  0  0  0
 12 13  1  0  0  0
 12  7  1  0  0  0
  5  1  1  0  0  0
 19 14  1  0  0  0
 26 20  1  0  0  0
 33 34  1  0  0  0
 25 27  1  0  0  0
 25 28  1  0  0  0
M  END
> <minimizedAffinity>
26.36064

> <CNNscore>
0.4314912260

> <CNNaffinity>
6.3802833557

> <CNN_VS>
2.7530362606

> <CNNaffinity_variance>
0.9410218000

$$$$
[H]OC([H])([H])C([H])([H])n1c(C2([H])C([H])([H])C([H])([H])N(c3nc([H])nc(N([H])[H])c3C#N)C([H])([H])C2([H])[H])nc(-c2c([H])c([H])c(F)c(C([H])([H])[H])c2[H])c1[H]


 34 37  0  0  0  0  0  0  0  0999 V2000
   23.3041    8.7767   53.4102 C   0  0  0  0  0  0  0  0  0  0  0  0
   23.2924    7.4078   53.5388 C   0  0  0  0  0  0  0  0  0  0  0  0
   24.2817    7.0835   54.4305 N   0  0  0  0  0  0  0  0  0  0  0  0
   24.8834    8.2034   54.8390 C   0  0  0  0  0  0  0  0  0  0  0  0
   24.2732    9.2186   54.2065 N   0  0  0  0  0  0  0  0  0  0  0  0
   21.5476   13.1094   51.6348 C   0  0  0  0  0  0  0  0  0  0  0  0
   21.5477   11.6267   51.6860 C   0  0  0  0  0  0  0  0  0  0  0  0
   22.4168   10.9167   52.5150 C   0  0  0  0  0  0  0  0  0  0  0  0
   22.4106    9.5487   52.5564 C   0  0  0  0  0  0  0  0  0  0  0  0
   21.5240    8.8588   51.7594 C   0  0  0  0  0  0  0  0  0  0  0  0
   20.6521    9.5342   50.9290 C   0  0  0  0  0  0  0  0  0  0  0  0
   20.6658   10.9219   50.8939 C   0  0  0  0  0  0  0  0  0  0  0  0
   19.7843   11.5487   50.0563 F   0  0  0  0  0  0  0  0  0  0  0  0
   25.9919    8.3300   55.7823 C   0  0  0  0  0  0  0  0  0  0  0  0
   25.5679    9.0483   57.0490 C   0  0  0  0  0  0  0  0  0  0  0  0
   26.6322    8.7049   58.0609 C   0  0  0  0  0  0  0  0  0  0  0  0
   27.9252    9.2556   57.5936 N   0  0  0  0  0  0  0  0  0  0  0  0
   28.3002    9.0630   56.2358 C   0  0  0  0  0  0  0  0  0  0  0  0
   27.1322    9.1656   55.2402 C   0  0  0  0  0  0  0  0  0  0  0  0
   28.6397    9.9626   58.5929 C   0  0  0  0  0  0  0  0  0  0  0  0
   29.4172    9.2906   59.5001 N   0  0  0  0  0  0  0  0  0  0  0  0
   30.0723    9.9229   60.4769 C   0  0  0  0  0  0  0  0  0  0  0  0
   30.0048   11.2471   60.6222 N   0  0  0  0  0  0  0  0  0  0  0  0
   29.2650   11.9723   59.7728 C   0  0  0  0  0  0  0  0  0  0  0  0
   29.1581   13.3943   59.8839 N   0  0  0  0  0  0  0  0  0  0  0  0
   28.5728   11.3073   58.7402 C   0  0  0  0  0  0  0  0  0  0  0  0
   28.6382   13.8127   60.7045 H   0  0  0  0  0  0  0  0  0  0  0  0
   29.5681   14.0531   59.1940 H   0  0  0  0  0  0  0  0  0  0  0  0
   27.8248   12.1348   57.8245 C   0  0  0  0  0  0  0  0  0  0  0  0
   27.1999   12.7800   57.0897 N   0  0  0  0  0  0  0  0  0  0  0  0
   24.5435    5.7254   54.8042 C   0  0  0  0  0  0  0  0  0  0  0  0
   23.3571    5.1737   55.5372 C   0  0  0  0  0  0  0  0  0  0  0  0
   22.4167    6.0967   55.9153 O   0  0  0  0  0  0  0  0  0  0  0  0
   21.4772    5.8104   55.7104 H   0  0  0  0  0  0  0  0  0  0  0  0
  6  7  1  0  0  0
  7  8  2  0  0  0
  8  9  1  0  0  0
  9  1  1  0  0  0
  1  2  2  0  0  0
  2  3  1  0  0  0
  3 31  1  0  0  0
 31 32  1  0  0  0
 32 33  1  0  0  0
  3  4  1  0  0  0
  4 14  1  0  0  0
 14 15  1  0  0  0
 15 16  1  0  0  0
 16 17  1  0  0  0
 17 20  1  0  0  0
 20 21  2  0  0  0
 21 22  1  0  0  0
 22 23  2  0  0  0
 23 24  1  0  0  0
 24 25  1  0  0  0
 24 26  2  0  0  0
 26 29  1  0  0  0
 29 30  3  0  0  0
 17 18  1  0  0  0
 18 19  1  0  0  0
  4  5  2  0  0  0
  9 10  2  0  0  0
 10 11  1  0  0  0
 11 12  2  0  0  0
 12 13  1  0  0  0
 12  7  1  0  0  0
  5  1  1  0  0  0
 19 14  1  0  0  0
 26 20  1  0  0  0
 33 34  1  0  0  0
 25 27  1  0  0  0
 25 28  1  0  0  0
M  END
> <minimizedAffinity>
26.54456

> <CNNscore>
0.4019517303

> <CNNaffinity>
6.1257076263

> <CNN_VS>
2.4622387886

> <CNNaffinity_variance>
0.2475322485

$$$$
[H]OC([H])([H])C([H])([H])n1c(C2([H])C([H])([H])C([H])([H])N(c3nc([H])nc(N([H])[H])c3C#N)C([H])([H])C2([H])[H])nc(-c2c([H])c([H])c(F)c(C([H])([H])[H])c2[H])c1[H]


 34 37  0  0  0  0  0  0  0  0999 V2000
   21.3024    6.1847   53.5944 C   0  0  0  0  0  0  0  0  0  0  0  0
   21.3959    7.2979   52.7928 C   0  0  0  0  0  0  0  0  0  0  0  0
   22.4504    8.0379   53.2611 N   0  0  0  0  0  0  0  0  0  0  0  0
   22.9899    7.4116   54.3097 C   0  0  0  0  0  0  0  0  0  0  0  0
   22.2767    6.2888   54.4936 N   0  0  0  0  0  0  0  0  0  0  0  0
   16.7224    4.2985   54.2838 C   0  0  0  0  0  0  0  0  0  0  0  0
   18.1105    4.1944   53.7705 C   0  0  0  0  0  0  0  0  0  0  0  0
   19.0344    5.2284   53.9259 C   0  0  0  0  0  0  0  0  0  0  0  0
   20.3132    5.1246   53.4493 C   0  0  0  0  0  0  0  0  0  0  0  0
   20.6946    3.9707   52.8012 C   0  0  0  0  0  0  0  0  0  0  0  0
   19.8023    2.9308   52.6326 C   0  0  0  0  0  0  0  0  0  0  0  0
   18.5073    3.0454   53.1194 C   0  0  0  0  0  0  0  0  0  0  0  0
   17.6575    1.9902   52.9296 F   0  0  0  0  0  0  0  0  0  0  0  0
   24.1277    7.8408   55.1196 C   0  0  0  0  0  0  0  0  0  0  0  0
   23.7811    9.0430   55.9767 C   0  0  0  0  0  0  0  0  0  0  0  0
   24.8476    9.0760   57.0427 C   0  0  0  0  0  0  0  0  0  0  0  0
   26.1598    9.2982   56.3930 N   0  0  0  0  0  0  0  0  0  0  0  0
   26.4876    8.5396   55.2361 C   0  0  0  0  0  0  0  0  0  0  0  0
   25.3033    8.3013   54.2839 C   0  0  0  0  0  0  0  0  0  0  0  0
   26.9417   10.3042   57.0138 C   0  0  0  0  0  0  0  0  0  0  0  0
   26.7741   11.6227   56.6781 N   0  0  0  0  0  0  0  0  0  0  0  0
   27.5204   12.5907   57.2158 C   0  0  0  0  0  0  0  0  0  0  0  0
   28.4722   12.3250   58.1117 N   0  0  0  0  0  0  0  0  0  0  0  0
   28.6944   11.0593   58.4903 C   0  0  0  0  0  0  0  0  0  0  0  0
   29.7021   10.7197   59.4468 N   0  0  0  0  0  0  0  0  0  0  0  0
   27.9074   10.0355   57.9246 C   0  0  0  0  0  0  0  0  0  0  0  0
   30.7216   10.8278   59.1864 H   0  0  0  0  0  0  0  0  0  0  0  0
   29.4889   10.3665   60.3995 H   0  0  0  0  0  0  0  0  0  0  0  0
   28.1540    8.6939   58.3959 C   0  0  0  0  0  0  0  0  0  0  0  0
   28.3827    7.6193   58.7699 N   0  0  0  0  0  0  0  0  0  0  0  0
   22.8361    9.2730   52.6458 C   0  0  0  0  0  0  0  0  0  0  0  0
   21.7274   10.2715   52.7969 C   0  0  0  0  0  0  0  0  0  0  0  0
   21.3689   10.5631   54.0875 O   0  0  0  0  0  0  0  0  0  0  0  0
   21.2655   11.5466   54.2564 H   0  0  0  0  0  0  0  0  0  0  0  0
  6  7  1  0  0  0
  7  8  2  0  0  0
  8  9  1  0  0  0
  9  1  1  0  0  0
  1  2  2  0  0  0
  2  3  1  0  0  0
  3 31  1  0  0  0
 31 32  1  0  0  0
 32 33  1  0  0  0
  3  4  1  0  0  0
  4 14  1  0  0  0
 14 15  1  0  0  0
 15 16  1  0  0  0
 16 17  1  0  0  0
 17 20  1  0  0  0
 20 21  2  0  0  0
 21 22  1  0  0  0
 22 23  2  0  0  0
 23 24  1  0  0  0
 24 25  1  0  0  0
 24 26  2  0  0  0
 26 29  1  0  0  0
 29 30  3  0  0  0
 17 18  1  0  0  0
 18 19  1  0  0  0
  4  5  2  0  0  0
  9 10  2  0  0  0
 10 11  1  0  0  0
 11 12  2  0  0  0
 12 13  1  0  0  0
 12  7  1  0  0  0
  5  1  1  0  0  0
 19 14  1  0  0  0
 26 20  1  0  0  0
 33 34  1  0  0  0
 25 27  1  0  0  0
 25 28  1  0  0  0
M  END
> <minimizedAffinity>
31.25170

> <CNNscore>
0.3942540586

> <CNNaffinity>
6.1565628052

> <CNN_VS>
2.4272499084

> <CNNaffinity_variance>
0.3832628131

$$$$
[H]Cl.[H]O[C@]([H])(C(=O)N([H])[C@]([H])(C(=O)OC([H])([H])n1c([H])c(F)c(=O)n([H])c1=O)C([H])([H])C([H])(C([H])([H])[H])C([H])([H])[H])[C@]([H])(N([H])[H])C([H])([H])c1c([H])c([H])c([H])c([H])c1[H]


 37 38  0  0  0  0  0  0  0  0999 V2000
   27.2370    9.1446   54.6860 C   0  0  0  0  0  0  0  0  0  0  0  0
   25.8753    8.6666   54.9565 N   0  0  0  0  0  0  0  0  0  0  0  0
   25.4204    7.4080   54.4769 C   0  0  0  0  0  0  0  0  0  0  0  0
   26.2195    6.7118   53.8111 O   0  0  0  0  0  0  0  0  0  0  0  0
   25.1996    9.2375   55.5097 H   0  0  0  0  0  0  0  0  0  0  0  0
   24.0488    6.9062   54.7395 C   0  0  0  0  0  0  0  0  0  0  0  0
   23.3054    7.9068   55.3501 O   0  0  0  0  0  0  0  0  0  0  0  0
   22.9097    8.4899   54.6608 H   0  0  0  0  0  0  0  0  0  0  0  0
   23.3396    6.4997   53.4553 C   0  0  0  0  0  0  0  0  0  0  0  0
   24.1424    5.6374   52.6471 N   0  0  0  0  0  0  0  0  0  0  0  0
   23.6198    4.8615   52.1987 H   0  0  0  0  0  0  0  0  0  0  0  0
   24.8301    6.0913   52.0407 H   0  0  0  0  0  0  0  0  0  0  0  0
   22.9909    7.7697   52.7281 C   0  0  0  0  0  0  0  0  0  0  0  0
   22.1755    8.7036   53.5315 C   0  0  0  0  0  0  0  0  0  0  0  0
   21.2748    8.2764   54.4930 C   0  0  0  0  0  0  0  0  0  0  0  0
   20.5127    9.1544   55.2442 C   0  0  0  0  0  0  0  0  0  0  0  0
   20.6408   10.4972   55.0431 C   0  0  0  0  0  0  0  0  0  0  0  0
   21.5206   10.9670   54.1012 C   0  0  0  0  0  0  0  0  0  0  0  0
   22.2698   10.0881   53.3634 C   0  0  0  0  0  0  0  0  0  0  0  0
   27.7366    8.5239   53.4345 C   0  0  0  0  0  0  0  0  0  0  0  0
   28.4071    7.4396   53.5620 O   0  0  0  0  0  0  0  0  0  0  0  0
   27.5683    8.9640   52.1678 O   0  0  0  0  0  0  0  0  0  0  0  0
   27.9494    8.4585   50.9490 C   0  0  0  0  0  0  0  0  0  0  0  0
   28.2558    9.3824   49.9056 N   0  0  0  0  0  0  0  0  0  0  0  0
   28.2966    9.1245   48.5903 C   0  0  0  0  0  0  0  0  0  0  0  0
   28.6276   10.1057   47.6473 C   0  0  0  0  0  0  0  0  0  0  0  0
   28.6612    9.8215   46.3300 F   0  0  0  0  0  0  0  0  0  0  0  0
   28.9222   11.3748   48.0650 C   0  0  0  0  0  0  0  0  0  0  0  0
   29.2294   12.3240   47.3106 O   0  0  0  0  0  0  0  0  0  0  0  0
   28.8743   11.6095   49.3994 N   0  0  0  0  0  0  0  0  0  0  0  0
   28.5560   10.6548   50.2699 C   0  0  0  0  0  0  0  0  0  0  0  0
   28.5400   10.9823   51.5064 O   0  0  0  0  0  0  0  0  0  0  0  0
   29.0982   12.5824   49.7459 H   0  0  0  0  0  0  0  0  0  0  0  0
   28.1057    8.9697   55.8791 C   0  0  0  0  0  0  0  0  0  0  0  0
   27.9109    8.8397   58.3706 C   0  0  0  0  0  0  0  0  0  0  0  0
   27.5697    9.6325   57.1041 C   0  0  0  0  0  0  0  0  0  0  0  0
   28.1617   11.0475   57.2377 C   0  0  0  0  0  0  0  0  0  0  0  0
 35 36  1  0  0  0
 36 37  1  0  0  0
 36 34  1  0  0  0
 34  1  1  0  0  0
  1  2  1  0  0  0
  2  3  1  0  0  0
  3  4  2  0  0  0
  3  6  1  0  0  0
  6  7  1  0  0  0
  6  9  1  0  0  0
  9 10  1  0  0  0
  9 13  1  0  0  0
 13 14  1  0  0  0
 14 15  2  0  0  0
 15 16  1  0  0  0
 16 17  2  0  0  0
 17 18  1  0  0  0
 18 19  2  0  0  0
  1 20  1  0  0  0
 20 21  2  0  0  0
 20 22  1  0  0  0
 22 23  1  0  0  0
 23 24  1  0  0  0
 24 25  1  0  0  0
 25 26  2  0  0  0
 26 27  1  0  0  0
 26 28  1  0  0  0
 28 29  2  0  0  0
 28 30  1  0  0  0
 30 31  1  0  0  0
 31 32  2  0  0  0
 19 14  1  0  0  0
 31 24  1  0  0  0
  2  5  1  0  0  0
  7  8  1  0  0  0
 10 11  1  0  0  0
 10 12  1  0  0  0
 30 33  1  0  0  0
M  END
> <minimizedAffinity>
17.52719

> <CNNscore>
0.5354974270

> <CNNaffinity>
5.9896774292

> <CNN_VS>
3.2074568272

> <CNNaffinity_variance>
0.2173054665

$$$$
[H]Cl.[H]O[C@]([H])(C(=O)N([H])[C@]([H])(C(=O)OC([H])([H])n1c([H])c(F)c(=O)n([H])c1=O)C([H])([H])C([H])(C([H])([H])[H])C([H])([H])[H])[C@]([H])(N([H])[H])C([H])([H])c1c([H])c([H])c([H])c([H])c1[H]


 37 38  0  0  0  0  0  0  0  0999 V2000
   24.6153    8.5995   55.0855 C   0  0  0  0  0  0  0  0  0  0  0  0
   25.9003    9.0549   55.6307 N   0  0  0  0  0  0  0  0  0  0  0  0
   27.1261    8.4386   55.2581 C   0  0  0  0  0  0  0  0  0  0  0  0
   27.0798    7.4880   54.4453 O   0  0  0  0  0  0  0  0  0  0  0  0
   25.9523    9.8458   56.3091 H   0  0  0  0  0  0  0  0  0  0  0  0
   28.4352    8.8837   55.7967 C   0  0  0  0  0  0  0  0  0  0  0  0
   28.9041    9.9468   55.0372 O   0  0  0  0  0  0  0  0  0  0  0  0
   28.5279   10.7896   55.3833 H   0  0  0  0  0  0  0  0  0  0  0  0
   28.3250    9.3422   57.2441 C   0  0  0  0  0  0  0  0  0  0  0  0
   27.3947    8.5541   57.9887 N   0  0  0  0  0  0  0  0  0  0  0  0
   27.6997    8.3302   58.9547 H   0  0  0  0  0  0  0  0  0  0  0  0
   26.4085    8.8135   57.9051 H   0  0  0  0  0  0  0  0  0  0  0  0
   27.9200   10.7907   57.2138 C   0  0  0  0  0  0  0  0  0  0  0  0
   28.4121   11.5643   58.3722 C   0  0  0  0  0  0  0  0  0  0  0  0
   28.0410   12.8775   58.6094 C   0  0  0  0  0  0  0  0  0  0  0  0
   28.5038   13.5992   59.6961 C   0  0  0  0  0  0  0  0  0  0  0  0
   29.3601   13.0098   60.5789 C   0  0  0  0  0  0  0  0  0  0  0  0
   29.7555   11.7106   60.3847 C   0  0  0  0  0  0  0  0  0  0  0  0
   29.2908   11.0060   59.3051 C   0  0  0  0  0  0  0  0  0  0  0  0
   24.8557    7.8161   53.8488 C   0  0  0  0  0  0  0  0  0  0  0  0
   25.3141    8.4627   52.8422 O   0  0  0  0  0  0  0  0  0  0  0  0
   24.6507    6.4946   53.6530 O   0  0  0  0  0  0  0  0  0  0  0  0
   23.5367    5.7660   53.3151 C   0  0  0  0  0  0  0  0  0  0  0  0
   22.3915    6.4724   52.8402 N   0  0  0  0  0  0  0  0  0  0  0  0
   22.3867    7.5708   52.0710 C   0  0  0  0  0  0  0  0  0  0  0  0
   21.1994    8.1986   51.6737 C   0  0  0  0  0  0  0  0  0  0  0  0
   21.2211    9.3020   50.8996 F   0  0  0  0  0  0  0  0  0  0  0  0
   19.9956    7.6873   52.0752 C   0  0  0  0  0  0  0  0  0  0  0  0
   18.8790    8.1670   51.7790 O   0  0  0  0  0  0  0  0  0  0  0  0
   20.0276    6.5769   52.8523 N   0  0  0  0  0  0  0  0  0  0  0  0
   21.1733    6.0040   53.2125 C   0  0  0  0  0  0  0  0  0  0  0  0
   21.0913    4.9600   53.9471 O   0  0  0  0  0  0  0  0  0  0  0  0
   19.1100    6.1638   53.1750 H   0  0  0  0  0  0  0  0  0  0  0  0
   23.6660    9.7349   54.9504 C   0  0  0  0  0  0  0  0  0  0  0  0
   21.7083    8.3852   55.7302 C   0  0  0  0  0  0  0  0  0  0  0  0
   22.2702    9.3063   54.6418 C   0  0  0  0  0  0  0  0  0  0  0  0
   21.3559   10.5395   54.5237 C   0  0  0  0  0  0  0  0  0  0  0  0
 35 36  1  0  0  0
 36 37  1  0  0  0
 36 34  1  0  0  0
 34  1  1  0  0  0
  1  2  1  0  0  0
  2  3  1  0  0  0
  3  4  2  0  0  0
  3  6  1  0  0  0
  6  7  1  0  0  0
  6  9  1  0  0  0
  9 10  1  0  0  0
  9 13  1  0  0  0
 13 14  1  0  0  0
 14 15  2  0  0  0
 15 16  1  0  0  0
 16 17  2  0  0  0
 17 18  1  0  0  0
 18 19  2  0  0  0
  1 20  1  0  0  0
 20 21  2  0  0  0
 20 22  1  0  0  0
 22 23  1  0  0  0
 23 24  1  0  0  0
 24 25  1  0  0  0
 25 26  2  0  0  0
 26 27  1  0  0  0
 26 28  1  0  0  0
 28 29  2  0  0  0
 28 30  1  0  0  0
 30 31  1  0  0  0
 31 32  2  0  0  0
 19 14  1  0  0  0
 31 24  1  0  0  0
  2  5  1  0  0  0
  7  8  1  0  0  0
 10 11  1  0  0  0
 10 12  1  0  0  0
 30 33  1  0  0  0
M  END
> <minimizedAffinity>
5.68001

> <CNNscore>
0.5194824338

> <CNNaffinity>
6.4186997414

> <CNN_VS>
3.3344018459

> <CNNaffinity_variance>
0.1580834836

$$$$
[H]Cl.[H]O[C@]([H])(C(=O)N([H])[C@]([H])(C(=O)OC([H])([H])n1c([H])c(F)c(=O)n([H])c1=O)C([H])([H])C([H])(C([H])([H])[H])C([H])([H])[H])[C@]([H])(N([H])[H])C([H])([H])c1c([H])c([H])c([H])c([H])c1[H]


 37 38  0  0  0  0  0  0  0  0999 V2000
   22.4421    9.6546   53.3239 C   0  0  0  0  0  0  0  0  0  0  0  0
   23.8286    9.2516   53.0569 N   0  0  0  0  0  0  0  0  0  0  0  0
   24.6438    8.6769   54.0701 C   0  0  0  0  0  0  0  0  0  0  0  0
   24.1430    8.5227   55.2067 O   0  0  0  0  0  0  0  0  0  0  0  0
   24.2577    9.3751   52.1140 H   0  0  0  0  0  0  0  0  0  0  0  0
   26.0467    8.2624   53.8211 C   0  0  0  0  0  0  0  0  0  0  0  0
   26.3832    8.5555   52.5067 O   0  0  0  0  0  0  0  0  0  0  0  0
   26.6975    9.4880   52.4476 H   0  0  0  0  0  0  0  0  0  0  0  0
   27.0221    8.9878   54.7374 C   0  0  0  0  0  0  0  0  0  0  0  0
   28.3562    8.4952   54.6010 N   0  0  0  0  0  0  0  0  0  0  0  0
   29.0880    9.2304   54.6171 H   0  0  0  0  0  0  0  0  0  0  0  0
   28.5883    7.6545   55.1358 H   0  0  0  0  0  0  0  0  0  0  0  0
   26.5120    8.8156   56.1422 C   0  0  0  0  0  0  0  0  0  0  0  0
   27.3828    9.4310   57.1647 C   0  0  0  0  0  0  0  0  0  0  0  0
   27.9794    8.7012   58.1794 C   0  0  0  0  0  0  0  0  0  0  0  0
   28.7951    9.2811   59.1356 C   0  0  0  0  0  0  0  0  0  0  0  0
   29.0321   10.6235   59.0922 C   0  0  0  0  0  0  0  0  0  0  0  0
   28.4624   11.3871   58.1052 C   0  0  0  0  0  0  0  0  0  0  0  0
   27.6565   10.8018   57.1639 C   0  0  0  0  0  0  0  0  0  0  0  0
   21.7036    9.7554   52.0411 C   0  0  0  0  0  0  0  0  0  0  0  0
   21.6642   10.9129   51.4934 O   0  0  0  0  0  0  0  0  0  0  0  0
   21.0646    8.7688   51.3741 O   0  0  0  0  0  0  0  0  0  0  0  0
   20.8901    7.4317   51.6341 C   0  0  0  0  0  0  0  0  0  0  0  0
   21.6641    6.8447   52.6794 N   0  0  0  0  0  0  0  0  0  0  0  0
   22.8331    6.2008   52.5491 C   0  0  0  0  0  0  0  0  0  0  0  0
   23.5046    5.6440   53.6449 C   0  0  0  0  0  0  0  0  0  0  0  0
   24.6794    5.0018   53.4880 F   0  0  0  0  0  0  0  0  0  0  0  0
   22.9635    5.7514   54.8969 C   0  0  0  0  0  0  0  0  0  0  0  0
   23.4773    5.2925   55.9410 O   0  0  0  0  0  0  0  0  0  0  0  0
   21.7812    6.4064   55.0017 N   0  0  0  0  0  0  0  0  0  0  0  0
   21.1684    6.9245   53.9403 C   0  0  0  0  0  0  0  0  0  0  0  0
   20.0570    7.5224   54.1495 O   0  0  0  0  0  0  0  0  0  0  0  0
   21.3436    6.5017   55.9589 H   0  0  0  0  0  0  0  0  0  0  0  0
   22.3997   10.8655   54.1845 C   0  0  0  0  0  0  0  0  0  0  0  0
   20.3918    9.8758   55.3030 C   0  0  0  0  0  0  0  0  0  0  0  0
   21.7061   10.6423   55.4869 C   0  0  0  0  0  0  0  0  0  0  0  0
   22.6140    9.8374   56.4347 C   0  0  0  0  0  0  0  0  0  0  0  0
 35 36  1  0  0  0
 36 37  1  0  0  0
 36 34  1  0  0  0
 34  1  1  0  0  0
  1  2  1  0  0  0
  2  3  1  0  0  0
  3  4  2  0  0  0
  3  6  1  0  0  0
  6  7  1  0  0  0
  6  9  1  0  0  0
  9 10  1  0  0  0
  9 13  1  0  0  0
 13 14  1  0  0  0
 14 15  2  0  0  0
 15 16  1  0  0  0
 16 17  2  0  0  0
 17 18  1  0  0  0
 18 19  2  0  0  0
  1 20  1  0  0  0
 20 21  2  0  0  0
 20 22  1  0  0  0
 22 23  1  0  0  0
 23 24  1  0  0  0
 24 25  1  0  0  0
 25 26  2  0  0  0
 26 27  1  0  0  0
 26 28  1  0  0  0
 28 29  2  0  0  0
 28 30  1  0  0  0
 30 31  1  0  0  0
 31 32  2  0  0  0
 19 14  1  0  0  0
 31 24  1  0  0  0
  2  5  1  0  0  0
  7  8  1  0  0  0
 10 11  1  0  0  0
 10 12  1  0  0  0
 30 33  1  0  0  0
M  END
> <minimizedAffinity>
8.31889

> <CNNscore>
0.5063241124

> <CNNaffinity>
6.5308547020

> <CNN_VS>
3.3067293167

> <CNNaffinity_variance>
0.3030198216

$$$$
[H]Cl.[H]O[C@]([H])(C(=O)N([H])[C@]([H])(C(=O)OC([H])([H])n1c([H])c(F)c(=O)n([H])c1=O)C([H])([H])C([H])(C([H])([H])[H])C([H])([H])[H])[C@]([H])(N([H])[H])C([H])([H])c1c([H])c([H])c([H])c([H])c1[H]


 37 38  0  0  0  0  0  0  0  0999 V2000
   27.0415    8.6566   54.4481 C   0  0  0  0  0  0  0  0  0  0  0  0
   25.9160    7.7331   54.6380 N   0  0  0  0  0  0  0  0  0  0  0  0
   24.8680    7.6321   53.6826 C   0  0  0  0  0  0  0  0  0  0  0  0
   24.9312    8.3590   52.6657 O   0  0  0  0  0  0  0  0  0  0  0  0
   25.8515    7.1222   55.4814 H   0  0  0  0  0  0  0  0  0  0  0  0
   23.7221    6.7051   53.8551 C   0  0  0  0  0  0  0  0  0  0  0  0
   24.1476    5.4046   53.6219 O   0  0  0  0  0  0  0  0  0  0  0  0
   24.5187    5.0258   54.4529 H   0  0  0  0  0  0  0  0  0  0  0  0
   23.1452    6.7744   55.2621 C   0  0  0  0  0  0  0  0  0  0  0  0
   23.1633    5.5033   55.9141 N   0  0  0  0  0  0  0  0  0  0  0  0
   23.4262    5.5401   56.9170 H   0  0  0  0  0  0  0  0  0  0  0  0
   22.3866    4.8718   55.7025 H   0  0  0  0  0  0  0  0  0  0  0  0
   21.7446    7.3083   55.1340 C   0  0  0  0  0  0  0  0  0  0  0  0
   21.6050    8.3539   54.0998 C   0  0  0  0  0  0  0  0  0  0  0  0
   21.3412    8.0642   52.7713 C   0  0  0  0  0  0  0  0  0  0  0  0
   21.2107    9.0466   51.8049 C   0  0  0  0  0  0  0  0  0  0  0  0
   21.3440   10.3575   52.1568 C   0  0  0  0  0  0  0  0  0  0  0  0
   21.6056   10.6924   53.4611 C   0  0  0  0  0  0  0  0  0  0  0  0
   21.7328    9.7111   54.4092 C   0  0  0  0  0  0  0  0  0  0  0  0
   27.7163    8.3518   53.1624 C   0  0  0  0  0  0  0  0  0  0  0  0
   28.4156    7.2790   53.1239 O   0  0  0  0  0  0  0  0  0  0  0  0
   27.6819    9.0709   52.0187 O   0  0  0  0  0  0  0  0  0  0  0  0
   27.8197    8.7239   50.6971 C   0  0  0  0  0  0  0  0  0  0  0  0
   28.0918    9.7613   49.7558 N   0  0  0  0  0  0  0  0  0  0  0  0
   27.7029   11.0420   49.8366 C   0  0  0  0  0  0  0  0  0  0  0  0
   28.0110   11.9796   48.8428 C   0  0  0  0  0  0  0  0  0  0  0  0
   27.6087   13.2620   48.9475 F   0  0  0  0  0  0  0  0  0  0  0  0
   28.7318   11.5925   47.7463 C   0  0  0  0  0  0  0  0  0  0  0  0
   29.0609   12.3454   46.8032 O   0  0  0  0  0  0  0  0  0  0  0  0
   29.1125   10.2927   47.6883 N   0  0  0  0  0  0  0  0  0  0  0  0
   28.8036    9.4263   48.6498 C   0  0  0  0  0  0  0  0  0  0  0  0
   29.2118    8.2237   48.4969 O   0  0  0  0  0  0  0  0  0  0  0  0
   29.6701    9.9702   46.8505 H   0  0  0  0  0  0  0  0  0  0  0  0
   27.9214    8.6713   55.6458 C   0  0  0  0  0  0  0  0  0  0  0  0
   25.9684    9.7380   56.7904 C   0  0  0  0  0  0  0  0  0  0  0  0
   27.4950    9.6573   56.6817 C   0  0  0  0  0  0  0  0  0  0  0  0
   28.0632    9.2554   58.0551 C   0  0  0  0  0  0  0  0  0  0  0  0
 35 36  1  0  0  0
 36 37  1  0  0  0
 36 34  1  0  0  0
 34  1  1  0  0  0
  1  2  1  0  0  0
  2  3  1  0  0  0
  3  4  2  0  0  0
  3  6  1  0  0  0
  6  7  1  0  0  0
  6  9  1  0  0  0
  9 10  1  0  0  0
  9 13  1  0  0  0
 13 14  1  0  0  0
 14 15  2  0  0  0
 15 16  1  0  0  0
 16 17  2  0  0  0
 17 18  1  0  0  0
 18 19  2  0  0  0
  1 20  1  0  0  0
 20 21  2  0  0  0
 20 22  1  0  0  0
 22 23  1  0  0  0
 23 24  1  0  0  0
 24 25  1  0  0  0
 25 26  2  0  0  0
 26 27  1  0  0  0
 26 28  1  0  0  0
 28 29  2  0  0  0
 28 30  1  0  0  0
 30 31  1  0  0  0
 31 32  2  0  0  0
 19 14  1  0  0  0
 31 24  1  0  0  0
  2  5  1  0  0  0
  7  8  1  0  0  0
 10 11  1  0  0  0
 10 12  1  0  0  0
 30 33  1  0  0  0
M  END
> <minimizedAffinity>
12.76145

> <CNNscore>
0.5018317103

> <CNNaffinity>
6.0733652115

> <CNN_VS>
3.0478072166

> <CNNaffinity_variance>
0.1482169032

$$$$
[H]Cl.[H]O[C@]([H])(C(=O)N([H])[C@]([H])(C(=O)OC([H])([H])n1c([H])c(F)c(=O)n([H])c1=O)C([H])([H])C([H])(C([H])([H])[H])C([H])([H])[H])[C@]([H])(N([H])[H])C([H])([H])c1c([H])c([H])c([H])c([H])c1[H]


 37 38  0  0  0  0  0  0  0  0999 V2000
   23.0768    9.1398   54.5037 C   0  0  0  0  0  0  0  0  0  0  0  0
   24.5291    9.2566   54.3220 N   0  0  0  0  0  0  0  0  0  0  0  0
   25.3880    8.1318   54.4574 C   0  0  0  0  0  0  0  0  0  0  0  0
   24.8677    7.0288   54.7387 O   0  0  0  0  0  0  0  0  0  0  0  0
   24.9750   10.1703   54.0877 H   0  0  0  0  0  0  0  0  0  0  0  0
   26.8578    8.2281   54.2773 C   0  0  0  0  0  0  0  0  0  0  0  0
   27.1341    8.6077   52.9711 O   0  0  0  0  0  0  0  0  0  0  0  0
   27.1082    9.5907   52.9016 H   0  0  0  0  0  0  0  0  0  0  0  0
   27.4764    9.2555   55.2149 C   0  0  0  0  0  0  0  0  0  0  0  0
   28.9039    9.2454   55.1574 N   0  0  0  0  0  0  0  0  0  0  0  0
   29.3404   10.1861   55.1844 H   0  0  0  0  0  0  0  0  0  0  0  0
   29.3779    8.5418   55.7294 H   0  0  0  0  0  0  0  0  0  0  0  0
   26.9783    8.9397   56.5988 C   0  0  0  0  0  0  0  0  0  0  0  0
   27.8001    9.5373   57.6712 C   0  0  0  0  0  0  0  0  0  0  0  0
   28.0346   10.8991   57.7659 C   0  0  0  0  0  0  0  0  0  0  0  0
   28.8048   11.4555   58.7724 C   0  0  0  0  0  0  0  0  0  0  0  0
   29.3630   10.6458   59.7172 C   0  0  0  0  0  0  0  0  0  0  0  0
   29.1582    9.2904   59.6639 C   0  0  0  0  0  0  0  0  0  0  0  0
   28.3938    8.7508   58.6627 C   0  0  0  0  0  0  0  0  0  0  0  0
   22.3953   10.1876   53.7044 C   0  0  0  0  0  0  0  0  0  0  0  0
   22.0838   11.2660   54.3221 O   0  0  0  0  0  0  0  0  0  0  0  0
   22.0623   10.1444   52.3953 O   0  0  0  0  0  0  0  0  0  0  0  0
   21.6667    9.1211   51.5692 C   0  0  0  0  0  0  0  0  0  0  0  0
   21.4264    7.8417   52.1537 N   0  0  0  0  0  0  0  0  0  0  0  0
   22.3288    7.0469   52.7470 C   0  0  0  0  0  0  0  0  0  0  0  0
   21.9881    5.7953   53.2753 C   0  0  0  0  0  0  0  0  0  0  0  0
   22.9139    5.0148   53.8676 F   0  0  0  0  0  0  0  0  0  0  0  0
   20.6960    5.3535   53.1913 C   0  0  0  0  0  0  0  0  0  0  0  0
   20.2845    4.2562   53.6284 O   0  0  0  0  0  0  0  0  0  0  0  0
   19.8033    6.1752   52.5866 N   0  0  0  0  0  0  0  0  0  0  0  0
   20.1592    7.3593   52.0948 C   0  0  0  0  0  0  0  0  0  0  0  0
   19.2387    8.0565   51.5442 O   0  0  0  0  0  0  0  0  0  0  0  0
   18.7990    5.8553   52.5097 H   0  0  0  0  0  0  0  0  0  0  0  0
   22.7255    9.1054   55.9473 C   0  0  0  0  0  0  0  0  0  0  0  0
   20.4031    8.5463   55.2017 C   0  0  0  0  0  0  0  0  0  0  0  0
   21.5031    8.3012   56.2403 C   0  0  0  0  0  0  0  0  0  0  0  0
   21.8491    6.8009   56.2424 C   0  0  0  0  0  0  0  0  0  0  0  0
 35 36  1  0  0  0
 36 37  1  0  0  0
 36 34  1  0  0  0
 34  1  1  0  0  0
  1  2  1  0  0  0
  2  3  1  0  0  0
  3  4  2  0  0  0
  3  6  1  0  0  0
  6  7  1  0  0  0
  6  9  1  0  0  0
  9 10  1  0  0  0
  9 13  1  0  0  0
 13 14  1  0  0  0
 14 15  2  0  0  0
 15 16  1  0  0  0
 16 17  2  0  0  0
 17 18  1  0  0  0
 18 19  2  0  0  0
  1 20  1  0  0  0
 20 21  2  0  0  0
 20 22  1  0  0  0
 22 23  1  0  0  0
 23 24  1  0  0  0
 24 25  1  0  0  0
 25 26  2  0  0  0
 26 27  1  0  0  0
 26 28  1  0  0  0
 28 29  2  0  0  0
 28 30  1  0  0  0
 30 31  1  0  0  0
 31 32  2  0  0  0
 19 14  1  0  0  0
 31 24  1  0  0  0
  2  5  1  0  0  0
  7  8  1  0  0  0
 10 11  1  0  0  0
 10 12  1  0  0  0
 30 33  1  0  0  0
M  END
> <minimizedAffinity>
9.13750

> <CNNscore>
0.4988911748

> <CNNaffinity>
6.3533153534

> <CNN_VS>
3.1696128845

> <CNNaffinity_variance>
0.3171655238

$$$$
[H]Cl.[H]O[C@]([H])(C(=O)N([H])[C@]([H])(C(=O)OC([H])([H])n1c([H])c(F)c(=O)n([H])c1=O)C([H])([H])C([H])(C([H])([H])[H])C([H])([H])[H])[C@]([H])(N([H])[H])C([H])([H])c1c([H])c([H])c([H])c([H])c1[H]


 37 38  0  0  0  0  0  0  0  0999 V2000
   20.7224    8.5861   53.3763 C   0  0  0  0  0  0  0  0  0  0  0  0
   21.8736    8.1643   54.1841 N   0  0  0  0  0  0  0  0  0  0  0  0
   22.7350    7.1157   53.7601 C   0  0  0  0  0  0  0  0  0  0  0  0
   22.4827    6.5562   52.6693 O   0  0  0  0  0  0  0  0  0  0  0  0
   22.0944    8.6224   55.0951 H   0  0  0  0  0  0  0  0  0  0  0  0
   23.9037    6.6746   54.5610 C   0  0  0  0  0  0  0  0  0  0  0  0
   23.8195    5.3060   54.7766 O   0  0  0  0  0  0  0  0  0  0  0  0
   24.2207    4.8274   54.0139 H   0  0  0  0  0  0  0  0  0  0  0  0
   25.2185    6.9668   53.8514 C   0  0  0  0  0  0  0  0  0  0  0  0
   26.3050    6.2214   54.4037 N   0  0  0  0  0  0  0  0  0  0  0  0
   26.9684    5.8461   53.6999 H   0  0  0  0  0  0  0  0  0  0  0  0
   26.7491    6.6136   55.2378 H   0  0  0  0  0  0  0  0  0  0  0  0
   25.4544    8.4485   53.9615 C   0  0  0  0  0  0  0  0  0  0  0  0
   26.5624    8.8025   54.8722 C   0  0  0  0  0  0  0  0  0  0  0  0
   26.3572    9.2115   56.1795 C   0  0  0  0  0  0  0  0  0  0  0  0
   27.3979    9.5421   57.0301 C   0  0  0  0  0  0  0  0  0  0  0  0
   28.6832    9.4678   56.5801 C   0  0  0  0  0  0  0  0  0  0  0  0
   28.9351    9.0677   55.2924 C   0  0  0  0  0  0  0  0  0  0  0  0
   27.8966    8.7429   54.4592 C   0  0  0  0  0  0  0  0  0  0  0  0
   19.9444    7.3909   52.9670 C   0  0  0  0  0  0  0  0  0  0  0  0
   19.5954    7.3299   51.7357 O   0  0  0  0  0  0  0  0  0  0  0  0
   19.5579    6.3508   53.7385 O   0  0  0  0  0  0  0  0  0  0  0  0
   19.7008    4.9913   53.6068 C   0  0  0  0  0  0  0  0  0  0  0  0
   18.5185    4.1997   53.4981 N   0  0  0  0  0  0  0  0  0  0  0  0
   17.3192    4.4688   54.0339 C   0  0  0  0  0  0  0  0  0  0  0  0
   16.2232    3.6104   53.8796 C   0  0  0  0  0  0  0  0  0  0  0  0
   15.0272    3.9037   54.4279 F   0  0  0  0  0  0  0  0  0  0  0  0
   16.3640    2.4545   53.1615 C   0  0  0  0  0  0  0  0  0  0  0  0
   15.4540    1.6198   52.9623 O   0  0  0  0  0  0  0  0  0  0  0  0
   17.5863    2.2054   52.6306 N   0  0  0  0  0  0  0  0  0  0  0  0
   18.6078    3.0419   52.7955 C   0  0  0  0  0  0  0  0  0  0  0  0
   19.7182    2.7120   52.2528 O   0  0  0  0  0  0  0  0  0  0  0  0
   17.7192    1.3183   52.0719 H   0  0  0  0  0  0  0  0  0  0  0  0
   21.1519    9.4808   52.2700 C   0  0  0  0  0  0  0  0  0  0  0  0
   21.6131   11.8980   51.8156 C   0  0  0  0  0  0  0  0  0  0  0  0
   21.8675   10.7029   52.7407 C   0  0  0  0  0  0  0  0  0  0  0  0
   21.3978   11.0732   54.1595 C   0  0  0  0  0  0  0  0  0  0  0  0
 35 36  1  0  0  0
 36 37  1  0  0  0
 36 34  1  0  0  0
 34  1  1  0  0  0
  1  2  1  0  0  0
  2  3  1  0  0  0
  3  4  2  0  0  0
  3  6  1  0  0  0
  6  7  1  0  0  0
  6  9  1  0  0  0
  9 10  1  0  0  0
  9 13  1  0  0  0
 13 14  1  0  0  0
 14 15  2  0  0  0
 15 16  1  0  0  0
 16 17  2  0  0  0
 17 18  1  0  0  0
 18 19  2  0  0  0
  1 20  1  0  0  0
 20 21  2  0  0  0
 20 22  1  0  0  0
 22 23  1  0  0  0
 23 24  1  0  0  0
 24 25  1  0  0  0
 25 26  2  0  0  0
 26 27  1  0  0  0
 26 28  1  0  0  0
 28 29  2  0  0  0
 28 30  1  0  0  0
 30 31  1  0  0  0
 31 32  2  0  0  0
 19 14  1  0  0  0
 31 24  1  0  0  0
  2  5  1  0  0  0
  7  8  1  0  0  0
 10 11  1  0  0  0
 10 12  1  0  0  0
 30 33  1  0  0  0
M  END
> <minimizedAffinity>
16.27593

> <CNNscore>
0.4975924790

> <CNNaffinity>
6.4719705582

> <CNN_VS>
3.2204039097

> <CNNaffinity_variance>
0.4781747758

$$$$
[H]Cl.[H]O[C@]([H])(C(=O)N([H])[C@]([H])(C(=O)OC([H])([H])n1c([H])c(F)c(=O)n([H])c1=O)C([H])([H])C([H])(C([H])([H])[H])C([H])([H])[H])[C@]([H])(N([H])[H])C([H])([H])c1c([H])c([H])c([H])c([H])c1[H]


 37 38  0  0  0  0  0  0  0  0999 V2000
   24.0876    6.2578   54.3918 C   0  0  0  0  0  0  0  0  0  0  0  0
   24.4536    7.6074   54.8394 N   0  0  0  0  0  0  0  0  0  0  0  0
   25.7892    8.0853   54.7445 C   0  0  0  0  0  0  0  0  0  0  0  0
   26.6530    7.3171   54.2648 O   0  0  0  0  0  0  0  0  0  0  0  0
   23.7432    8.2572   55.2414 H   0  0  0  0  0  0  0  0  0  0  0  0
   26.1800    9.4456   55.1905 C   0  0  0  0  0  0  0  0  0  0  0  0
   25.2648    9.8986   56.1308 O   0  0  0  0  0  0  0  0  0  0  0  0
   25.5279    9.5803   57.0259 H   0  0  0  0  0  0  0  0  0  0  0  0
   27.5634    9.4572   55.8256 C   0  0  0  0  0  0  0  0  0  0  0  0
   28.5426    8.8326   54.9935 N   0  0  0  0  0  0  0  0  0  0  0  0
   29.4597    9.3170   54.9738 H   0  0  0  0  0  0  0  0  0  0  0  0
   28.6030    7.8128   55.0481 H   0  0  0  0  0  0  0  0  0  0  0  0
   27.4408    8.7583   57.1522 C   0  0  0  0  0  0  0  0  0  0  0  0
   28.1985    9.4158   58.2366 C   0  0  0  0  0  0  0  0  0  0  0  0
   28.7545    8.7156   59.2944 C   0  0  0  0  0  0  0  0  0  0  0  0
   29.4642    9.3349   60.3086 C   0  0  0  0  0  0  0  0  0  0  0  0
   29.6328   10.6880   60.2815 C   0  0  0  0  0  0  0  0  0  0  0  0
   29.0999   11.4233   59.2534 C   0  0  0  0  0  0  0  0  0  0  0  0
   28.3990   10.7991   58.2548 C   0  0  0  0  0  0  0  0  0  0  0  0
   23.2423    6.3551   53.1764 C   0  0  0  0  0  0  0  0  0  0  0  0
   23.8385    6.6790   52.0896 O   0  0  0  0  0  0  0  0  0  0  0  0
   21.9119    6.1407   53.0741 O   0  0  0  0  0  0  0  0  0  0  0  0
   20.8321    6.9889   53.0494 C   0  0  0  0  0  0  0  0  0  0  0  0
   21.0812    8.3893   52.9346 N   0  0  0  0  0  0  0  0  0  0  0  0
   21.3205    9.2477   53.9365 C   0  0  0  0  0  0  0  0  0  0  0  0
   21.5363   10.6135   53.7136 C   0  0  0  0  0  0  0  0  0  0  0  0
   21.7754   11.4564   54.7381 F   0  0  0  0  0  0  0  0  0  0  0  0
   21.5049   11.1048   52.4371 C   0  0  0  0  0  0  0  0  0  0  0  0
   21.6838   12.3031   52.1263 O   0  0  0  0  0  0  0  0  0  0  0  0
   21.2608   10.2168   51.4423 N   0  0  0  0  0  0  0  0  0  0  0  0
   21.0599    8.9244   51.6875 C   0  0  0  0  0  0  0  0  0  0  0  0
   20.8377    8.1723   50.6769 O   0  0  0  0  0  0  0  0  0  0  0  0
   21.2315   10.5730   50.4478 H   0  0  0  0  0  0  0  0  0  0  0  0
   23.5120    5.4673   55.5110 C   0  0  0  0  0  0  0  0  0  0  0  0
   21.7162    5.2747   57.2430 C   0  0  0  0  0  0  0  0  0  0  0  0
   22.1609    5.9382   55.9351 C   0  0  0  0  0  0  0  0  0  0  0  0
   22.1769    7.4641   56.1406 C   0  0  0  0  0  0  0  0  0  0  0  0
 35 36  1  0  0  0
 36 37  1  0  0  0
 36 34  1  0  0  0
 34  1  1  0  0  0
  1  2  1  0  0  0
  2  3  1  0  0  0
  3  4  2  0  0  0
  3  6  1  0  0  0
  6  7  1  0  0  0
  6  9  1  0  0  0
  9 10  1  0  0  0
  9 13  1  0  0  0
 13 14  1  0  0  0
 14 15  2  0  0  0
 15 16  1  0  0  0
 16 17  2  0  0  0
 17 18  1  0  0  0
 18 19  2  0  0  0
  1 20  1  0  0  0
 20 21  2  0  0  0
 20 22  1  0  0  0
 22 23  1  0  0  0
 23 24  1  0  0  0
 24 25  1  0  0  0
 25 26  2  0  0  0
 26 27  1  0  0  0
 26 28  1  0  0  0
 28 29  2  0  0  0
 28 30  1  0  0  0
 30 31  1  0  0  0
 31 32  2  0  0  0
 19 14  1  0  0  0
 31 24  1  0  0  0
  2  5  1  0  0  0
  7  8  1  0  0  0
 10 11  1  0  0  0
 10 12  1  0  0  0
 30 33  1  0  0  0
M  END
> <minimizedAffinity>
6.64280

> <CNNscore>
0.4625064433

> <CNNaffinity>
6.5011940002

> <CNN_VS>
3.0068440437

> <CNNaffinity_variance>
0.3732037246

$$$$
[H]Cl.[H]O[C@]([H])(C(=O)N([H])[C@]([H])(C(=O)OC([H])([H])n1c([H])c(F)c(=O)n([H])c1=O)C([H])([H])C([H])(C([H])([H])[H])C([H])([H])[H])[C@]([H])(N([H])[H])C([H])([H])c1c([H])c([H])c([H])c([H])c1[H]


 37 38  0  0  0  0  0  0  0  0999 V2000
   24.4211    7.7200   54.9939 C   0  0  0  0  0  0  0  0  0  0  0  0
   23.6741    6.5391   54.5432 N   0  0  0  0  0  0  0  0  0  0  0  0
   22.9073    6.5569   53.3461 C   0  0  0  0  0  0  0  0  0  0  0  0
   22.8857    7.6167   52.6807 O   0  0  0  0  0  0  0  0  0  0  0  0
   23.6838    5.6499   55.0889 H   0  0  0  0  0  0  0  0  0  0  0  0
   22.1458    5.3745   52.8727 C   0  0  0  0  0  0  0  0  0  0  0  0
   22.5472    4.2556   53.5894 O   0  0  0  0  0  0  0  0  0  0  0  0
   22.0282    4.1967   54.4254 H   0  0  0  0  0  0  0  0  0  0  0  0
   20.6464    5.5531   53.0653 C   0  0  0  0  0  0  0  0  0  0  0  0
   20.3140    6.8700   53.5087 N   0  0  0  0  0  0  0  0  0  0  0  0
   19.4633    7.2682   53.0683 H   0  0  0  0  0  0  0  0  0  0  0  0
   20.3930    7.0458   54.5135 H   0  0  0  0  0  0  0  0  0  0  0  0
   20.2061    4.5104   54.0563 C   0  0  0  0  0  0  0  0  0  0  0  0
   18.8777    3.9372   53.7573 C   0  0  0  0  0  0  0  0  0  0  0  0
   17.7257    4.3289   54.4189 C   0  0  0  0  0  0  0  0  0  0  0  0
   16.4826    3.7899   54.1359 C   0  0  0  0  0  0  0  0  0  0  0  0
   16.3688    2.8339   53.1699 C   0  0  0  0  0  0  0  0  0  0  0  0
   17.4827    2.4144   52.4880 C   0  0  0  0  0  0  0  0  0  0  0  0
   18.7083    2.9552   52.7770 C   0  0  0  0  0  0  0  0  0  0  0  0
   23.4751    8.7161   55.5543 C   0  0  0  0  0  0  0  0  0  0  0  0
   23.9516    9.8782   55.8072 O   0  0  0  0  0  0  0  0  0  0  0  0
   22.1630    8.5472   55.8308 O   0  0  0  0  0  0  0  0  0  0  0  0
   21.0216    9.0890   55.2925 C   0  0  0  0  0  0  0  0  0  0  0  0
   21.1163    9.7227   54.0175 N   0  0  0  0  0  0  0  0  0  0  0  0
   20.9197    9.1522   52.8200 C   0  0  0  0  0  0  0  0  0  0  0  0
   21.0559    9.8653   51.6222 C   0  0  0  0  0  0  0  0  0  0  0  0
   20.8522    9.2690   50.4305 F   0  0  0  0  0  0  0  0  0  0  0  0
   21.4009   11.1887   51.6572 C   0  0  0  0  0  0  0  0  0  0  0  0
   21.5489   11.9172   50.6512 O   0  0  0  0  0  0  0  0  0  0  0  0
   21.5944   11.7416   52.8798 N   0  0  0  0  0  0  0  0  0  0  0  0
   21.4569   11.0363   53.9998 C   0  0  0  0  0  0  0  0  0  0  0  0
   21.6624   11.6545   55.1007 O   0  0  0  0  0  0  0  0  0  0  0  0
   21.8619   12.7626   52.9320 H   0  0  0  0  0  0  0  0  0  0  0  0
   25.3169    8.2212   53.9191 C   0  0  0  0  0  0  0  0  0  0  0  0
   27.6437    8.8018   53.2040 C   0  0  0  0  0  0  0  0  0  0  0  0
   26.7658    8.1285   54.2646 C   0  0  0  0  0  0  0  0  0  0  0  0
   27.0272    8.8090   55.6207 C   0  0  0  0  0  0  0  0  0  0  0  0
 35 36  1  0  0  0
 36 37  1  0  0  0
 36 34  1  0  0  0
 34  1  1  0  0  0
  1  2  1  0  0  0
  2  3  1  0  0  0
  3  4  2  0  0  0
  3  6  1  0  0  0
  6  7  1  0  0  0
  6  9  1  0  0  0
  9 10  1  0  0  0
  9 13  1  0  0  0
 13 14  1  0  0  0
 14 15  2  0  0  0
 15 16  1  0  0  0
 16 17  2  0  0  0
 17 18  1  0  0  0
 18 19  2  0  0  0
  1 20  1  0  0  0
 20 21  2  0  0  0
 20 22  1  0  0  0
 22 23  1  0  0  0
 23 24  1  0  0  0
 24 25  1  0  0  0
 25 26  2  0  0  0
 26 27  1  0  0  0
 26 28  1  0  0  0
 28 29  2  0  0  0
 28 30  1  0  0  0
 30 31  1  0  0  0
 31 32  2  0  0  0
 19 14  1  0  0  0
 31 24  1  0  0  0
  2  5  1  0  0  0
  7  8  1  0  0  0
 10 11  1  0  0  0
 10 12  1  0  0  0
 30 33  1  0  0  0
M  END
> <minimizedAffinity>
16.55923

> <CNNscore>
0.4609167576

> <CNNaffinity>
6.4097318649

> <CNN_VS>
2.9543528557

> <CNNaffinity_variance>
0.2072434425

$$$$
[H]Cl.[H]O[C@]([H])(C(=O)N([H])[C@]([H])(C(=O)OC([H])([H])n1c([H])c(F)c(=O)n([H])c1=O)C([H])([H])C([H])(C([H])([H])[H])C([H])([H])[H])[C@]([H])(N([H])[H])C([H])([H])c1c([H])c([H])c([H])c([H])c1[H]


 37 38  0  0  0  0  0  0  0  0999 V2000
   23.9305    6.9608   54.5389 C   0  0  0  0  0  0  0  0  0  0  0  0
   25.2080    7.3714   55.1351 N   0  0  0  0  0  0  0  0  0  0  0  0
   26.1871    8.0758   54.3826 C   0  0  0  0  0  0  0  0  0  0  0  0
   25.9285    8.3387   53.1866 O   0  0  0  0  0  0  0  0  0  0  0  0
   25.4357    7.1579   56.1306 H   0  0  0  0  0  0  0  0  0  0  0  0
   27.4838    8.5002   54.9660 C   0  0  0  0  0  0  0  0  0  0  0  0
   28.0592    9.4633   54.1485 O   0  0  0  0  0  0  0  0  0  0  0  0
   27.7115   10.3527   54.3929 H   0  0  0  0  0  0  0  0  0  0  0  0
   27.3109    9.0949   56.3566 C   0  0  0  0  0  0  0  0  0  0  0  0
   26.0676    9.7847   56.4959 N   0  0  0  0  0  0  0  0  0  0  0  0
   25.5956    9.6369   57.4079 H   0  0  0  0  0  0  0  0  0  0  0  0
   26.0415   10.7496   56.1567 H   0  0  0  0  0  0  0  0  0  0  0  0
   28.4797   10.0135   56.5873 C   0  0  0  0  0  0  0  0  0  0  0  0
   28.5589   10.5306   57.9689 C   0  0  0  0  0  0  0  0  0  0  0  0
   28.9614    9.7500   59.0399 C   0  0  0  0  0  0  0  0  0  0  0  0
   29.0348   10.2379   60.3331 C   0  0  0  0  0  0  0  0  0  0  0  0
   28.7012   11.5368   60.5813 C   0  0  0  0  0  0  0  0  0  0  0  0
   28.2966   12.3479   59.5515 C   0  0  0  0  0  0  0  0  0  0  0  0
   28.2278   11.8537   58.2752 C   0  0  0  0  0  0  0  0  0  0  0  0
   23.0726    6.3519   55.5850 C   0  0  0  0  0  0  0  0  0  0  0  0
   23.4784    5.2437   56.0837 O   0  0  0  0  0  0  0  0  0  0  0  0
   21.9088    6.8272   56.0811 O   0  0  0  0  0  0  0  0  0  0  0  0
   21.3094    8.0616   56.0267 C   0  0  0  0  0  0  0  0  0  0  0  0
   21.2621    8.7296   54.7667 N   0  0  0  0  0  0  0  0  0  0  0  0
   20.6832    8.2842   53.6422 C   0  0  0  0  0  0  0  0  0  0  0  0
   20.7103    9.0161   52.4483 C   0  0  0  0  0  0  0  0  0  0  0  0
   20.1202    8.5467   51.3309 F   0  0  0  0  0  0  0  0  0  0  0  0
   21.3445   10.2278   52.4108 C   0  0  0  0  0  0  0  0  0  0  0  0
   21.4284   10.9613   51.4012 O   0  0  0  0  0  0  0  0  0  0  0  0
   21.9220   10.6554   53.5604 N   0  0  0  0  0  0  0  0  0  0  0  0
   21.8783    9.9357   54.6788 C   0  0  0  0  0  0  0  0  0  0  0  0
   22.4552   10.4310   55.7075 O   0  0  0  0  0  0  0  0  0  0  0  0
   22.4181   11.5885   53.5558 H   0  0  0  0  0  0  0  0  0  0  0  0
   24.1552    6.1272   53.3292 C   0  0  0  0  0  0  0  0  0  0  0  0
   21.7146    5.5781   53.2628 C   0  0  0  0  0  0  0  0  0  0  0  0
   22.9479    6.0069   52.4603 C   0  0  0  0  0  0  0  0  0  0  0  0
   22.6483    7.3588   51.7870 C   0  0  0  0  0  0  0  0  0  0  0  0
 35 36  1  0  0  0
 36 37  1  0  0  0
 36 34  1  0  0  0
 34  1  1  0  0  0
  1  2  1  0  0  0
  2  3  1  0  0  0
  3  4  2  0  0  0
  3  6  1  0  0  0
  6  7  1  0  0  0
  6  9  1  0  0  0
  9 10  1  0  0  0
  9 13  1  0  0  0
 13 14  1  0  0  0
 14 15  2  0  0  0
 15 16  1  0  0  0
 16 17  2  0  0  0
 17 18  1  0  0  0
 18 19  2  0  0  0
  1 20  1  0  0  0
 20 21  2  0  0  0
 20 22  1  0  0  0
 22 23  1  0  0  0
 23 24  1  0  0  0
 24 25  1  0  0  0
 25 26  2  0  0  0
 26 27  1  0  0  0
 26 28  1  0  0  0
 28 29  2  0  0  0
 28 30  1  0  0  0
 30 31  1  0  0  0
 31 32  2  0  0  0
 19 14  1  0  0  0
 31 24  1  0  0  0
  2  5  1  0  0  0
  7  8  1  0  0  0
 10 11  1  0  0  0
 10 12  1  0  0  0
 30 33  1  0  0  0
M  END
> <minimizedAffinity>
4.13862

> <CNNscore>
0.4560295343

> <CNNaffinity>
6.5457038879

> <CNN_VS>
2.9850342274

> <CNNaffinity_variance>
0.1299843639

$$$$
