[H]OC(=O)[C@@]([H])(O[H])C([H])([H])OP(=O)(O[H])OP(=O)(O[H])OC([H])([H])[C@@]1([H])O[C@@]([H])(n2c([H])nc3c(N([H])[H])nc([H])nc32)[C@@]([H])(O[H])[C@]1([H])O[H]


 41 43  0  0  0  0  0  0  0  0999 V2000
   28.7761   10.1400   58.1429 C   0  0  0  0  0  0  0  0  0  0  0  0
   28.5560   11.4058   58.5316 O   0  0  0  0  0  0  0  0  0  0  0  0
   29.4967   11.6114   59.6048 C   0  0  0  0  0  0  0  0  0  0  0  0
   29.6336   10.3317   60.2974 C   0  0  0  0  0  0  0  0  0  0  0  0
   29.5466   10.3020   61.6744 O   0  0  0  0  0  0  0  0  0  0  0  0
   28.5684    9.5057   59.6290 C   0  0  0  0  0  0  0  0  0  0  0  0
   28.7080    8.1811   59.5599 O   0  0  0  0  0  0  0  0  0  0  0  0
   28.8269    9.6398   61.9262 H   0  0  0  0  0  0  0  0  0  0  0  0
   28.0057    7.6716   60.0648 H   0  0  0  0  0  0  0  0  0  0  0  0
   28.9615   12.7420   60.2837 N   0  0  0  0  0  0  0  0  0  0  0  0
   27.7503   13.0658   60.6988 C   0  0  0  0  0  0  0  0  0  0  0  0
   27.8306   14.2740   61.2987 N   0  0  0  0  0  0  0  0  0  0  0  0
   29.1015   14.7196   61.2631 C   0  0  0  0  0  0  0  0  0  0  0  0
   29.7612   15.8586   61.6531 C   0  0  0  0  0  0  0  0  0  0  0  0
   28.9965   16.8818   62.2687 N   0  0  0  0  0  0  0  0  0  0  0  0
   31.0576   16.0064   61.4053 N   0  0  0  0  0  0  0  0  0  0  0  0
   31.8065   15.0603   60.7486 C   0  0  0  0  0  0  0  0  0  0  0  0
   31.1304   13.9472   60.3820 N   0  0  0  0  0  0  0  0  0  0  0  0
   29.8266   13.7712   60.6303 C   0  0  0  0  0  0  0  0  0  0  0  0
   29.2540   17.3650   63.1363 H   0  0  0  0  0  0  0  0  0  0  0  0
   28.0841   17.1732   61.7867 H   0  0  0  0  0  0  0  0  0  0  0  0
   27.8078    9.3709   57.3285 C   0  0  0  0  0  0  0  0  0  0  0  0
   28.4209    9.3512   56.0238 O   0  0  0  0  0  0  0  0  0  0  0  0
   27.4795    8.6301   54.8756 P   0  0  0  0  0  0  0  0  0  0  0  0
   27.8702    7.0301   54.5757 O   0  0  0  0  0  0  0  0  0  0  0  0
   27.4361    9.3413   53.5514 O   0  0  0  0  0  0  0  0  0  0  0  0
   27.3056    6.6063   53.8549 H   0  0  0  0  0  0  0  0  0  0  0  0
   25.8308    8.6462   55.4808 O   0  0  0  0  0  0  0  0  0  0  0  0
   24.9103    7.8647   54.4087 P   0  0  0  0  0  0  0  0  0  0  0  0
   24.4539    6.2669   54.9729 O   0  0  0  0  0  0  0  0  0  0  0  0
   25.6717    7.6551   53.0639 O   0  0  0  0  0  0  0  0  0  0  0  0
   24.5124    5.6608   54.1736 H   0  0  0  0  0  0  0  0  0  0  0  0
   23.4046    8.5090   54.0078 O   0  0  0  0  0  0  0  0  0  0  0  0
   22.6714    7.3943   53.4615 C   0  0  0  0  0  0  0  0  0  0  0  0
   20.3881    6.8579   53.2048 O   0  0  0  0  0  0  0  0  0  0  0  0
   21.3043    7.8876   53.1081 C   0  0  0  0  0  0  0  0  0  0  0  0
   20.2978    6.6682   54.2224 H   0  0  0  0  0  0  0  0  0  0  0  0
   21.1507    8.6539   51.8783 C   0  0  0  0  0  0  0  0  0  0  0  0
   20.9438    7.8632   50.6894 O   0  0  0  0  0  0  0  0  0  0  0  0
   21.1657    9.8744   51.7507 O   0  0  0  0  0  0  0  0  0  0  0  0
   21.6367    7.1451   50.4884 H   0  0  0  0  0  0  0  0  0  0  0  0
 35 36  1  0  0  0
 36 34  1  0  0  0
 34 33  1  0  0  0
 33 29  1  0  0  0
 29 30  1  0  0  0
 29 31  2  0  0  0
 29 28  1  0  0  0
 28 24  1  0  0  0
 24 25  1  0  0  0
 24 26  2  0  0  0
 24 23  1  0  0  0
 23 22  1  0  0  0
 22  1  1  0  0  0
  1  2  1  0  0  0
  2  3  1  0  0  0
  3  4  1  0  0  0
  4  5  1  0  0  0
  4  6  1  0  0  0
  6  7  1  0  0  0
  3 10  1  0  0  0
 10 11  1  0  0  0
 11 12  2  0  0  0
 12 13  1  0  0  0
 13 14  2  0  0  0
 14 15  1  0  0  0
 14 16  1  0  0  0
 16 17  2  0  0  0
 17 18  1  0  0  0
 18 19  2  0  0  0
 36 38  1  0  0  0
 38 39  1  0  0  0
 38 40  2  0  0  0
  6  1  1  0  0  0
 19 10  1  0  0  0
 19 13  1  0  0  0
 35 37  1  0  0  0
 30 32  1  0  0  0
 25 27  1  0  0  0
  5  8  1  0  0  0
  7  9  1  0  0  0
 15 20  1  0  0  0
 15 21  1  0  0  0
 39 41  1  0  0  0
M  END
> <minimizedAffinity>
-3.80872

> <CNNscore>
0.5452977419

> <CNNaffinity>
5.7461333275

> <CNN_VS>
3.1333534718

> <CNNaffinity_variance>
0.3812298775

$$$$
[H]OC(=O)[C@@]([H])(O[H])C([H])([H])OP(=O)(O[H])OP(=O)(O[H])OC([H])([H])[C@@]1([H])O[C@@]([H])(n2c([H])nc3c(N([H])[H])nc([H])nc32)[C@@]([H])(O[H])[C@]1([H])O[H]


 41 43  0  0  0  0  0  0  0  0999 V2000
   27.6173    8.5329   56.0224 C   0  0  0  0  0  0  0  0  0  0  0  0
   26.3596    8.1122   55.8155 O   0  0  0  0  0  0  0  0  0  0  0  0
   26.4065    7.4942   54.5136 C   0  0  0  0  0  0  0  0  0  0  0  0
   27.3835    8.2428   53.7256 C   0  0  0  0  0  0  0  0  0  0  0  0
   27.0454    8.6519   52.4516 O   0  0  0  0  0  0  0  0  0  0  0  0
   27.6993    9.3938   54.6417 C   0  0  0  0  0  0  0  0  0  0  0  0
   28.8920    9.9862   54.5687 O   0  0  0  0  0  0  0  0  0  0  0  0
   27.1825    9.6510   52.3992 H   0  0  0  0  0  0  0  0  0  0  0  0
   28.8514   10.9475   54.2826 H   0  0  0  0  0  0  0  0  0  0  0  0
   25.0376    7.4689   54.1249 N   0  0  0  0  0  0  0  0  0  0  0  0
   24.3370    6.7033   53.3081 C   0  0  0  0  0  0  0  0  0  0  0  0
   23.0577    7.1379   53.3332 N   0  0  0  0  0  0  0  0  0  0  0  0
   22.9467    8.1868   54.1714 C   0  0  0  0  0  0  0  0  0  0  0  0
   21.9455    9.0441   54.5552 C   0  0  0  0  0  0  0  0  0  0  0  0
   20.6616    8.8510   53.9851 N   0  0  0  0  0  0  0  0  0  0  0  0
   22.1981   10.0479   55.3874 N   0  0  0  0  0  0  0  0  0  0  0  0
   23.4479   10.2988   55.8993 C   0  0  0  0  0  0  0  0  0  0  0  0
   24.4122    9.4342   55.5077 N   0  0  0  0  0  0  0  0  0  0  0  0
   24.1791    8.4092   54.6785 C   0  0  0  0  0  0  0  0  0  0  0  0
   19.7831    8.8230   54.5142 H   0  0  0  0  0  0  0  0  0  0  0  0
   20.6077    8.7302   52.9210 H   0  0  0  0  0  0  0  0  0  0  0  0
   27.9677    9.5407   57.0491 C   0  0  0  0  0  0  0  0  0  0  0  0
   27.5425    8.9171   58.2775 O   0  0  0  0  0  0  0  0  0  0  0  0
   28.6195    9.1164   59.5125 P   0  0  0  0  0  0  0  0  0  0  0  0
   29.4951    7.7393   59.8864 O   0  0  0  0  0  0  0  0  0  0  0  0
   28.0283    9.6383   60.7928 O   0  0  0  0  0  0  0  0  0  0  0  0
   30.1322    7.8648   60.6585 H   0  0  0  0  0  0  0  0  0  0  0  0
   29.7776   10.3296   58.9915 O   0  0  0  0  0  0  0  0  0  0  0  0
   30.1048   11.2692   60.2634 P   0  0  0  0  0  0  0  0  0  0  0  0
   31.8146   11.6462   60.3815 O   0  0  0  0  0  0  0  0  0  0  0  0
   29.7177   10.5606   61.5977 O   0  0  0  0  0  0  0  0  0  0  0  0
   32.0438   11.6023   61.3588 H   0  0  0  0  0  0  0  0  0  0  0  0
   29.4275   12.8118   60.3297 O   0  0  0  0  0  0  0  0  0  0  0  0
   29.0424   12.9755   61.7093 C   0  0  0  0  0  0  0  0  0  0  0  0
   27.2085   14.4447   61.4957 O   0  0  0  0  0  0  0  0  0  0  0  0
   28.5366   14.3739   61.8703 C   0  0  0  0  0  0  0  0  0  0  0  0
   26.6887   13.9356   62.2374 H   0  0  0  0  0  0  0  0  0  0  0  0
   29.3311   15.4574   61.3065 C   0  0  0  0  0  0  0  0  0  0  0  0
   29.6232   15.3307   59.8993 O   0  0  0  0  0  0  0  0  0  0  0  0
   29.7586   16.4513   61.8859 O   0  0  0  0  0  0  0  0  0  0  0  0
   30.0713   14.4677   59.5986 H   0  0  0  0  0  0  0  0  0  0  0  0
 35 36  1  0  0  0
 36 34  1  0  0  0
 34 33  1  0  0  0
 33 29  1  0  0  0
 29 30  1  0  0  0
 29 31  2  0  0  0
 29 28  1  0  0  0
 28 24  1  0  0  0
 24 25  1  0  0  0
 24 26  2  0  0  0
 24 23  1  0  0  0
 23 22  1  0  0  0
 22  1  1  0  0  0
  1  2  1  0  0  0
  2  3  1  0  0  0
  3  4  1  0  0  0
  4  5  1  0  0  0
  4  6  1  0  0  0
  6  7  1  0  0  0
  3 10  1  0  0  0
 10 11  1  0  0  0
 11 12  2  0  0  0
 12 13  1  0  0  0
 13 14  2  0  0  0
 14 15  1  0  0  0
 14 16  1  0  0  0
 16 17  2  0  0  0
 17 18  1  0  0  0
 18 19  2  0  0  0
 36 38  1  0  0  0
 38 39  1  0  0  0
 38 40  2  0  0  0
  6  1  1  0  0  0
 19 10  1  0  0  0
 19 13  1  0  0  0
 35 37  1  0  0  0
 30 32  1  0  0  0
 25 27  1  0  0  0
  5  8  1  0  0  0
  7  9  1  0  0  0
 15 20  1  0  0  0
 15 21  1  0  0  0
 39 41  1  0  0  0
M  END
> <minimizedAffinity>
2.13688

> <CNNscore>
0.5142014027

> <CNNaffinity>
5.5373792648

> <CNN_VS>
2.8473281860

> <CNNaffinity_variance>
0.1452548802

$$$$
[H]OC(=O)[C@@]([H])(O[H])C([H])([H])OP(=O)(O[H])OP(=O)(O[H])OC([H])([H])[C@@]1([H])O[C@@]([H])(n2c([H])nc3c(N([H])[H])nc([H])nc32)[C@@]([H])(O[H])[C@]1([H])O[H]


 41 43  0  0  0  0  0  0  0  0999 V2000
   27.7380    9.2137   56.5750 C   0  0  0  0  0  0  0  0  0  0  0  0
   26.3960    9.2009   56.5509 O   0  0  0  0  0  0  0  0  0  0  0  0
   26.0733    8.2650   55.5025 C   0  0  0  0  0  0  0  0  0  0  0  0
   27.1192    8.3887   54.4892 C   0  0  0  0  0  0  0  0  0  0  0  0
   26.7568    8.5136   53.1634 O   0  0  0  0  0  0  0  0  0  0  0  0
   27.8968    9.5736   54.9941 C   0  0  0  0  0  0  0  0  0  0  0  0
   29.1933    9.6844   54.7013 O   0  0  0  0  0  0  0  0  0  0  0  0
   27.1889    9.3511   52.8006 H   0  0  0  0  0  0  0  0  0  0  0  0
   29.4150   10.4823   54.1340 H   0  0  0  0  0  0  0  0  0  0  0  0
   24.7250    8.5941   55.1872 N   0  0  0  0  0  0  0  0  0  0  0  0
   23.9820    9.6694   55.3766 C   0  0  0  0  0  0  0  0  0  0  0  0
   22.7591    9.4207   54.8579 N   0  0  0  0  0  0  0  0  0  0  0  0
   22.7266    8.1788   54.3366 C   0  0  0  0  0  0  0  0  0  0  0  0
   21.7815    7.3809   53.7411 C   0  0  0  0  0  0  0  0  0  0  0  0
   20.4778    7.9153   53.5810 N   0  0  0  0  0  0  0  0  0  0  0  0
   22.0763    6.1359   53.3846 N   0  0  0  0  0  0  0  0  0  0  0  0
   23.3111    5.5709   53.5918 C   0  0  0  0  0  0  0  0  0  0  0  0
   24.2227    6.3830   54.1750 N   0  0  0  0  0  0  0  0  0  0  0  0
   23.9519    7.6443   54.5332 C   0  0  0  0  0  0  0  0  0  0  0  0
   19.9330    7.8823   52.7122 H   0  0  0  0  0  0  0  0  0  0  0  0
   20.0289    8.3843   54.4344 H   0  0  0  0  0  0  0  0  0  0  0  0
   28.5185   10.2893   57.2279 C   0  0  0  0  0  0  0  0  0  0  0  0
   27.8693   10.4338   58.5071 O   0  0  0  0  0  0  0  0  0  0  0  0
   28.8249    9.9803   59.7743 P   0  0  0  0  0  0  0  0  0  0  0  0
   28.1570   10.2848   61.2790 O   0  0  0  0  0  0  0  0  0  0  0  0
   30.2098   10.5660   59.7669 O   0  0  0  0  0  0  0  0  0  0  0  0
   28.7593   10.0271   62.0462 H   0  0  0  0  0  0  0  0  0  0  0  0
   29.0409    8.2413   59.6564 O   0  0  0  0  0  0  0  0  0  0  0  0
   29.9519    7.7774   60.9063 P   0  0  0  0  0  0  0  0  0  0  0  0
   30.2768    9.1009   62.0119 O   0  0  0  0  0  0  0  0  0  0  0  0
   31.3406    7.2561   60.4245 O   0  0  0  0  0  0  0  0  0  0  0  0
   31.2349    8.9984   62.2970 H   0  0  0  0  0  0  0  0  0  0  0  0
   29.3472    6.6124   61.9645 O   0  0  0  0  0  0  0  0  0  0  0  0
   28.8006    5.5940   61.1027 C   0  0  0  0  0  0  0  0  0  0  0  0
   28.9861    3.5499   62.2665 O   0  0  0  0  0  0  0  0  0  0  0  0
   28.1207    4.5868   61.9747 C   0  0  0  0  0  0  0  0  0  0  0  0
   29.6927    3.9575   62.9100 H   0  0  0  0  0  0  0  0  0  0  0  0
   26.8024    4.1136   61.5732 C   0  0  0  0  0  0  0  0  0  0  0  0
   26.4661    4.3478   60.1898 O   0  0  0  0  0  0  0  0  0  0  0  0
   25.9705    3.5384   62.2682 O   0  0  0  0  0  0  0  0  0  0  0  0
   26.5342    5.3069   59.8561 H   0  0  0  0  0  0  0  0  0  0  0  0
 35 36  1  0  0  0
 36 34  1  0  0  0
 34 33  1  0  0  0
 33 29  1  0  0  0
 29 30  1  0  0  0
 29 31  2  0  0  0
 29 28  1  0  0  0
 28 24  1  0  0  0
 24 25  1  0  0  0
 24 26  2  0  0  0
 24 23  1  0  0  0
 23 22  1  0  0  0
 22  1  1  0  0  0
  1  2  1  0  0  0
  2  3  1  0  0  0
  3  4  1  0  0  0
  4  5  1  0  0  0
  4  6  1  0  0  0
  6  7  1  0  0  0
  3 10  1  0  0  0
 10 11  1  0  0  0
 11 12  2  0  0  0
 12 13  1  0  0  0
 13 14  2  0  0  0
 14 15  1  0  0  0
 14 16  1  0  0  0
 16 17  2  0  0  0
 17 18  1  0  0  0
 18 19  2  0  0  0
 36 38  1  0  0  0
 38 39  1  0  0  0
 38 40  2  0  0  0
  6  1  1  0  0  0
 19 10  1  0  0  0
 19 13  1  0  0  0
 35 37  1  0  0  0
 30 32  1  0  0  0
 25 27  1  0  0  0
  5  8  1  0  0  0
  7  9  1  0  0  0
 15 20  1  0  0  0
 15 21  1  0  0  0
 39 41  1  0  0  0
M  END
> <minimizedAffinity>
1.47899

> <CNNscore>
0.5141113400

> <CNNaffinity>
5.7082901001

> <CNN_VS>
2.9346966743

> <CNNaffinity_variance>
0.0518757626

$$$$
[H]OC(=O)[C@@]([H])(O[H])C([H])([H])OP(=O)(O[H])OP(=O)(O[H])OC([H])([H])[C@@]1([H])O[C@@]([H])(n2c([H])nc3c(N([H])[H])nc([H])nc32)[C@@]([H])(O[H])[C@]1([H])O[H]


 41 43  0  0  0  0  0  0  0  0999 V2000
   26.5848    8.5143   56.1393 C   0  0  0  0  0  0  0  0  0  0  0  0
   25.3948    8.1326   55.6495 O   0  0  0  0  0  0  0  0  0  0  0  0
   25.7264    7.4093   54.4471 C   0  0  0  0  0  0  0  0  0  0  0  0
   26.9137    8.0486   53.8835 C   0  0  0  0  0  0  0  0  0  0  0  0
   26.9301    8.3667   52.5406 O   0  0  0  0  0  0  0  0  0  0  0  0
   27.0619    9.2556   54.7694 C   0  0  0  0  0  0  0  0  0  0  0  0
   28.2696    9.7882   54.9609 O   0  0  0  0  0  0  0  0  0  0  0  0
   27.1378    9.3514   52.4570 H   0  0  0  0  0  0  0  0  0  0  0  0
   28.3614   10.7239   54.6092 H   0  0  0  0  0  0  0  0  0  0  0  0
   24.4990    7.4113   53.7268 N   0  0  0  0  0  0  0  0  0  0  0  0
   24.0367    6.7018   52.7133 C   0  0  0  0  0  0  0  0  0  0  0  0
   22.7854    7.1356   52.4446 N   0  0  0  0  0  0  0  0  0  0  0  0
   22.4523    8.1274   53.2933 C   0  0  0  0  0  0  0  0  0  0  0  0
   21.3740    8.9590   53.4678 C   0  0  0  0  0  0  0  0  0  0  0  0
   20.2767    8.8054   52.5829 N   0  0  0  0  0  0  0  0  0  0  0  0
   21.3951    9.9058   54.3990 N   0  0  0  0  0  0  0  0  0  0  0  0
   22.4731   10.1209   55.2229 C   0  0  0  0  0  0  0  0  0  0  0  0
   23.5176    9.2826   55.0311 N   0  0  0  0  0  0  0  0  0  0  0  0
   23.5151    8.3144   54.1064 C   0  0  0  0  0  0  0  0  0  0  0  0
   19.2943    8.7439   52.8719 H   0  0  0  0  0  0  0  0  0  0  0  0
   20.4927    8.7547   51.5338 H   0  0  0  0  0  0  0  0  0  0  0  0
   26.7299    9.5862   57.1504 C   0  0  0  0  0  0  0  0  0  0  0  0
   27.0797    8.8618   58.3468 O   0  0  0  0  0  0  0  0  0  0  0  0
   28.2896    9.5804   59.2097 P   0  0  0  0  0  0  0  0  0  0  0  0
   27.7883   10.2637   60.6535 O   0  0  0  0  0  0  0  0  0  0  0  0
   29.0693   10.6256   58.4609 O   0  0  0  0  0  0  0  0  0  0  0  0
   28.5303   10.7218   61.1609 H   0  0  0  0  0  0  0  0  0  0  0  0
   29.4455    8.3223   59.6167 O   0  0  0  0  0  0  0  0  0  0  0  0
   30.4276    8.9123   60.7546 P   0  0  0  0  0  0  0  0  0  0  0  0
   31.8142    7.8730   61.0316 O   0  0  0  0  0  0  0  0  0  0  0  0
   29.6898    9.0347   62.1231 O   0  0  0  0  0  0  0  0  0  0  0  0
   31.9663    7.8683   62.0248 H   0  0  0  0  0  0  0  0  0  0  0  0
   31.1831   10.3956   60.4867 O   0  0  0  0  0  0  0  0  0  0  0  0
   30.9578   11.1376   61.7021 C   0  0  0  0  0  0  0  0  0  0  0  0
   31.8110   13.2695   62.2448 O   0  0  0  0  0  0  0  0  0  0  0  0
   31.0013   12.5916   61.3537 C   0  0  0  0  0  0  0  0  0  0  0  0
   32.7781   12.9607   62.0235 H   0  0  0  0  0  0  0  0  0  0  0  0
   29.7368   13.2769   61.1203 C   0  0  0  0  0  0  0  0  0  0  0  0
   29.7104   14.6616   61.5245 O   0  0  0  0  0  0  0  0  0  0  0  0
   28.7177   12.8152   60.6158 O   0  0  0  0  0  0  0  0  0  0  0  0
   29.9660   14.8641   62.4887 H   0  0  0  0  0  0  0  0  0  0  0  0
 35 36  1  0  0  0
 36 34  1  0  0  0
 34 33  1  0  0  0
 33 29  1  0  0  0
 29 30  1  0  0  0
 29 31  2  0  0  0
 29 28  1  0  0  0
 28 24  1  0  0  0
 24 25  1  0  0  0
 24 26  2  0  0  0
 24 23  1  0  0  0
 23 22  1  0  0  0
 22  1  1  0  0  0
  1  2  1  0  0  0
  2  3  1  0  0  0
  3  4  1  0  0  0
  4  5  1  0  0  0
  4  6  1  0  0  0
  6  7  1  0  0  0
  3 10  1  0  0  0
 10 11  1  0  0  0
 11 12  2  0  0  0
 12 13  1  0  0  0
 13 14  2  0  0  0
 14 15  1  0  0  0
 14 16  1  0  0  0
 16 17  2  0  0  0
 17 18  1  0  0  0
 18 19  2  0  0  0
 36 38  1  0  0  0
 38 39  1  0  0  0
 38 40  2  0  0  0
  6  1  1  0  0  0
 19 10  1  0  0  0
 19 13  1  0  0  0
 35 37  1  0  0  0
 30 32  1  0  0  0
 25 27  1  0  0  0
  5  8  1  0  0  0
  7  9  1  0  0  0
 15 20  1  0  0  0
 15 21  1  0  0  0
 39 41  1  0  0  0
M  END
> <minimizedAffinity>
2.43008

> <CNNscore>
0.5102583766

> <CNNaffinity>
5.6756305695

> <CNN_VS>
2.8960380554

> <CNNaffinity_variance>
0.3766211271

$$$$
[H]OC(=O)[C@@]([H])(O[H])C([H])([H])OP(=O)(O[H])OP(=O)(O[H])OC([H])([H])[C@@]1([H])O[C@@]([H])(n2c([H])nc3c(N([H])[H])nc([H])nc32)[C@@]([H])(O[H])[C@]1([H])O[H]


 41 43  0  0  0  0  0  0  0  0999 V2000
   22.7560    6.4887   55.1687 C   0  0  0  0  0  0  0  0  0  0  0  0
   22.7373    7.8306   55.1941 O   0  0  0  0  0  0  0  0  0  0  0  0
   21.3343    8.1620   55.1668 C   0  0  0  0  0  0  0  0  0  0  0  0
   20.6743    7.1392   54.3580 C   0  0  0  0  0  0  0  0  0  0  0  0
   19.7953    7.5308   53.3686 O   0  0  0  0  0  0  0  0  0  0  0  0
   21.8490    6.3677   53.8209 C   0  0  0  0  0  0  0  0  0  0  0  0
   21.7040    5.0792   53.5084 O   0  0  0  0  0  0  0  0  0  0  0  0
   20.1016    7.1178   52.4995 H   0  0  0  0  0  0  0  0  0  0  0  0
   21.8353    4.8803   52.5332 H   0  0  0  0  0  0  0  0  0  0  0  0
   21.3374    9.5210   54.7439 N   0  0  0  0  0  0  0  0  0  0  0  0
   21.2842   10.6743   55.3852 C   0  0  0  0  0  0  0  0  0  0  0  0
   21.3301   11.6604   54.4622 N   0  0  0  0  0  0  0  0  0  0  0  0
   21.4123   11.1283   53.2272 C   0  0  0  0  0  0  0  0  0  0  0  0
   21.4382   11.6111   51.9423 C   0  0  0  0  0  0  0  0  0  0  0  0
   21.3763   13.0170   51.7681 N   0  0  0  0  0  0  0  0  0  0  0  0
   21.4631   10.7780   50.9083 N   0  0  0  0  0  0  0  0  0  0  0  0
   21.4532    9.4115   51.0481 C   0  0  0  0  0  0  0  0  0  0  0  0
   21.4333    8.9659   52.3255 N   0  0  0  0  0  0  0  0  0  0  0  0
   21.4188    9.7863   53.3835 C   0  0  0  0  0  0  0  0  0  0  0  0
   21.9995   13.5608   51.1611 H   0  0  0  0  0  0  0  0  0  0  0  0
   20.6177   13.5480   52.3089 H   0  0  0  0  0  0  0  0  0  0  0  0
   23.9638    5.7097   54.8126 C   0  0  0  0  0  0  0  0  0  0  0  0
   24.4040    6.3308   53.5882 O   0  0  0  0  0  0  0  0  0  0  0  0
   25.3224    7.6793   53.8388 P   0  0  0  0  0  0  0  0  0  0  0  0
   24.7415    8.6898   55.0405 O   0  0  0  0  0  0  0  0  0  0  0  0
   25.5616    8.5211   52.6160 O   0  0  0  0  0  0  0  0  0  0  0  0
   25.2958    9.5230   55.1685 H   0  0  0  0  0  0  0  0  0  0  0  0
   26.9077    7.1302   54.3585 O   0  0  0  0  0  0  0  0  0  0  0  0
   27.7665    8.4356   54.7657 P   0  0  0  0  0  0  0  0  0  0  0  0
   27.8060    9.6264   53.4773 O   0  0  0  0  0  0  0  0  0  0  0  0
   29.2506    8.0596   55.0625 O   0  0  0  0  0  0  0  0  0  0  0  0
   28.7414    9.9932   53.4641 H   0  0  0  0  0  0  0  0  0  0  0  0
   27.2458    9.3788   56.0627 O   0  0  0  0  0  0  0  0  0  0  0  0
   28.0956    8.9830   57.1580 C   0  0  0  0  0  0  0  0  0  0  0  0
   28.4973   11.2752   57.5476 O   0  0  0  0  0  0  0  0  0  0  0  0
   28.0939   10.1002   58.1525 C   0  0  0  0  0  0  0  0  0  0  0  0
   27.7147   11.5398   56.9174 H   0  0  0  0  0  0  0  0  0  0  0  0
   28.7560    9.8782   59.4313 C   0  0  0  0  0  0  0  0  0  0  0  0
   29.2330    8.5335   59.6454 O   0  0  0  0  0  0  0  0  0  0  0  0
   28.9579   10.6986   60.3215 O   0  0  0  0  0  0  0  0  0  0  0  0
   28.5524    7.7831   59.5472 H   0  0  0  0  0  0  0  0  0  0  0  0
 35 36  1  0  0  0
 36 34  1  0  0  0
 34 33  1  0  0  0
 33 29  1  0  0  0
 29 30  1  0  0  0
 29 31  2  0  0  0
 29 28  1  0  0  0
 28 24  1  0  0  0
 24 25  1  0  0  0
 24 26  2  0  0  0
 24 23  1  0  0  0
 23 22  1  0  0  0
 22  1  1  0  0  0
  1  2  1  0  0  0
  2  3  1  0  0  0
  3  4  1  0  0  0
  4  5  1  0  0  0
  4  6  1  0  0  0
  6  7  1  0  0  0
  3 10  1  0  0  0
 10 11  1  0  0  0
 11 12  2  0  0  0
 12 13  1  0  0  0
 13 14  2  0  0  0
 14 15  1  0  0  0
 14 16  1  0  0  0
 16 17  2  0  0  0
 17 18  1  0  0  0
 18 19  2  0  0  0
 36 38  1  0  0  0
 38 39  1  0  0  0
 38 40  2  0  0  0
  6  1  1  0  0  0
 19 10  1  0  0  0
 19 13  1  0  0  0
 35 37  1  0  0  0
 30 32  1  0  0  0
 25 27  1  0  0  0
  5  8  1  0  0  0
  7  9  1  0  0  0
 15 20  1  0  0  0
 15 21  1  0  0  0
 39 41  1  0  0  0
M  END
> <minimizedAffinity>
3.28943

> <CNNscore>
0.5011519194

> <CNNaffinity>
5.7715101242

> <CNN_VS>
2.8924033642

> <CNNaffinity_variance>
0.2406268120

$$$$
[H]OC(=O)[C@@]([H])(O[H])C([H])([H])OP(=O)(O[H])OP(=O)(O[H])OC([H])([H])[C@@]1([H])O[C@@]([H])(n2c([H])nc3c(N([H])[H])nc([H])nc32)[C@@]([H])(O[H])[C@]1([H])O[H]


 41 43  0  0  0  0  0  0  0  0999 V2000
   21.5289    8.7937   54.8534 C   0  0  0  0  0  0  0  0  0  0  0  0
   22.6613    8.1967   54.4494 O   0  0  0  0  0  0  0  0  0  0  0  0
   23.6486    8.6356   55.4042 C   0  0  0  0  0  0  0  0  0  0  0  0
   23.2853    9.9970   55.7921 C   0  0  0  0  0  0  0  0  0  0  0  0
   24.2579   10.9762   55.7921 O   0  0  0  0  0  0  0  0  0  0  0  0
   22.1582   10.2963   54.8414 C   0  0  0  0  0  0  0  0  0  0  0  0
   21.2118   11.1671   55.1947 O   0  0  0  0  0  0  0  0  0  0  0  0
   23.9356   11.7345   55.2084 H   0  0  0  0  0  0  0  0  0  0  0  0
   21.1788   11.9878   54.6176 H   0  0  0  0  0  0  0  0  0  0  0  0
   24.8763    8.3841   54.7296 N   0  0  0  0  0  0  0  0  0  0  0  0
   25.1801    7.8506   53.5602 C   0  0  0  0  0  0  0  0  0  0  0  0
   26.5254    7.8739   53.4348 N   0  0  0  0  0  0  0  0  0  0  0  0
   27.0783    8.4254   54.5326 C   0  0  0  0  0  0  0  0  0  0  0  0
   28.3525    8.6635   54.9846 C   0  0  0  0  0  0  0  0  0  0  0  0
   29.4292    8.2726   54.1487 N   0  0  0  0  0  0  0  0  0  0  0  0
   28.5552    9.1896   56.1871 N   0  0  0  0  0  0  0  0  0  0  0  0
   27.5317    9.5129   57.0445 C   0  0  0  0  0  0  0  0  0  0  0  0
   26.2880    9.2722   56.5692 N   0  0  0  0  0  0  0  0  0  0  0  0
   26.0589    8.7527   55.3567 C   0  0  0  0  0  0  0  0  0  0  0  0
   30.2332    8.8645   53.9124 H   0  0  0  0  0  0  0  0  0  0  0  0
   29.4004    7.2824   53.7383 H   0  0  0  0  0  0  0  0  0  0  0  0
   20.3418    8.9371   53.9801 C   0  0  0  0  0  0  0  0  0  0  0  0
   20.0563    7.5785   53.5911 O   0  0  0  0  0  0  0  0  0  0  0  0
   20.7019    7.1739   52.1268 P   0  0  0  0  0  0  0  0  0  0  0  0
   22.3706    7.0385   52.1279 O   0  0  0  0  0  0  0  0  0  0  0  0
   20.3224    8.0845   50.9919 O   0  0  0  0  0  0  0  0  0  0  0  0
   22.7568    6.8156   51.2230 H   0  0  0  0  0  0  0  0  0  0  0  0
   20.0637    5.5930   51.7047 O   0  0  0  0  0  0  0  0  0  0  0  0
   19.9111    4.7480   53.0722 P   0  0  0  0  0  0  0  0  0  0  0  0
   21.2355    5.0483   54.1836 O   0  0  0  0  0  0  0  0  0  0  0  0
   19.9158    3.2148   52.7869 O   0  0  0  0  0  0  0  0  0  0  0  0
   21.4636    4.1597   54.5936 H   0  0  0  0  0  0  0  0  0  0  0  0
   18.5812    5.0432   54.0658 O   0  0  0  0  0  0  0  0  0  0  0  0
   17.9357    3.7602   54.1917 C   0  0  0  0  0  0  0  0  0  0  0  0
   16.1268    3.7944   55.7064 O   0  0  0  0  0  0  0  0  0  0  0  0
   16.4742    4.0115   54.3868 C   0  0  0  0  0  0  0  0  0  0  0  0
   16.5578    4.5788   56.2342 H   0  0  0  0  0  0  0  0  0  0  0  0
   15.5428    3.3857   53.4573 C   0  0  0  0  0  0  0  0  0  0  0  0
   14.3816    4.1779   53.1321 O   0  0  0  0  0  0  0  0  0  0  0  0
   15.6448    2.2854   52.9233 O   0  0  0  0  0  0  0  0  0  0  0  0
   13.8190    4.5109   53.9122 H   0  0  0  0  0  0  0  0  0  0  0  0
 35 36  1  0  0  0
 36 34  1  0  0  0
 34 33  1  0  0  0
 33 29  1  0  0  0
 29 30  1  0  0  0
 29 31  2  0  0  0
 29 28  1  0  0  0
 28 24  1  0  0  0
 24 25  1  0  0  0
 24 26  2  0  0  0
 24 23  1  0  0  0
 23 22  1  0  0  0
 22  1  1  0  0  0
  1  2  1  0  0  0
  2  3  1  0  0  0
  3  4  1  0  0  0
  4  5  1  0  0  0
  4  6  1  0  0  0
  6  7  1  0  0  0
  3 10  1  0  0  0
 10 11  1  0  0  0
 11 12  2  0  0  0
 12 13  1  0  0  0
 13 14  2  0  0  0
 14 15  1  0  0  0
 14 16  1  0  0  0
 16 17  2  0  0  0
 17 18  1  0  0  0
 18 19  2  0  0  0
 36 38  1  0  0  0
 38 39  1  0  0  0
 38 40  2  0  0  0
  6  1  1  0  0  0
 19 10  1  0  0  0
 19 13  1  0  0  0
 35 37  1  0  0  0
 30 32  1  0  0  0
 25 27  1  0  0  0
  5  8  1  0  0  0
  7  9  1  0  0  0
 15 20  1  0  0  0
 15 21  1  0  0  0
 39 41  1  0  0  0
M  END
> <minimizedAffinity>
12.63983

> <CNNscore>
0.4669421017

> <CNNaffinity>
5.8593745232

> <CNN_VS>
2.7359886169

> <CNNaffinity_variance>
0.3020288944

$$$$
[H]OC(=O)[C@@]([H])(O[H])C([H])([H])OP(=O)(O[H])OP(=O)(O[H])OC([H])([H])[C@@]1([H])O[C@@]([H])(n2c([H])nc3c(N([H])[H])nc([H])nc32)[C@@]([H])(O[H])[C@]1([H])O[H]


 41 43  0  0  0  0  0  0  0  0999 V2000
   27.1393    8.5381   55.7771 C   0  0  0  0  0  0  0  0  0  0  0  0
   25.9440    8.9029   55.2873 O   0  0  0  0  0  0  0  0  0  0  0  0
   25.3220    7.6562   54.9161 C   0  0  0  0  0  0  0  0  0  0  0  0
   26.3916    6.7687   54.4640 C   0  0  0  0  0  0  0  0  0  0  0  0
   26.2376    6.0846   53.2752 O   0  0  0  0  0  0  0  0  0  0  0  0
   27.5757    7.6968   54.4521 C   0  0  0  0  0  0  0  0  0  0  0  0
   28.8015    7.2036   54.6342 O   0  0  0  0  0  0  0  0  0  0  0  0
   27.0306    6.2993   52.6881 H   0  0  0  0  0  0  0  0  0  0  0  0
   29.4069    7.3168   53.8416 H   0  0  0  0  0  0  0  0  0  0  0  0
   24.3003    8.0673   54.0146 N   0  0  0  0  0  0  0  0  0  0  0  0
   24.0399    7.7962   52.7485 C   0  0  0  0  0  0  0  0  0  0  0  0
   22.9194    8.4695   52.4060 N   0  0  0  0  0  0  0  0  0  0  0  0
   22.4667    9.1728   53.4621 C   0  0  0  0  0  0  0  0  0  0  0  0
   21.4380   10.0509   53.6978 C   0  0  0  0  0  0  0  0  0  0  0  0
   20.5702   10.3504   52.6171 N   0  0  0  0  0  0  0  0  0  0  0  0
   21.3064   10.6343   54.8836 N   0  0  0  0  0  0  0  0  0  0  0  0
   22.1740   10.4147   55.9258 C   0  0  0  0  0  0  0  0  0  0  0  0
   23.1736    9.5408   55.6654 N   0  0  0  0  0  0  0  0  0  0  0  0
   23.3202    8.9326   54.4817 C   0  0  0  0  0  0  0  0  0  0  0  0
   19.5456   10.3420   52.6679 H   0  0  0  0  0  0  0  0  0  0  0  0
   21.0215   10.6091   51.6794 H   0  0  0  0  0  0  0  0  0  0  0  0
   28.2641    9.4874   55.9383 C   0  0  0  0  0  0  0  0  0  0  0  0
   27.6550   10.6033   56.6183 O   0  0  0  0  0  0  0  0  0  0  0  0
   27.9738   10.6284   58.2377 P   0  0  0  0  0  0  0  0  0  0  0  0
   27.4206    9.2825   59.0654 O   0  0  0  0  0  0  0  0  0  0  0  0
   27.4718   11.8450   58.9650 O   0  0  0  0  0  0  0  0  0  0  0  0
   27.5982    9.3193   60.0578 H   0  0  0  0  0  0  0  0  0  0  0  0
   29.7209   10.6524   58.4156 O   0  0  0  0  0  0  0  0  0  0  0  0
   30.0491   11.0019   59.9575 P   0  0  0  0  0  0  0  0  0  0  0  0
   31.6111   10.3770   60.4566 O   0  0  0  0  0  0  0  0  0  0  0  0
   28.9947   10.3640   60.9133 O   0  0  0  0  0  0  0  0  0  0  0  0
   31.4870   10.0272   61.3904 H   0  0  0  0  0  0  0  0  0  0  0  0
   30.1869   12.6196   60.4125 O   0  0  0  0  0  0  0  0  0  0  0  0
   29.6468   12.6637   61.7485 C   0  0  0  0  0  0  0  0  0  0  0  0
   27.4585   13.2670   61.1046 O   0  0  0  0  0  0  0  0  0  0  0  0
   28.5844   13.7164   61.7675 C   0  0  0  0  0  0  0  0  0  0  0  0
   27.0540   12.5343   61.7204 H   0  0  0  0  0  0  0  0  0  0  0  0
   28.9559   15.0699   61.3762 C   0  0  0  0  0  0  0  0  0  0  0  0
   30.3757   15.3199   61.3193 O   0  0  0  0  0  0  0  0  0  0  0  0
   28.2061   15.9965   61.0840 O   0  0  0  0  0  0  0  0  0  0  0  0
   30.9131   15.1124   62.1585 H   0  0  0  0  0  0  0  0  0  0  0  0
 35 36  1  0  0  0
 36 34  1  0  0  0
 34 33  1  0  0  0
 33 29  1  0  0  0
 29 30  1  0  0  0
 29 31  2  0  0  0
 29 28  1  0  0  0
 28 24  1  0  0  0
 24 25  1  0  0  0
 24 26  2  0  0  0
 24 23  1  0  0  0
 23 22  1  0  0  0
 22  1  1  0  0  0
  1  2  1  0  0  0
  2  3  1  0  0  0
  3  4  1  0  0  0
  4  5  1  0  0  0
  4  6  1  0  0  0
  6  7  1  0  0  0
  3 10  1  0  0  0
 10 11  1  0  0  0
 11 12  2  0  0  0
 12 13  1  0  0  0
 13 14  2  0  0  0
 14 15  1  0  0  0
 14 16  1  0  0  0
 16 17  2  0  0  0
 17 18  1  0  0  0
 18 19  2  0  0  0
 36 38  1  0  0  0
 38 39  1  0  0  0
 38 40  2  0  0  0
  6  1  1  0  0  0
 19 10  1  0  0  0
 19 13  1  0  0  0
 35 37  1  0  0  0
 30 32  1  0  0  0
 25 27  1  0  0  0
  5  8  1  0  0  0
  7  9  1  0  0  0
 15 20  1  0  0  0
 15 21  1  0  0  0
 39 41  1  0  0  0
M  END
> <minimizedAffinity>
10.96638

> <CNNscore>
0.4614078104

> <CNNaffinity>
5.5679950714

> <CNN_VS>
2.5691163540

> <CNNaffinity_variance>
0.4117529988

$$$$
[H]OC(=O)[C@@]([H])(O[H])C([H])([H])OP(=O)(O[H])OP(=O)(O[H])OC([H])([H])[C@@]1([H])O[C@@]([H])(n2c([H])nc3c(N([H])[H])nc([H])nc32)[C@@]([H])(O[H])[C@]1([H])O[H]


 41 43  0  0  0  0  0  0  0  0999 V2000
   25.2449    8.9220   54.1304 C   0  0  0  0  0  0  0  0  0  0  0  0
   24.3330    8.2635   53.3979 O   0  0  0  0  0  0  0  0  0  0  0  0
   23.2591    9.2125   53.2397 C   0  0  0  0  0  0  0  0  0  0  0  0
   23.2146   10.0083   54.4647 C   0  0  0  0  0  0  0  0  0  0  0  0
   22.0015   10.2049   55.0928 O   0  0  0  0  0  0  0  0  0  0  0  0
   24.2101    9.2892   55.3338 C   0  0  0  0  0  0  0  0  0  0  0  0
   24.8655    9.9620   56.2808 O   0  0  0  0  0  0  0  0  0  0  0  0
   22.0935    9.8966   56.0500 H   0  0  0  0  0  0  0  0  0  0  0  0
   24.6623    9.6522   57.2138 H   0  0  0  0  0  0  0  0  0  0  0  0
   22.1571    8.3874   52.8785 N   0  0  0  0  0  0  0  0  0  0  0  0
   21.1896    8.4993   51.9865 C   0  0  0  0  0  0  0  0  0  0  0  0
   20.4153    7.3957   52.0793 N   0  0  0  0  0  0  0  0  0  0  0  0
   20.8949    6.5787   53.0371 C   0  0  0  0  0  0  0  0  0  0  0  0
   20.5175    5.3837   53.5975 C   0  0  0  0  0  0  0  0  0  0  0  0
   19.3396    4.7692   53.1019 N   0  0  0  0  0  0  0  0  0  0  0  0
   21.2084    4.8622   54.6049 N   0  0  0  0  0  0  0  0  0  0  0  0
   22.3125    5.4715   55.1495 C   0  0  0  0  0  0  0  0  0  0  0  0
   22.6631    6.6442   54.5730 N   0  0  0  0  0  0  0  0  0  0  0  0
   21.9887    7.1839   53.5500 C   0  0  0  0  0  0  0  0  0  0  0  0
   19.2614    3.7822   52.8333 H   0  0  0  0  0  0  0  0  0  0  0  0
   18.4659    5.3835   53.0061 H   0  0  0  0  0  0  0  0  0  0  0  0
   26.3426    8.2369   54.8501 C   0  0  0  0  0  0  0  0  0  0  0  0
   27.2562    9.3108   55.1514 O   0  0  0  0  0  0  0  0  0  0  0  0
   27.8802    9.2226   56.6770 P   0  0  0  0  0  0  0  0  0  0  0  0
   29.1122    8.1023   56.8493 O   0  0  0  0  0  0  0  0  0  0  0  0
   26.8724    8.9573   57.7611 O   0  0  0  0  0  0  0  0  0  0  0  0
   29.4694    8.0384   57.7906 H   0  0  0  0  0  0  0  0  0  0  0  0
   28.5696   10.7965   57.0403 O   0  0  0  0  0  0  0  0  0  0  0  0
   28.7021   10.9120   58.6455 P   0  0  0  0  0  0  0  0  0  0  0  0
   30.3709   11.0915   59.1576 O   0  0  0  0  0  0  0  0  0  0  0  0
   28.1631    9.6271   59.3460 O   0  0  0  0  0  0  0  0  0  0  0  0
   30.4715   10.5304   59.9851 H   0  0  0  0  0  0  0  0  0  0  0  0
   27.9805   12.2193   59.4285 O   0  0  0  0  0  0  0  0  0  0  0  0
   29.0647   12.8599   60.1305 C   0  0  0  0  0  0  0  0  0  0  0  0
   29.9036   12.3204   62.2689 O   0  0  0  0  0  0  0  0  0  0  0  0
   28.7771   12.7506   61.5942 C   0  0  0  0  0  0  0  0  0  0  0  0
   30.5648   13.1210   62.2333 H   0  0  0  0  0  0  0  0  0  0  0  0
   27.5768   12.0330   62.0035 C   0  0  0  0  0  0  0  0  0  0  0  0
   27.7309   10.6030   62.1181 O   0  0  0  0  0  0  0  0  0  0  0  0
   26.4757   12.5064   62.2675 O   0  0  0  0  0  0  0  0  0  0  0  0
   28.0870   10.1120   61.3007 H   0  0  0  0  0  0  0  0  0  0  0  0
 35 36  1  0  0  0
 36 34  1  0  0  0
 34 33  1  0  0  0
 33 29  1  0  0  0
 29 30  1  0  0  0
 29 31  2  0  0  0
 29 28  1  0  0  0
 28 24  1  0  0  0
 24 25  1  0  0  0
 24 26  2  0  0  0
 24 23  1  0  0  0
 23 22  1  0  0  0
 22  1  1  0  0  0
  1  2  1  0  0  0
  2  3  1  0  0  0
  3  4  1  0  0  0
  4  5  1  0  0  0
  4  6  1  0  0  0
  6  7  1  0  0  0
  3 10  1  0  0  0
 10 11  1  0  0  0
 11 12  2  0  0  0
 12 13  1  0  0  0
 13 14  2  0  0  0
 14 15  1  0  0  0
 14 16  1  0  0  0
 16 17  2  0  0  0
 17 18  1  0  0  0
 18 19  2  0  0  0
 36 38  1  0  0  0
 38 39  1  0  0  0
 38 40  2  0  0  0
  6  1  1  0  0  0
 19 10  1  0  0  0
 19 13  1  0  0  0
 35 37  1  0  0  0
 30 32  1  0  0  0
 25 27  1  0  0  0
  5  8  1  0  0  0
  7  9  1  0  0  0
 15 20  1  0  0  0
 15 21  1  0  0  0
 39 41  1  0  0  0
M  END
> <minimizedAffinity>
8.07242

> <CNNscore>
0.4512703717

> <CNNaffinity>
5.7446947098

> <CNN_VS>
2.5924105644

> <CNNaffinity_variance>
0.7980538607

$$$$
[H]OC(=O)[C@@]([H])(O[H])C([H])([H])OP(=O)(O[H])OP(=O)(O[H])OC([H])([H])[C@@]1([H])O[C@@]([H])(n2c([H])nc3c(N([H])[H])nc([H])nc32)[C@@]([H])(O[H])[C@]1([H])O[H]


 41 43  0  0  0  0  0  0  0  0999 V2000
   26.7287    8.6768   54.9750 C   0  0  0  0  0  0  0  0  0  0  0  0
   25.9433    7.6786   54.5408 O   0  0  0  0  0  0  0  0  0  0  0  0
   24.7377    8.3427   54.1112 C   0  0  0  0  0  0  0  0  0  0  0  0
   24.5485    9.4894   54.9974 C   0  0  0  0  0  0  0  0  0  0  0  0
   23.3087    9.6998   55.5662 O   0  0  0  0  0  0  0  0  0  0  0  0
   25.6283    9.2674   56.0212 C   0  0  0  0  0  0  0  0  0  0  0  0
   26.1542   10.3124   56.6617 O   0  0  0  0  0  0  0  0  0  0  0  0
   23.4307    9.7513   56.5672 H   0  0  0  0  0  0  0  0  0  0  0  0
   25.9854   10.3095   57.6512 H   0  0  0  0  0  0  0  0  0  0  0  0
   23.7841    7.2865   54.0894 N   0  0  0  0  0  0  0  0  0  0  0  0
   23.7779    6.0552   54.5670 C   0  0  0  0  0  0  0  0  0  0  0  0
   22.5871    5.4986   54.2532 N   0  0  0  0  0  0  0  0  0  0  0  0
   21.8335    6.3829   53.5714 C   0  0  0  0  0  0  0  0  0  0  0  0
   20.5999    6.3735   52.9690 C   0  0  0  0  0  0  0  0  0  0  0  0
   19.8462    5.1742   53.0353 N   0  0  0  0  0  0  0  0  0  0  0  0
   20.1653    7.4375   52.3034 N   0  0  0  0  0  0  0  0  0  0  0  0
   20.9048    8.5868   52.1650 C   0  0  0  0  0  0  0  0  0  0  0  0
   22.1129    8.5682   52.7739 N   0  0  0  0  0  0  0  0  0  0  0  0
   22.5676    7.5117   53.4592 C   0  0  0  0  0  0  0  0  0  0  0  0
   18.8576    5.1169   53.3034 H   0  0  0  0  0  0  0  0  0  0  0  0
   20.3485    4.2615   52.7815 H   0  0  0  0  0  0  0  0  0  0  0  0
   27.9068    8.4513   55.8431 C   0  0  0  0  0  0  0  0  0  0  0  0
   28.0695    9.7197   56.5091 O   0  0  0  0  0  0  0  0  0  0  0  0
   28.3854    9.5693   58.1222 P   0  0  0  0  0  0  0  0  0  0  0  0
   29.7680    8.6918   58.4704 O   0  0  0  0  0  0  0  0  0  0  0  0
   27.2634    8.9885   58.9377 O   0  0  0  0  0  0  0  0  0  0  0  0
   29.9383    8.5845   59.4590 H   0  0  0  0  0  0  0  0  0  0  0  0
   28.6411   11.1905   58.7475 O   0  0  0  0  0  0  0  0  0  0  0  0
   29.2120   11.0486   60.2513 P   0  0  0  0  0  0  0  0  0  0  0  0
   28.0807   10.2255   61.3106 O   0  0  0  0  0  0  0  0  0  0  0  0
   29.4703   12.4490   60.8870 O   0  0  0  0  0  0  0  0  0  0  0  0
   28.1192   10.7089   62.1906 H   0  0  0  0  0  0  0  0  0  0  0  0
   30.6119   10.1442   60.5070 O   0  0  0  0  0  0  0  0  0  0  0  0
   30.3805    9.4719   61.7612 C   0  0  0  0  0  0  0  0  0  0  0  0
   31.8163    7.9728   60.6393 O   0  0  0  0  0  0  0  0  0  0  0  0
   30.8235    8.0528   61.5970 C   0  0  0  0  0  0  0  0  0  0  0  0
   32.6501    8.4152   61.0737 H   0  0  0  0  0  0  0  0  0  0  0  0
   29.7982    7.0326   61.4205 C   0  0  0  0  0  0  0  0  0  0  0  0
   29.2729    6.9217   60.0814 O   0  0  0  0  0  0  0  0  0  0  0  0
   29.3525    6.2655   62.2685 O   0  0  0  0  0  0  0  0  0  0  0  0
   28.8996    7.7708   59.6622 H   0  0  0  0  0  0  0  0  0  0  0  0
 35 36  1  0  0  0
 36 34  1  0  0  0
 34 33  1  0  0  0
 33 29  1  0  0  0
 29 30  1  0  0  0
 29 31  2  0  0  0
 29 28  1  0  0  0
 28 24  1  0  0  0
 24 25  1  0  0  0
 24 26  2  0  0  0
 24 23  1  0  0  0
 23 22  1  0  0  0
 22  1  1  0  0  0
  1  2  1  0  0  0
  2  3  1  0  0  0
  3  4  1  0  0  0
  4  5  1  0  0  0
  4  6  1  0  0  0
  6  7  1  0  0  0
  3 10  1  0  0  0
 10 11  1  0  0  0
 11 12  2  0  0  0
 12 13  1  0  0  0
 13 14  2  0  0  0
 14 15  1  0  0  0
 14 16  1  0  0  0
 16 17  2  0  0  0
 17 18  1  0  0  0
 18 19  2  0  0  0
 36 38  1  0  0  0
 38 39  1  0  0  0
 38 40  2  0  0  0
  6  1  1  0  0  0
 19 10  1  0  0  0
 19 13  1  0  0  0
 35 37  1  0  0  0
 30 32  1  0  0  0
 25 27  1  0  0  0
  5  8  1  0  0  0
  7  9  1  0  0  0
 15 20  1  0  0  0
 15 21  1  0  0  0
 39 41  1  0  0  0
M  END
> <minimizedAffinity>
0.65611

> <CNNscore>
0.4472182989

> <CNNaffinity>
5.6576790810

> <CNN_VS>
2.5302176476

> <CNNaffinity_variance>
0.5123592019

$$$$
[H]Oc1c([H])c([H])c2c(c1[H])-n1nnc(-c3c([H])c([H])c([H])c([H])c3[C@]([H])(C([H])([H])[H])C([H])([H])C3(C([H])([H])[H])C([H])([H])C3([H])[H])c1C([H])([H])C2([H])[H]


 28 32  0  0  0  0  0  0  0  0999 V2000
   22.7131    9.2561   54.3483 C   0  0  0  0  0  0  0  0  0  0  0  0
   22.5063    9.6492   55.5893 N   0  0  0  0  0  0  0  0  0  0  0  0
   23.6350    9.6975   56.2853 N   0  0  0  0  0  0  0  0  0  0  0  0
   24.6066    9.3132   55.4435 N   0  0  0  0  0  0  0  0  0  0  0  0
   24.0958    9.0338   54.2433 C   0  0  0  0  0  0  0  0  0  0  0  0
   24.8980    8.6495   53.0848 C   0  0  0  0  0  0  0  0  0  0  0  0
   26.2115    8.0306   53.4503 C   0  0  0  0  0  0  0  0  0  0  0  0
   26.8105    8.5712   54.6839 C   0  0  0  0  0  0  0  0  0  0  0  0
   28.1968    8.4514   54.8564 C   0  0  0  0  0  0  0  0  0  0  0  0
   28.7386    8.8598   56.0415 C   0  0  0  0  0  0  0  0  0  0  0  0
   27.9136    9.3706   57.0186 C   0  0  0  0  0  0  0  0  0  0  0  0
   28.4756    9.7842   58.2266 O   0  0  0  0  0  0  0  0  0  0  0  0
   26.5431    9.5053   56.8856 C   0  0  0  0  0  0  0  0  0  0  0  0
   26.0034    9.0840   55.6652 C   0  0  0  0  0  0  0  0  0  0  0  0
   28.7934   10.7606   58.3309 H   0  0  0  0  0  0  0  0  0  0  0  0
   20.9967    7.8918   53.2127 C   0  0  0  0  0  0  0  0  0  0  0  0
   20.1407    7.7747   52.0999 C   0  0  0  0  0  0  0  0  0  0  0  0
   20.0705    8.7360   51.1337 C   0  0  0  0  0  0  0  0  0  0  0  0
   20.8399    9.8808   51.1969 C   0  0  0  0  0  0  0  0  0  0  0  0
   21.6719   10.0055   52.2682 C   0  0  0  0  0  0  0  0  0  0  0  0
   21.7691    9.0442   53.2720 C   0  0  0  0  0  0  0  0  0  0  0  0
   21.6676    7.4249   55.4892 C   0  0  0  0  0  0  0  0  0  0  0  0
   20.9965    6.8330   54.2468 C   0  0  0  0  0  0  0  0  0  0  0  0
   21.7200    5.5695   53.8540 C   0  0  0  0  0  0  0  0  0  0  0  0
   23.2033    5.6164   53.9561 C   0  0  0  0  0  0  0  0  0  0  0  0
   23.9226    5.8723   55.2597 C   0  0  0  0  0  0  0  0  0  0  0  0
   23.9130    6.2807   52.7296 C   0  0  0  0  0  0  0  0  0  0  0  0
   23.9904    4.8202   52.9463 C   0  0  0  0  0  0  0  0  0  0  0  0
 22 23  1  0  0  0
 23 24  1  0  0  0
 24 25  1  0  0  0
 25 26  1  0  0  0
 25 27  1  0  0  0
 27 28  1  0  0  0
 23 16  1  0  0  0
 16 17  2  0  0  0
 17 18  1  0  0  0
 18 19  2  0  0  0
 19 20  1  0  0  0
 20 21  2  0  0  0
 21  1  1  0  0  0
  1  2  1  0  0  0
  2  3  2  0  0  0
  3  4  1  0  0  0
  4  5  1  0  0  0
  5  6  1  0  0  0
  6  7  1  0  0  0
  7  8  1  0  0  0
  8  9  2  0  0  0
  9 10  1  0  0  0
 10 11  2  0  0  0
 11 12  1  0  0  0
 11 13  1  0  0  0
 13 14  2  0  0  0
 28 25  1  0  0  0
 21 16  1  0  0  0
  5  1  2  0  0  0
 14  8  1  0  0  0
 14  4  1  0  0  0
 12 15  1  0  0  0
M  END
> <minimizedAffinity>
10.24789

> <CNNscore>
0.5686094165

> <CNNaffinity>
6.6660270691

> <CNN_VS>
3.7903656960

> <CNNaffinity_variance>
0.4326264262

$$$$
[H]Oc1c([H])c([H])c2c(c1[H])-n1nnc(-c3c([H])c([H])c([H])c([H])c3[C@]([H])(C([H])([H])[H])C([H])([H])C3(C([H])([H])[H])C([H])([H])C3([H])[H])c1C([H])([H])C2([H])[H]


 28 32  0  0  0  0  0  0  0  0999 V2000
   22.8780    8.9887   54.3416 C   0  0  0  0  0  0  0  0  0  0  0  0
   22.6275    9.3952   55.5703 N   0  0  0  0  0  0  0  0  0  0  0  0
   23.7390    9.5196   56.2843 N   0  0  0  0  0  0  0  0  0  0  0  0
   24.7453    9.1721   55.4676 N   0  0  0  0  0  0  0  0  0  0  0  0
   24.2725    8.8406   54.2651 C   0  0  0  0  0  0  0  0  0  0  0  0
   25.1154    8.4773   53.1290 C   0  0  0  0  0  0  0  0  0  0  0  0
   26.4539    7.9391   53.5300 C   0  0  0  0  0  0  0  0  0  0  0  0
   26.9998    8.5369   54.7618 C   0  0  0  0  0  0  0  0  0  0  0  0
   28.3873    8.4969   54.9605 C   0  0  0  0  0  0  0  0  0  0  0  0
   28.8843    8.9587   56.1456 C   0  0  0  0  0  0  0  0  0  0  0  0
   28.0149    9.4433   57.0973 C   0  0  0  0  0  0  0  0  0  0  0  0
   28.5315    9.9116   58.3057 O   0  0  0  0  0  0  0  0  0  0  0  0
   26.6419    9.4997   56.9381 C   0  0  0  0  0  0  0  0  0  0  0  0
   26.1482    9.0245   55.7180 C   0  0  0  0  0  0  0  0  0  0  0  0
   28.7935   10.9060   58.3944 H   0  0  0  0  0  0  0  0  0  0  0  0
   21.4598    7.4251   53.0608 C   0  0  0  0  0  0  0  0  0  0  0  0
   20.6127    7.2551   51.9479 C   0  0  0  0  0  0  0  0  0  0  0  0
   20.3046    8.2841   51.1061 C   0  0  0  0  0  0  0  0  0  0  0  0
   20.8104    9.5538   51.3026 C   0  0  0  0  0  0  0  0  0  0  0  0
   21.6310    9.7309   52.3753 C   0  0  0  0  0  0  0  0  0  0  0  0
   21.9668    8.7032   53.2542 C   0  0  0  0  0  0  0  0  0  0  0  0
   23.2428    6.1610   54.0968 C   0  0  0  0  0  0  0  0  0  0  0  0
   21.7225    6.2782   53.9586 C   0  0  0  0  0  0  0  0  0  0  0  0
   21.1713    4.9608   53.4743 C   0  0  0  0  0  0  0  0  0  0  0  0
   19.6910    4.8221   53.5256 C   0  0  0  0  0  0  0  0  0  0  0  0
   18.7622    6.0127   53.5700 C   0  0  0  0  0  0  0  0  0  0  0  0
   19.1858    3.6241   54.3968 C   0  0  0  0  0  0  0  0  0  0  0  0
   19.0929    3.5768   52.9218 C   0  0  0  0  0  0  0  0  0  0  0  0
 22 23  1  0  0  0
 23 24  1  0  0  0
 24 25  1  0  0  0
 25 26  1  0  0  0
 25 27  1  0  0  0
 27 28  1  0  0  0
 23 16  1  0  0  0
 16 17  2  0  0  0
 17 18  1  0  0  0
 18 19  2  0  0  0
 19 20  1  0  0  0
 20 21  2  0  0  0
 21  1  1  0  0  0
  1  2  1  0  0  0
  2  3  2  0  0  0
  3  4  1  0  0  0
  4  5  1  0  0  0
  5  6  1  0  0  0
  6  7  1  0  0  0
  7  8  1  0  0  0
  8  9  2  0  0  0
  9 10  1  0  0  0
 10 11  2  0  0  0
 11 12  1  0  0  0
 11 13  1  0  0  0
 13 14  2  0  0  0
 28 25  1  0  0  0
 21 16  1  0  0  0
  5  1  2  0  0  0
 14  8  1  0  0  0
 14  4  1  0  0  0
 12 15  1  0  0  0
M  END
> <minimizedAffinity>
13.79210

> <CNNscore>
0.5549584627

> <CNNaffinity>
6.6178350449

> <CNN_VS>
3.6726236343

> <CNNaffinity_variance>
0.1701994687

$$$$
[H]Oc1c([H])c([H])c2c(c1[H])-n1nnc(-c3c([H])c([H])c([H])c([H])c3[C@]([H])(C([H])([H])[H])C([H])([H])C3(C([H])([H])[H])C([H])([H])C3([H])[H])c1C([H])([H])C2([H])[H]


 28 32  0  0  0  0  0  0  0  0999 V2000
   22.7276    9.2707   54.1212 C   0  0  0  0  0  0  0  0  0  0  0  0
   22.4939    9.6001   55.3760 N   0  0  0  0  0  0  0  0  0  0  0  0
   23.6050    9.5968   56.1013 N   0  0  0  0  0  0  0  0  0  0  0  0
   24.5931    9.2452   55.2646 N   0  0  0  0  0  0  0  0  0  0  0  0
   24.1099    9.0365   54.0388 C   0  0  0  0  0  0  0  0  0  0  0  0
   24.9368    8.7038   52.8818 C   0  0  0  0  0  0  0  0  0  0  0  0
   26.2334    8.0495   53.2462 C   0  0  0  0  0  0  0  0  0  0  0  0
   26.8069    8.5162   54.5213 C   0  0  0  0  0  0  0  0  0  0  0  0
   28.1870    8.3695   54.7215 C   0  0  0  0  0  0  0  0  0  0  0  0
   28.7031    8.7075   55.9398 C   0  0  0  0  0  0  0  0  0  0  0  0
   27.8594    9.1763   56.9220 C   0  0  0  0  0  0  0  0  0  0  0  0
   28.3953    9.5179   58.1640 O   0  0  0  0  0  0  0  0  0  0  0  0
   26.4945    9.3355   56.7624 C   0  0  0  0  0  0  0  0  0  0  0  0
   25.9811    8.9865   55.5083 C   0  0  0  0  0  0  0  0  0  0  0  0
   28.7215   10.4833   58.3280 H   0  0  0  0  0  0  0  0  0  0  0  0
   21.2956    7.8867   52.6615 C   0  0  0  0  0  0  0  0  0  0  0  0
   20.4414    7.8618   51.5414 C   0  0  0  0  0  0  0  0  0  0  0  0
   20.1326    8.9903   50.8387 C   0  0  0  0  0  0  0  0  0  0  0  0
   20.6447   10.2232   51.1912 C   0  0  0  0  0  0  0  0  0  0  0  0
   21.4723   10.2602   52.2726 C   0  0  0  0  0  0  0  0  0  0  0  0
   21.8089    9.1283   53.0121 C   0  0  0  0  0  0  0  0  0  0  0  0
   20.3033    5.7680   53.2753 C   0  0  0  0  0  0  0  0  0  0  0  0
   21.5588    6.6345   53.4052 C   0  0  0  0  0  0  0  0  0  0  0  0
   21.8735    6.8254   54.8676 C   0  0  0  0  0  0  0  0  0  0  0  0
   22.7888    5.8180   55.4680 C   0  0  0  0  0  0  0  0  0  0  0  0
   22.5266    5.1768   56.8105 C   0  0  0  0  0  0  0  0  0  0  0  0
   24.3079    6.0943   55.2126 C   0  0  0  0  0  0  0  0  0  0  0  0
   23.6158    4.9855   54.5214 C   0  0  0  0  0  0  0  0  0  0  0  0
 22 23  1  0  0  0
 23 24  1  0  0  0
 24 25  1  0  0  0
 25 26  1  0  0  0
 25 27  1  0  0  0
 27 28  1  0  0  0
 23 16  1  0  0  0
 16 17  2  0  0  0
 17 18  1  0  0  0
 18 19  2  0  0  0
 19 20  1  0  0  0
 20 21  2  0  0  0
 21  1  1  0  0  0
  1  2  1  0  0  0
  2  3  2  0  0  0
  3  4  1  0  0  0
  4  5  1  0  0  0
  5  6  1  0  0  0
  6  7  1  0  0  0
  7  8  1  0  0  0
  8  9  2  0  0  0
  9 10  1  0  0  0
 10 11  2  0  0  0
 11 12  1  0  0  0
 11 13  1  0  0  0
 13 14  2  0  0  0
 28 25  1  0  0  0
 21 16  1  0  0  0
  5  1  2  0  0  0
 14  8  1  0  0  0
 14  4  1  0  0  0
 12 15  1  0  0  0
M  END
> <minimizedAffinity>
14.88832

> <CNNscore>
0.5495073795

> <CNNaffinity>
6.6437668800

> <CNN_VS>
3.6507990360

> <CNNaffinity_variance>
0.3110024333

$$$$
[H]Oc1c([H])c([H])c2c(c1[H])-n1nnc(-c3c([H])c([H])c([H])c([H])c3[C@]([H])(C([H])([H])[H])C([H])([H])C3(C([H])([H])[H])C([H])([H])C3([H])[H])c1C([H])([H])C2([H])[H]


 28 32  0  0  0  0  0  0  0  0999 V2000
   23.7681    6.7619   54.1555 C   0  0  0  0  0  0  0  0  0  0  0  0
   23.4387    6.9168   52.8886 N   0  0  0  0  0  0  0  0  0  0  0  0
   24.3696    7.5806   52.2152 N   0  0  0  0  0  0  0  0  0  0  0  0
   25.3374    7.8629   53.1005 N   0  0  0  0  0  0  0  0  0  0  0  0
   25.0196    7.3816   54.3034 C   0  0  0  0  0  0  0  0  0  0  0  0
   25.8924    7.4642   55.4715 C   0  0  0  0  0  0  0  0  0  0  0  0
   26.8704    8.5960   55.4041 C   0  0  0  0  0  0  0  0  0  0  0  0
   27.3394    8.9074   54.0418 C   0  0  0  0  0  0  0  0  0  0  0  0
   28.5682    9.5672   53.8974 C   0  0  0  0  0  0  0  0  0  0  0  0
   28.9552    9.9462   52.6439 C   0  0  0  0  0  0  0  0  0  0  0  0
   28.1339    9.6707   51.5735 C   0  0  0  0  0  0  0  0  0  0  0  0
   28.5368   10.0628   50.2966 O   0  0  0  0  0  0  0  0  0  0  0  0
   26.9163    9.0219   51.6755 C   0  0  0  0  0  0  0  0  0  0  0  0
   26.5346    8.6385   52.9660 C   0  0  0  0  0  0  0  0  0  0  0  0
   29.0949    9.4146   49.7189 H   0  0  0  0  0  0  0  0  0  0  0  0
   21.7326    6.4953   55.5276 C   0  0  0  0  0  0  0  0  0  0  0  0
   21.1354    5.8399   56.6224 C   0  0  0  0  0  0  0  0  0  0  0  0
   21.7982    4.8979   57.3544 C   0  0  0  0  0  0  0  0  0  0  0  0
   23.0973    4.5358   57.0581 C   0  0  0  0  0  0  0  0  0  0  0  0
   23.6859    5.1628   56.0017 C   0  0  0  0  0  0  0  0  0  0  0  0
   23.0392    6.1287   55.2336 C   0  0  0  0  0  0  0  0  0  0  0  0
   21.5262    7.4896   53.3323 C   0  0  0  0  0  0  0  0  0  0  0  0
   20.9463    7.4782   54.7492 C   0  0  0  0  0  0  0  0  0  0  0  0
   20.9709    8.8818   55.3002 C   0  0  0  0  0  0  0  0  0  0  0  0
   21.9778    9.7951   54.6961 C   0  0  0  0  0  0  0  0  0  0  0  0
   23.3561    9.9910   55.2828 C   0  0  0  0  0  0  0  0  0  0  0  0
   21.3779   11.1121   54.1004 C   0  0  0  0  0  0  0  0  0  0  0  0
   21.8823   10.0432   53.2120 C   0  0  0  0  0  0  0  0  0  0  0  0
 22 23  1  0  0  0
 23 24  1  0  0  0
 24 25  1  0  0  0
 25 26  1  0  0  0
 25 27  1  0  0  0
 27 28  1  0  0  0
 23 16  1  0  0  0
 16 17  2  0  0  0
 17 18  1  0  0  0
 18 19  2  0  0  0
 19 20  1  0  0  0
 20 21  2  0  0  0
 21  1  1  0  0  0
  1  2  1  0  0  0
  2  3  2  0  0  0
  3  4  1  0  0  0
  4  5  1  0  0  0
  5  6  1  0  0  0
  6  7  1  0  0  0
  7  8  1  0  0  0
  8  9  2  0  0  0
  9 10  1  0  0  0
 10 11  2  0  0  0
 11 12  1  0  0  0
 11 13  1  0  0  0
 13 14  2  0  0  0
 28 25  1  0  0  0
 21 16  1  0  0  0
  5  1  2  0  0  0
 14  8  1  0  0  0
 14  4  1  0  0  0
 12 15  1  0  0  0
M  END
> <minimizedAffinity>
33.06780

> <CNNscore>
0.5273551941

> <CNNaffinity>
6.3232927322

> <CNN_VS>
3.3346211910

> <CNNaffinity_variance>
0.3598079979

$$$$
[H]Oc1c([H])c([H])c2c(c1[H])-n1nnc(-c3c([H])c([H])c([H])c([H])c3[C@]([H])(C([H])([H])[H])C([H])([H])C3(C([H])([H])[H])C([H])([H])C3([H])[H])c1C([H])([H])C2([H])[H]


 28 32  0  0  0  0  0  0  0  0999 V2000
   22.3890    7.5066   54.6987 C   0  0  0  0  0  0  0  0  0  0  0  0
   22.2091    8.2170   55.7944 N   0  0  0  0  0  0  0  0  0  0  0  0
   23.3384    8.7764   56.2098 N   0  0  0  0  0  0  0  0  0  0  0  0
   24.2828    8.3995   55.3344 N   0  0  0  0  0  0  0  0  0  0  0  0
   23.7536    7.6228   54.3877 C   0  0  0  0  0  0  0  0  0  0  0  0
   24.5032    7.0993   53.2488 C   0  0  0  0  0  0  0  0  0  0  0  0
   25.9745    6.9907   53.5048 C   0  0  0  0  0  0  0  0  0  0  0  0
   26.5112    8.0385   54.3917 C   0  0  0  0  0  0  0  0  0  0  0  0
   27.8784    8.3396   54.3117 C   0  0  0  0  0  0  0  0  0  0  0  0
   28.3961    9.2367   55.2016 C   0  0  0  0  0  0  0  0  0  0  0  0
   27.5665    9.8102   56.1393 C   0  0  0  0  0  0  0  0  0  0  0  0
   28.1043   10.7247   57.0454 O   0  0  0  0  0  0  0  0  0  0  0  0
   26.2142    9.5396   56.2491 C   0  0  0  0  0  0  0  0  0  0  0  0
   25.6985    8.6198   55.3293 C   0  0  0  0  0  0  0  0  0  0  0  0
   28.1189   11.7284   56.8054 H   0  0  0  0  0  0  0  0  0  0  0  0
   20.6497    7.3064   52.9576 C   0  0  0  0  0  0  0  0  0  0  0  0
   19.7372    6.4535   52.3058 C   0  0  0  0  0  0  0  0  0  0  0  0
   19.6354    5.1278   52.6138 C   0  0  0  0  0  0  0  0  0  0  0  0
   20.4265    4.5498   53.5868 C   0  0  0  0  0  0  0  0  0  0  0  0
   21.3127    5.3644   54.2244 C   0  0  0  0  0  0  0  0  0  0  0  0
   21.4428    6.7212   53.9357 C   0  0  0  0  0  0  0  0  0  0  0  0
   20.6960    8.7520   51.0189 C   0  0  0  0  0  0  0  0  0  0  0  0
   20.7396    8.7261   52.5491 C   0  0  0  0  0  0  0  0  0  0  0  0
   21.9845    9.4376   53.0161 C   0  0  0  0  0  0  0  0  0  0  0  0
   21.7912   10.8355   53.4867 C   0  0  0  0  0  0  0  0  0  0  0  0
   21.7541   12.0150   52.5434 C   0  0  0  0  0  0  0  0  0  0  0  0
   22.5016   11.1632   54.8421 C   0  0  0  0  0  0  0  0  0  0  0  0
   21.0304   11.0319   54.7734 C   0  0  0  0  0  0  0  0  0  0  0  0
 22 23  1  0  0  0
 23 24  1  0  0  0
 24 25  1  0  0  0
 25 26  1  0  0  0
 25 27  1  0  0  0
 27 28  1  0  0  0
 23 16  1  0  0  0
 16 17  2  0  0  0
 17 18  1  0  0  0
 18 19  2  0  0  0
 19 20  1  0  0  0
 20 21  2  0  0  0
 21  1  1  0  0  0
  1  2  1  0  0  0
  2  3  2  0  0  0
  3  4  1  0  0  0
  4  5  1  0  0  0
  5  6  1  0  0  0
  6  7  1  0  0  0
  7  8  1  0  0  0
  8  9  2  0  0  0
  9 10  1  0  0  0
 10 11  2  0  0  0
 11 12  1  0  0  0
 11 13  1  0  0  0
 13 14  2  0  0  0
 28 25  1  0  0  0
 21 16  1  0  0  0
  5  1  2  0  0  0
 14  8  1  0  0  0
 14  4  1  0  0  0
 12 15  1  0  0  0
M  END
> <minimizedAffinity>
16.07096

> <CNNscore>
0.5247418880

> <CNNaffinity>
6.4874525070

> <CNN_VS>
3.4042379856

> <CNNaffinity_variance>
0.2944041193

$$$$
[H]Oc1c([H])c([H])c2c(c1[H])-n1nnc(-c3c([H])c([H])c([H])c([H])c3[C@]([H])(C([H])([H])[H])C([H])([H])C3(C([H])([H])[H])C([H])([H])C3([H])[H])c1C([H])([H])C2([H])[H]


 28 32  0  0  0  0  0  0  0  0999 V2000
   22.7355    8.6347   54.4488 C   0  0  0  0  0  0  0  0  0  0  0  0
   22.5267    9.1182   55.6571 N   0  0  0  0  0  0  0  0  0  0  0  0
   23.6650    9.3587   56.2950 N   0  0  0  0  0  0  0  0  0  0  0  0
   24.6455    9.0076   55.4491 N   0  0  0  0  0  0  0  0  0  0  0  0
   24.1303    8.5599   54.3030 C   0  0  0  0  0  0  0  0  0  0  0  0
   24.9319    8.1597   53.1496 C   0  0  0  0  0  0  0  0  0  0  0  0
   26.3199    7.7296   53.5108 C   0  0  0  0  0  0  0  0  0  0  0  0
   26.8936    8.4487   54.6625 C   0  0  0  0  0  0  0  0  0  0  0  0
   28.2895    8.5021   54.7834 C   0  0  0  0  0  0  0  0  0  0  0  0
   28.8202    9.0794   55.9014 C   0  0  0  0  0  0  0  0  0  0  0  0
   27.9750    9.5849   56.8639 C   0  0  0  0  0  0  0  0  0  0  0  0
   28.5259   10.1717   58.0034 O   0  0  0  0  0  0  0  0  0  0  0  0
   26.5945    9.5517   56.7804 C   0  0  0  0  0  0  0  0  0  0  0  0
   26.0662    8.9586   55.6283 C   0  0  0  0  0  0  0  0  0  0  0  0
   28.7318   11.1832   58.0047 H   0  0  0  0  0  0  0  0  0  0  0  0
   21.3249    9.1062   52.4778 C   0  0  0  0  0  0  0  0  0  0  0  0
   20.3740    8.6002   51.5697 C   0  0  0  0  0  0  0  0  0  0  0  0
   19.9296    7.3111   51.6269 C   0  0  0  0  0  0  0  0  0  0  0  0
   20.3918    6.4299   52.5842 C   0  0  0  0  0  0  0  0  0  0  0  0
   21.3115    6.9074   53.4683 C   0  0  0  0  0  0  0  0  0  0  0  0
   21.7865    8.2169   53.4392 C   0  0  0  0  0  0  0  0  0  0  0  0
   21.4986   11.2074   53.6631 C   0  0  0  0  0  0  0  0  0  0  0  0
   21.7961   10.5021   52.3372 C   0  0  0  0  0  0  0  0  0  0  0  0
   21.1493   11.2746   51.2151 C   0  0  0  0  0  0  0  0  0  0  0  0
   21.5699   12.6954   51.0830 C   0  0  0  0  0  0  0  0  0  0  0  0
   23.0094   13.1028   50.8727 C   0  0  0  0  0  0  0  0  0  0  0  0
   20.7856   13.6880   52.0043 C   0  0  0  0  0  0  0  0  0  0  0  0
   20.5529   13.6693   50.5443 C   0  0  0  0  0  0  0  0  0  0  0  0
 22 23  1  0  0  0
 23 24  1  0  0  0
 24 25  1  0  0  0
 25 26  1  0  0  0
 25 27  1  0  0  0
 27 28  1  0  0  0
 23 16  1  0  0  0
 16 17  2  0  0  0
 17 18  1  0  0  0
 18 19  2  0  0  0
 19 20  1  0  0  0
 20 21  2  0  0  0
 21  1  1  0  0  0
  1  2  1  0  0  0
  2  3  2  0  0  0
  3  4  1  0  0  0
  4  5  1  0  0  0
  5  6  1  0  0  0
  6  7  1  0  0  0
  7  8  1  0  0  0
  8  9  2  0  0  0
  9 10  1  0  0  0
 10 11  2  0  0  0
 11 12  1  0  0  0
 11 13  1  0  0  0
 13 14  2  0  0  0
 28 25  1  0  0  0
 21 16  1  0  0  0
  5  1  2  0  0  0
 14  8  1  0  0  0
 14  4  1  0  0  0
 12 15  1  0  0  0
M  END
> <minimizedAffinity>
15.75075

> <CNNscore>
0.5216664076

> <CNNaffinity>
6.6041955948

> <CNN_VS>
3.4451870918

> <CNNaffinity_variance>
0.2475402653

$$$$
[H]Oc1c([H])c([H])c2c(c1[H])-n1nnc(-c3c([H])c([H])c([H])c([H])c3[C@]([H])(C([H])([H])[H])C([H])([H])C3(C([H])([H])[H])C([H])([H])C3([H])[H])c1C([H])([H])C2([H])[H]


 28 32  0  0  0  0  0  0  0  0999 V2000
   22.7946    6.6438   53.1810 C   0  0  0  0  0  0  0  0  0  0  0  0
   23.6677    6.3754   52.2307 N   0  0  0  0  0  0  0  0  0  0  0  0
   24.8743    6.8433   52.5239 N   0  0  0  0  0  0  0  0  0  0  0  0
   24.7599    7.4408   53.7198 N   0  0  0  0  0  0  0  0  0  0  0  0
   23.5070    7.3449   54.1675 C   0  0  0  0  0  0  0  0  0  0  0  0
   23.0665    7.8366   55.4704 C   0  0  0  0  0  0  0  0  0  0  0  0
   23.9222    8.9409   56.0093 C   0  0  0  0  0  0  0  0  0  0  0  0
   25.3461    8.8338   55.6435 C   0  0  0  0  0  0  0  0  0  0  0  0
   26.2901    9.4800   56.4543 C   0  0  0  0  0  0  0  0  0  0  0  0
   27.5977    9.4666   56.0608 C   0  0  0  0  0  0  0  0  0  0  0  0
   27.9425    8.8255   54.8918 C   0  0  0  0  0  0  0  0  0  0  0  0
   29.2806    8.8181   54.4969 O   0  0  0  0  0  0  0  0  0  0  0  0
   27.0413    8.1770   54.0666 C   0  0  0  0  0  0  0  0  0  0  0  0
   25.7059    8.1981   54.4843 C   0  0  0  0  0  0  0  0  0  0  0  0
   29.8980    8.0523   54.8095 H   0  0  0  0  0  0  0  0  0  0  0  0
   20.4303    7.2526   52.8118 C   0  0  0  0  0  0  0  0  0  0  0  0
   19.0837    6.8692   52.9685 C   0  0  0  0  0  0  0  0  0  0  0  0
   18.7289    5.6735   53.5225 C   0  0  0  0  0  0  0  0  0  0  0  0
   19.6776    4.7713   53.9612 C   0  0  0  0  0  0  0  0  0  0  0  0
   20.9834    5.1306   53.8154 C   0  0  0  0  0  0  0  0  0  0  0  0
   21.3810    6.3427   53.2550 C   0  0  0  0  0  0  0  0  0  0  0  0
   21.0123    8.2512   50.6871 C   0  0  0  0  0  0  0  0  0  0  0  0
   20.7495    8.5456   52.1664 C   0  0  0  0  0  0  0  0  0  0  0  0
   21.9460    9.2589   52.7443 C   0  0  0  0  0  0  0  0  0  0  0  0
   21.6518   10.5080   53.4966 C   0  0  0  0  0  0  0  0  0  0  0  0
   21.7783   11.8806   52.8783 C   0  0  0  0  0  0  0  0  0  0  0  0
   22.0919   10.4748   54.9981 C   0  0  0  0  0  0  0  0  0  0  0  0
   20.6612   10.4148   54.6294 C   0  0  0  0  0  0  0  0  0  0  0  0
 22 23  1  0  0  0
 23 24  1  0  0  0
 24 25  1  0  0  0
 25 26  1  0  0  0
 25 27  1  0  0  0
 27 28  1  0  0  0
 23 16  1  0  0  0
 16 17  2  0  0  0
 17 18  1  0  0  0
 18 19  2  0  0  0
 19 20  1  0  0  0
 20 21  2  0  0  0
 21  1  1  0  0  0
  1  2  1  0  0  0
  2  3  2  0  0  0
  3  4  1  0  0  0
  4  5  1  0  0  0
  5  6  1  0  0  0
  6  7  1  0  0  0
  7  8  1  0  0  0
  8  9  2  0  0  0
  9 10  1  0  0  0
 10 11  2  0  0  0
 11 12  1  0  0  0
 11 13  1  0  0  0
 13 14  2  0  0  0
 28 25  1  0  0  0
 21 16  1  0  0  0
  5  1  2  0  0  0
 14  8  1  0  0  0
 14  4  1  0  0  0
 12 15  1  0  0  0
M  END
> <minimizedAffinity>
15.84220

> <CNNscore>
0.5153974295

> <CNNaffinity>
6.6552491188

> <CNN_VS>
3.4300982952

> <CNNaffinity_variance>
0.2237665206

$$$$
[H]Oc1c([H])c([H])c2c(c1[H])-n1nnc(-c3c([H])c([H])c([H])c([H])c3[C@]([H])(C([H])([H])[H])C([H])([H])C3(C([H])([H])[H])C([H])([H])C3([H])[H])c1C([H])([H])C2([H])[H]


 28 32  0  0  0  0  0  0  0  0999 V2000
   23.1281    8.6993   54.0343 C   0  0  0  0  0  0  0  0  0  0  0  0
   23.1794    7.9506   52.9507 N   0  0  0  0  0  0  0  0  0  0  0  0
   24.4007    7.4786   52.7353 N   0  0  0  0  0  0  0  0  0  0  0  0
   25.1630    7.9540   53.7319 N   0  0  0  0  0  0  0  0  0  0  0  0
   24.4318    8.7056   54.5565 C   0  0  0  0  0  0  0  0  0  0  0  0
   24.9493    9.3169   55.7777 C   0  0  0  0  0  0  0  0  0  0  0  0
   26.4292    9.5428   55.7484 C   0  0  0  0  0  0  0  0  0  0  0  0
   27.1800    8.5233   54.9938 C   0  0  0  0  0  0  0  0  0  0  0  0
   28.5372    8.3401   55.2949 C   0  0  0  0  0  0  0  0  0  0  0  0
   29.2577    7.4690   54.5289 C   0  0  0  0  0  0  0  0  0  0  0  0
   28.6338    6.8059   53.4958 C   0  0  0  0  0  0  0  0  0  0  0  0
   29.3780    5.9188   52.7176 O   0  0  0  0  0  0  0  0  0  0  0  0
   27.2984    6.9592   53.1686 C   0  0  0  0  0  0  0  0  0  0  0  0
   26.5734    7.8538   53.9637 C   0  0  0  0  0  0  0  0  0  0  0  0
   29.4345    4.9258   52.9933 H   0  0  0  0  0  0  0  0  0  0  0  0
   21.0111    8.7540   55.3042 C   0  0  0  0  0  0  0  0  0  0  0  0
   19.9570    9.5523   55.7903 C   0  0  0  0  0  0  0  0  0  0  0  0
   19.9198   10.9027   55.5963 C   0  0  0  0  0  0  0  0  0  0  0  0
   20.9200   11.5611   54.9088 C   0  0  0  0  0  0  0  0  0  0  0  0
   21.9449   10.8000   54.4336 C   0  0  0  0  0  0  0  0  0  0  0  0
   22.0145    9.4201   54.6129 C   0  0  0  0  0  0  0  0  0  0  0  0
   21.9527    7.0770   56.7710 C   0  0  0  0  0  0  0  0  0  0  0  0
   21.0130    7.3005   55.5831 C   0  0  0  0  0  0  0  0  0  0  0  0
   21.4660    6.4393   54.4310 C   0  0  0  0  0  0  0  0  0  0  0  0
   20.4552    6.2023   53.3656 C   0  0  0  0  0  0  0  0  0  0  0  0
   19.7466    4.8792   53.1945 C   0  0  0  0  0  0  0  0  0  0  0  0
   20.7808    6.8983   52.0022 C   0  0  0  0  0  0  0  0  0  0  0  0
   19.6880    7.3990   52.8632 C   0  0  0  0  0  0  0  0  0  0  0  0
 22 23  1  0  0  0
 23 24  1  0  0  0
 24 25  1  0  0  0
 25 26  1  0  0  0
 25 27  1  0  0  0
 27 28  1  0  0  0
 23 16  1  0  0  0
 16 17  2  0  0  0
 17 18  1  0  0  0
 18 19  2  0  0  0
 19 20  1  0  0  0
 20 21  2  0  0  0
 21  1  1  0  0  0
  1  2  1  0  0  0
  2  3  2  0  0  0
  3  4  1  0  0  0
  4  5  1  0  0  0
  5  6  1  0  0  0
  6  7  1  0  0  0
  7  8  1  0  0  0
  8  9  2  0  0  0
  9 10  1  0  0  0
 10 11  2  0  0  0
 11 12  1  0  0  0
 11 13  1  0  0  0
 13 14  2  0  0  0
 28 25  1  0  0  0
 21 16  1  0  0  0
  5  1  2  0  0  0
 14  8  1  0  0  0
 14  4  1  0  0  0
 12 15  1  0  0  0
M  END
> <minimizedAffinity>
29.85337

> <CNNscore>
0.4856117964

> <CNNaffinity>
6.1339821815

> <CNN_VS>
2.9787340164

> <CNNaffinity_variance>
0.3818370998

$$$$
[H]Oc1c([H])c([H])c2c(c1[H])-n1nnc(-c3c([H])c([H])c([H])c([H])c3[C@]([H])(C([H])([H])[H])C([H])([H])C3(C([H])([H])[H])C([H])([H])C3([H])[H])c1C([H])([H])C2([H])[H]


 28 32  0  0  0  0  0  0  0  0999 V2000
   20.5556    6.8108   54.0162 C   0  0  0  0  0  0  0  0  0  0  0  0
   20.6423    7.4730   55.1526 N   0  0  0  0  0  0  0  0  0  0  0  0
   20.8412    8.7697   54.9534 N   0  0  0  0  0  0  0  0  0  0  0  0
   20.8852    8.9380   53.6230 N   0  0  0  0  0  0  0  0  0  0  0  0
   20.7133    7.7697   53.0023 C   0  0  0  0  0  0  0  0  0  0  0  0
   20.6437    7.6195   51.5512 C   0  0  0  0  0  0  0  0  0  0  0  0
   21.3424    8.7143   50.8061 C   0  0  0  0  0  0  0  0  0  0  0  0
   21.2824   10.0291   51.4697 C   0  0  0  0  0  0  0  0  0  0  0  0
   21.4455   11.1780   50.6826 C   0  0  0  0  0  0  0  0  0  0  0  0
   21.4914   12.3902   51.3097 C   0  0  0  0  0  0  0  0  0  0  0  0
   21.3775   12.4437   52.6810 C   0  0  0  0  0  0  0  0  0  0  0  0
   21.4269   13.6864   53.3132 O   0  0  0  0  0  0  0  0  0  0  0  0
   21.2149   11.3339   53.4908 C   0  0  0  0  0  0  0  0  0  0  0  0
   21.1681   10.0995   52.8333 C   0  0  0  0  0  0  0  0  0  0  0  0
   20.5526   14.2130   53.4669 H   0  0  0  0  0  0  0  0  0  0  0  0
   21.4567    4.5443   53.6317 C   0  0  0  0  0  0  0  0  0  0  0  0
   21.1564    3.1940   53.3647 C   0  0  0  0  0  0  0  0  0  0  0  0
   19.8728    2.7434   53.2561 C   0  0  0  0  0  0  0  0  0  0  0  0
   18.7944    3.5932   53.4031 C   0  0  0  0  0  0  0  0  0  0  0  0
   19.0719    4.9016   53.6614 C   0  0  0  0  0  0  0  0  0  0  0  0
   20.3695    5.3955   53.7782 C   0  0  0  0  0  0  0  0  0  0  0  0
   23.1039    5.2221   55.2681 C   0  0  0  0  0  0  0  0  0  0  0  0
   22.8691    4.9616   53.7778 C   0  0  0  0  0  0  0  0  0  0  0  0
   23.2438    6.1976   52.9992 C   0  0  0  0  0  0  0  0  0  0  0  0
   24.2976    7.0512   53.6106 C   0  0  0  0  0  0  0  0  0  0  0  0
   25.3540    6.5013   54.5401 C   0  0  0  0  0  0  0  0  0  0  0  0
   23.8108    8.4807   54.0215 C   0  0  0  0  0  0  0  0  0  0  0  0
   24.7034    8.2928   52.8577 C   0  0  0  0  0  0  0  0  0  0  0  0
 22 23  1  0  0  0
 23 24  1  0  0  0
 24 25  1  0  0  0
 25 26  1  0  0  0
 25 27  1  0  0  0
 27 28  1  0  0  0
 23 16  1  0  0  0
 16 17  2  0  0  0
 17 18  1  0  0  0
 18 19  2  0  0  0
 19 20  1  0  0  0
 20 21  2  0  0  0
 21  1  1  0  0  0
  1  2  1  0  0  0
  2  3  2  0  0  0
  3  4  1  0  0  0
  4  5  1  0  0  0
  5  6  1  0  0  0
  6  7  1  0  0  0
  7  8  1  0  0  0
  8  9  2  0  0  0
  9 10  1  0  0  0
 10 11  2  0  0  0
 11 12  1  0  0  0
 11 13  1  0  0  0
 13 14  2  0  0  0
 28 25  1  0  0  0
 21 16  1  0  0  0
  5  1  2  0  0  0
 14  8  1  0  0  0
 14  4  1  0  0  0
 12 15  1  0  0  0
M  END
> <minimizedAffinity>
33.50255

> <CNNscore>
0.4843990207

> <CNNaffinity>
6.6745729446

> <CNN_VS>
3.2331566811

> <CNNaffinity_variance>
0.5746806264

$$$$
[H]OC1=C([H])C([H])=C(C(=O)N2C([H])([H])C([H])([H])C([H])([H])[C@@]([H])(N([H])c3nnc(-c4c([H])c([H])c([H])c([H])c4[H])c([H])c3[H])C2([H])[H])C([H])=C([H])C([H])=C1Cl


 33 36  0  0  0  0  0  0  0  0999 V2000
   24.2391    7.5025   54.2009 C   0  0  0  0  0  0  0  0  0  0  0  0
   24.7452    6.7298   53.2169 O   0  0  0  0  0  0  0  0  0  0  0  0
   22.9055    7.2277   54.3762 N   0  0  0  0  0  0  0  0  0  0  0  0
   22.0031    7.7035   55.3720 C   0  0  0  0  0  0  0  0  0  0  0  0
   21.0953    8.7072   54.6377 C   0  0  0  0  0  0  0  0  0  0  0  0
   20.2555    7.8390   53.7204 C   0  0  0  0  0  0  0  0  0  0  0  0
   21.0663    7.0431   52.7673 C   0  0  0  0  0  0  0  0  0  0  0  0
   22.2562    6.3332   53.3524 C   0  0  0  0  0  0  0  0  0  0  0  0
   27.0802   11.5852   57.6348 O   0  0  0  0  0  0  0  0  0  0  0  0
   26.8768   10.4450   56.8721 C   0  0  0  0  0  0  0  0  0  0  0  0
   25.6457   10.2702   56.4239 C   0  0  0  0  0  0  0  0  0  0  0  0
   24.9282    9.2611   55.6007 C   0  0  0  0  0  0  0  0  0  0  0  0
   25.2620    8.3453   54.7285 C   0  0  0  0  0  0  0  0  0  0  0  0
   26.6406    8.0021   54.2336 C   0  0  0  0  0  0  0  0  0  0  0  0
   27.8803    8.1691   54.6723 C   0  0  0  0  0  0  0  0  0  0  0  0
   28.4977    8.7681   55.8480 C   0  0  0  0  0  0  0  0  0  0  0  0
   28.1264    9.6686   56.7359 C   0  0  0  0  0  0  0  0  0  0  0  0
   29.3138   10.0125   57.9722 Cl  0  0  0  0  0  0  0  0  0  0  0  0
   27.9476   12.0895   57.5041 H   0  0  0  0  0  0  0  0  0  0  0  0
   21.5182    7.8876   51.6898 N   0  0  0  0  0  0  0  0  0  0  0  0
   21.9542    7.4345   50.8583 H   0  0  0  0  0  0  0  0  0  0  0  0
   21.4104    9.3166   51.6830 C   0  0  0  0  0  0  0  0  0  0  0  0
   21.8200   10.0598   52.7704 C   0  0  0  0  0  0  0  0  0  0  0  0
   21.7200   11.4549   52.7530 C   0  0  0  0  0  0  0  0  0  0  0  0
   21.2144   12.1092   51.6577 C   0  0  0  0  0  0  0  0  0  0  0  0
   20.8285   11.3361   50.6217 N   0  0  0  0  0  0  0  0  0  0  0  0
   20.9261   10.0193   50.6459 N   0  0  0  0  0  0  0  0  0  0  0  0
   21.0810   13.5767   51.5722 C   0  0  0  0  0  0  0  0  0  0  0  0
   21.8859   14.3635   50.7877 C   0  0  0  0  0  0  0  0  0  0  0  0
   21.7122   15.7418   50.7481 C   0  0  0  0  0  0  0  0  0  0  0  0
   20.7348   16.3737   51.4868 C   0  0  0  0  0  0  0  0  0  0  0  0
   19.9390   15.5625   52.2671 C   0  0  0  0  0  0  0  0  0  0  0  0
   20.0885   14.2071   52.3238 C   0  0  0  0  0  0  0  0  0  0  0  0
  9 10  1  0  0  0
 10 11  2  0  0  0
 11 12  1  0  0  0
 12 13  2  0  0  0
 13 14  1  0  0  0
 14 15  2  0  0  0
 15 16  1  0  0  0
 16 17  2  0  0  0
 17 18  1  0  0  0
 13  1  1  0  0  0
  1  2  2  0  0  0
  1  3  1  0  0  0
  3  4  1  0  0  0
  4  5  1  0  0  0
  5  6  1  0  0  0
  6  7  1  0  0  0
  7  8  1  0  0  0
  7 20  1  0  0  0
 20 22  1  0  0  0
 22 23  2  0  0  0
 23 24  1  0  0  0
 24 25  2  0  0  0
 25 26  1  0  0  0
 26 27  2  0  0  0
 25 28  1  0  0  0
 28 29  2  0  0  0
 29 30  1  0  0  0
 30 31  2  0  0  0
 31 32  1  0  0  0
 32 33  2  0  0  0
 17 10  1  0  0  0
  8  3  1  0  0  0
 27 22  1  0  0  0
 33 28  1  0  0  0
  9 19  1  0  0  0
 20 21  1  0  0  0
M  END
> <minimizedAffinity>
22.15432

> <CNNscore>
0.6717475653

> <CNNaffinity>
6.9403748512

> <CNN_VS>
4.6621799469

> <CNNaffinity_variance>
1.1118611097

$$$$
[H]OC1=C([H])C([H])=C(C(=O)N2C([H])([H])C([H])([H])C([H])([H])[C@@]([H])(N([H])c3nnc(-c4c([H])c([H])c([H])c([H])c4[H])c([H])c3[H])C2([H])[H])C([H])=C([H])C([H])=C1Cl


 33 36  0  0  0  0  0  0  0  0999 V2000
   22.9616    9.5512   55.5101 C   0  0  0  0  0  0  0  0  0  0  0  0
   22.7288    8.4900   56.3108 O   0  0  0  0  0  0  0  0  0  0  0  0
   21.8834    9.7657   54.6877 N   0  0  0  0  0  0  0  0  0  0  0  0
   21.6330   10.8344   53.7780 C   0  0  0  0  0  0  0  0  0  0  0  0
   21.8294   10.2195   52.3801 C   0  0  0  0  0  0  0  0  0  0  0  0
   20.6500    9.2786   52.2244 C   0  0  0  0  0  0  0  0  0  0  0  0
   20.5962    8.2325   53.2743 C   0  0  0  0  0  0  0  0  0  0  0  0
   20.8104    8.7080   54.6850 C   0  0  0  0  0  0  0  0  0  0  0  0
   27.3278   13.4832   56.9269 O   0  0  0  0  0  0  0  0  0  0  0  0
   26.6254   12.2892   56.8633 C   0  0  0  0  0  0  0  0  0  0  0  0
   25.4652   12.3425   56.2322 C   0  0  0  0  0  0  0  0  0  0  0  0
   24.3721   11.3916   55.8977 C   0  0  0  0  0  0  0  0  0  0  0  0
   24.2511   10.0938   55.7889 C   0  0  0  0  0  0  0  0  0  0  0  0
   25.3144    9.0485   55.9889 C   0  0  0  0  0  0  0  0  0  0  0  0
   26.4787    8.9810   56.6192 C   0  0  0  0  0  0  0  0  0  0  0  0
   27.2840    9.8926   57.4207 C   0  0  0  0  0  0  0  0  0  0  0  0
   27.3645   11.2029   57.5389 C   0  0  0  0  0  0  0  0  0  0  0  0
   28.5514   11.7635   58.6936 Cl  0  0  0  0  0  0  0  0  0  0  0  0
   28.3327   13.4438   56.8153 H   0  0  0  0  0  0  0  0  0  0  0  0
   21.5620    7.2022   52.9842 N   0  0  0  0  0  0  0  0  0  0  0  0
   21.2211    6.3121   52.5619 H   0  0  0  0  0  0  0  0  0  0  0  0
   22.9675    7.3168   53.2393 C   0  0  0  0  0  0  0  0  0  0  0  0
   23.6002    6.4490   54.1047 C   0  0  0  0  0  0  0  0  0  0  0  0
   24.9741    6.5613   54.3419 C   0  0  0  0  0  0  0  0  0  0  0  0
   25.7169    7.5335   53.7203 C   0  0  0  0  0  0  0  0  0  0  0  0
   25.0502    8.3558   52.8842 N   0  0  0  0  0  0  0  0  0  0  0  0
   23.7526    8.2433   52.6656 N   0  0  0  0  0  0  0  0  0  0  0  0
   27.1682    7.7085   53.9245 C   0  0  0  0  0  0  0  0  0  0  0  0
   28.0621    6.6676   53.9201 C   0  0  0  0  0  0  0  0  0  0  0  0
   29.4188    6.8944   54.1181 C   0  0  0  0  0  0  0  0  0  0  0  0
   29.9223    8.1608   54.3256 C   0  0  0  0  0  0  0  0  0  0  0  0
   29.0052    9.1900   54.3257 C   0  0  0  0  0  0  0  0  0  0  0  0
   27.6682    8.9944   54.1337 C   0  0  0  0  0  0  0  0  0  0  0  0
  9 10  1  0  0  0
 10 11  2  0  0  0
 11 12  1  0  0  0
 12 13  2  0  0  0
 13 14  1  0  0  0
 14 15  2  0  0  0
 15 16  1  0  0  0
 16 17  2  0  0  0
 17 18  1  0  0  0
 13  1  1  0  0  0
  1  2  2  0  0  0
  1  3  1  0  0  0
  3  4  1  0  0  0
  4  5  1  0  0  0
  5  6  1  0  0  0
  6  7  1  0  0  0
  7  8  1  0  0  0
  7 20  1  0  0  0
 20 22  1  0  0  0
 22 23  2  0  0  0
 23 24  1  0  0  0
 24 25  2  0  0  0
 25 26  1  0  0  0
 26 27  2  0  0  0
 25 28  1  0  0  0
 28 29  2  0  0  0
 29 30  1  0  0  0
 30 31  2  0  0  0
 31 32  1  0  0  0
 32 33  2  0  0  0
 17 10  1  0  0  0
  8  3  1  0  0  0
 27 22  1  0  0  0
 33 28  1  0  0  0
  9 19  1  0  0  0
 20 21  1  0  0  0
M  END
> <minimizedAffinity>
34.81741

> <CNNscore>
0.5764293671

> <CNNaffinity>
6.8643159866

> <CNN_VS>
3.9567933083

> <CNNaffinity_variance>
0.8565692902

$$$$
[H]OC1=C([H])C([H])=C(C(=O)N2C([H])([H])C([H])([H])C([H])([H])[C@@]([H])(N([H])c3nnc(-c4c([H])c([H])c([H])c([H])c4[H])c([H])c3[H])C2([H])[H])C([H])=C([H])C([H])=C1Cl


 33 36  0  0  0  0  0  0  0  0999 V2000
   24.7209    8.0679   53.5327 C   0  0  0  0  0  0  0  0  0  0  0  0
   24.3741    8.9989   52.6193 O   0  0  0  0  0  0  0  0  0  0  0  0
   23.9791    6.9275   53.3474 N   0  0  0  0  0  0  0  0  0  0  0  0
   24.0887    5.6584   53.9874 C   0  0  0  0  0  0  0  0  0  0  0  0
   22.8769    5.5859   54.9346 C   0  0  0  0  0  0  0  0  0  0  0  0
   21.6885    5.4604   54.0006 C   0  0  0  0  0  0  0  0  0  0  0  0
   21.5691    6.5951   53.0532 C   0  0  0  0  0  0  0  0  0  0  0  0
   22.8401    7.0107   52.3647 C   0  0  0  0  0  0  0  0  0  0  0  0
   27.4755   10.5744   58.2931 O   0  0  0  0  0  0  0  0  0  0  0  0
   27.2642    9.7421   57.2042 C   0  0  0  0  0  0  0  0  0  0  0  0
   26.0885    9.8638   56.6125 C   0  0  0  0  0  0  0  0  0  0  0  0
   25.3894    9.2387   55.4586 C   0  0  0  0  0  0  0  0  0  0  0  0
   25.7434    8.5827   54.3839 C   0  0  0  0  0  0  0  0  0  0  0  0
   27.1352    8.2265   53.9375 C   0  0  0  0  0  0  0  0  0  0  0  0
   28.3198    8.0992   54.5187 C   0  0  0  0  0  0  0  0  0  0  0  0
   28.8372    8.2452   55.8726 C   0  0  0  0  0  0  0  0  0  0  0  0
   28.4428    8.8869   56.9542 C   0  0  0  0  0  0  0  0  0  0  0  0
   29.4915    8.7011   58.3406 Cl  0  0  0  0  0  0  0  0  0  0  0  0
   28.3958   10.9803   58.4028 H   0  0  0  0  0  0  0  0  0  0  0  0
   21.0183    7.7407   53.7333 N   0  0  0  0  0  0  0  0  0  0  0  0
   20.5191    7.5853   54.6353 H   0  0  0  0  0  0  0  0  0  0  0  0
   21.1085    9.0874   53.2516 C   0  0  0  0  0  0  0  0  0  0  0  0
   21.3346   10.1337   54.1213 C   0  0  0  0  0  0  0  0  0  0  0  0
   21.4304   11.4446   53.6427 C   0  0  0  0  0  0  0  0  0  0  0  0
   21.3020   11.7143   52.3032 C   0  0  0  0  0  0  0  0  0  0  0  0
   21.0820   10.6561   51.4961 N   0  0  0  0  0  0  0  0  0  0  0  0
   20.9927    9.4212   51.9558 N   0  0  0  0  0  0  0  0  0  0  0  0
   21.3921   13.0718   51.7309 C   0  0  0  0  0  0  0  0  0  0  0  0
   22.4257   13.4861   50.9294 C   0  0  0  0  0  0  0  0  0  0  0  0
   22.4561   14.7784   50.4191 C   0  0  0  0  0  0  0  0  0  0  0  0
   21.4606   15.6922   50.6920 C   0  0  0  0  0  0  0  0  0  0  0  0
   20.4332   15.2529   51.4992 C   0  0  0  0  0  0  0  0  0  0  0  0
   20.3795   13.9896   52.0129 C   0  0  0  0  0  0  0  0  0  0  0  0
  9 10  1  0  0  0
 10 11  2  0  0  0
 11 12  1  0  0  0
 12 13  2  0  0  0
 13 14  1  0  0  0
 14 15  2  0  0  0
 15 16  1  0  0  0
 16 17  2  0  0  0
 17 18  1  0  0  0
 13  1  1  0  0  0
  1  2  2  0  0  0
  1  3  1  0  0  0
  3  4  1  0  0  0
  4  5  1  0  0  0
  5  6  1  0  0  0
  6  7  1  0  0  0
  7  8  1  0  0  0
  7 20  1  0  0  0
 20 22  1  0  0  0
 22 23  2  0  0  0
 23 24  1  0  0  0
 24 25  2  0  0  0
 25 26  1  0  0  0
 26 27  2  0  0  0
 25 28  1  0  0  0
 28 29  2  0  0  0
 29 30  1  0  0  0
 30 31  2  0  0  0
 31 32  1  0  0  0
 32 33  2  0  0  0
 17 10  1  0  0  0
  8  3  1  0  0  0
 27 22  1  0  0  0
 33 28  1  0  0  0
  9 19  1  0  0  0
 20 21  1  0  0  0
M  END
> <minimizedAffinity>
26.18467

> <CNNscore>
0.5619123578

> <CNNaffinity>
6.5323271751

> <CNN_VS>
3.6705954075

> <CNNaffinity_variance>
0.6424704194

$$$$
[H]OC1=C([H])C([H])=C(C(=O)N2C([H])([H])C([H])([H])C([H])([H])[C@@]([H])(N([H])c3nnc(-c4c([H])c([H])c([H])c([H])c4[H])c([H])c3[H])C2([H])[H])C([H])=C([H])C([H])=C1Cl


 33 36  0  0  0  0  0  0  0  0999 V2000
   24.8491    9.0925   55.1027 C   0  0  0  0  0  0  0  0  0  0  0  0
   24.9064   10.2920   55.7184 O   0  0  0  0  0  0  0  0  0  0  0  0
   26.0288    8.4138   55.2834 N   0  0  0  0  0  0  0  0  0  0  0  0
   26.3726    7.0778   54.9243 C   0  0  0  0  0  0  0  0  0  0  0  0
   27.3234    7.2225   53.7218 C   0  0  0  0  0  0  0  0  0  0  0  0
   28.5858    7.8117   54.3214 C   0  0  0  0  0  0  0  0  0  0  0  0
   28.3592    9.1142   54.9933 C   0  0  0  0  0  0  0  0  0  0  0  0
   27.1656    9.1821   55.9060 C   0  0  0  0  0  0  0  0  0  0  0  0
   20.5980    7.3965   51.1552 O   0  0  0  0  0  0  0  0  0  0  0  0
   21.1933    7.7138   52.3667 C   0  0  0  0  0  0  0  0  0  0  0  0
   22.4786    8.0165   52.3091 C   0  0  0  0  0  0  0  0  0  0  0  0
   23.5404    8.4110   53.2724 C   0  0  0  0  0  0  0  0  0  0  0  0
   23.5800    8.9332   54.4710 C   0  0  0  0  0  0  0  0  0  0  0  0
   22.4204    9.3462   55.3358 C   0  0  0  0  0  0  0  0  0  0  0  0
   21.1301    9.0501   55.4058 C   0  0  0  0  0  0  0  0  0  0  0  0
   20.2195    8.1800   54.6738 C   0  0  0  0  0  0  0  0  0  0  0  0
   20.2173    7.6361   53.4733 C   0  0  0  0  0  0  0  0  0  0  0  0
   18.8188    6.6491   53.1178 Cl  0  0  0  0  0  0  0  0  0  0  0  0
   19.6577    7.7324   50.9913 H   0  0  0  0  0  0  0  0  0  0  0  0
   28.2430   10.1575   54.0052 N   0  0  0  0  0  0  0  0  0  0  0  0
   28.0709   11.1314   54.3348 H   0  0  0  0  0  0  0  0  0  0  0  0
   28.3469    9.9471   52.5914 C   0  0  0  0  0  0  0  0  0  0  0  0
   29.0932   10.7993   51.8047 C   0  0  0  0  0  0  0  0  0  0  0  0
   29.1973   10.5825   50.4267 C   0  0  0  0  0  0  0  0  0  0  0  0
   28.5613    9.5213   49.8327 C   0  0  0  0  0  0  0  0  0  0  0  0
   27.8449    8.7187   50.6466 N   0  0  0  0  0  0  0  0  0  0  0  0
   27.7515    8.9303   51.9468 N   0  0  0  0  0  0  0  0  0  0  0  0
   28.6285    9.2339   48.3866 C   0  0  0  0  0  0  0  0  0  0  0  0
   28.2950   10.1476   47.4189 C   0  0  0  0  0  0  0  0  0  0  0  0
   28.3785    9.8189   46.0713 C   0  0  0  0  0  0  0  0  0  0  0  0
   28.7953    8.5742   45.6503 C   0  0  0  0  0  0  0  0  0  0  0  0
   29.1249    7.6734   46.6404 C   0  0  0  0  0  0  0  0  0  0  0  0
   29.0518    7.9710   47.9704 C   0  0  0  0  0  0  0  0  0  0  0  0
  9 10  1  0  0  0
 10 11  2  0  0  0
 11 12  1  0  0  0
 12 13  2  0  0  0
 13 14  1  0  0  0
 14 15  2  0  0  0
 15 16  1  0  0  0
 16 17  2  0  0  0
 17 18  1  0  0  0
 13  1  1  0  0  0
  1  2  2  0  0  0
  1  3  1  0  0  0
  3  4  1  0  0  0
  4  5  1  0  0  0
  5  6  1  0  0  0
  6  7  1  0  0  0
  7  8  1  0  0  0
  7 20  1  0  0  0
 20 22  1  0  0  0
 22 23  2  0  0  0
 23 24  1  0  0  0
 24 25  2  0  0  0
 25 26  1  0  0  0
 26 27  2  0  0  0
 25 28  1  0  0  0
 28 29  2  0  0  0
 29 30  1  0  0  0
 30 31  2  0  0  0
 31 32  1  0  0  0
 32 33  2  0  0  0
 17 10  1  0  0  0
  8  3  1  0  0  0
 27 22  1  0  0  0
 33 28  1  0  0  0
  9 19  1  0  0  0
 20 21  1  0  0  0
M  END
> <minimizedAffinity>
36.89019

> <CNNscore>
0.4832708836

> <CNNaffinity>
6.5007209778

> <CNN_VS>
3.1416091919

> <CNNaffinity_variance>
0.7976046801

$$$$
[H]OC1=C([H])C([H])=C(C(=O)N2C([H])([H])C([H])([H])C([H])([H])[C@@]([H])(N([H])c3nnc(-c4c([H])c([H])c([H])c([H])c4[H])c([H])c3[H])C2([H])[H])C([H])=C([H])C([H])=C1Cl


 33 36  0  0  0  0  0  0  0  0999 V2000
   25.3466    7.5083   54.3258 C   0  0  0  0  0  0  0  0  0  0  0  0
   25.2767    6.4889   55.2074 O   0  0  0  0  0  0  0  0  0  0  0  0
   26.6543    7.8852   54.1448 N   0  0  0  0  0  0  0  0  0  0  0  0
   27.2110    8.8215   53.2252 C   0  0  0  0  0  0  0  0  0  0  0  0
   27.5950   10.0405   54.0839 C   0  0  0  0  0  0  0  0  0  0  0  0
   28.7668    9.5506   54.9129 C   0  0  0  0  0  0  0  0  0  0  0  0
   28.4343    8.3766   55.7558 C   0  0  0  0  0  0  0  0  0  0  0  0
   27.6716    7.2744   55.0732 C   0  0  0  0  0  0  0  0  0  0  0  0
   20.2708    7.6211   51.0463 O   0  0  0  0  0  0  0  0  0  0  0  0
   21.1019    7.6641   52.1555 C   0  0  0  0  0  0  0  0  0  0  0  0
   22.3861    7.4642   51.9145 C   0  0  0  0  0  0  0  0  0  0  0  0
   23.6398    7.4096   52.7120 C   0  0  0  0  0  0  0  0  0  0  0  0
   24.0363    7.8510   53.8777 C   0  0  0  0  0  0  0  0  0  0  0  0
   23.2461    8.6482   54.8793 C   0  0  0  0  0  0  0  0  0  0  0  0
   21.9617    8.8558   55.1331 C   0  0  0  0  0  0  0  0  0  0  0  0
   20.7003    8.4076   54.5584 C   0  0  0  0  0  0  0  0  0  0  0  0
   20.3299    7.9321   53.3863 C   0  0  0  0  0  0  0  0  0  0  0  0
   18.6290    7.5497   53.2544 Cl  0  0  0  0  0  0  0  0  0  0  0  0
   19.5116    8.2886   51.0018 H   0  0  0  0  0  0  0  0  0  0  0  0
   27.6884    8.8042   56.9130 N   0  0  0  0  0  0  0  0  0  0  0  0
   26.8087    8.2963   57.1475 H   0  0  0  0  0  0  0  0  0  0  0  0
   28.0740    9.8875   57.7683 C   0  0  0  0  0  0  0  0  0  0  0  0
   28.8078    9.6555   58.9128 C   0  0  0  0  0  0  0  0  0  0  0  0
   29.1883   10.7188   59.7381 C   0  0  0  0  0  0  0  0  0  0  0  0
   28.8402   12.0092   59.4263 C   0  0  0  0  0  0  0  0  0  0  0  0
   28.1230   12.1813   58.2968 N   0  0  0  0  0  0  0  0  0  0  0  0
   27.7676   11.1719   57.5229 N   0  0  0  0  0  0  0  0  0  0  0  0
   29.2079   13.1766   60.2512 C   0  0  0  0  0  0  0  0  0  0  0  0
   28.3685   14.2391   60.4725 C   0  0  0  0  0  0  0  0  0  0  0  0
   28.7710   15.3115   61.2594 C   0  0  0  0  0  0  0  0  0  0  0  0
   30.0174   15.3560   61.8466 C   0  0  0  0  0  0  0  0  0  0  0  0
   30.8426   14.2775   61.6099 C   0  0  0  0  0  0  0  0  0  0  0  0
   30.4719   13.2123   60.8414 C   0  0  0  0  0  0  0  0  0  0  0  0
  9 10  1  0  0  0
 10 11  2  0  0  0
 11 12  1  0  0  0
 12 13  2  0  0  0
 13 14  1  0  0  0
 14 15  2  0  0  0
 15 16  1  0  0  0
 16 17  2  0  0  0
 17 18  1  0  0  0
 13  1  1  0  0  0
  1  2  2  0  0  0
  1  3  1  0  0  0
  3  4  1  0  0  0
  4  5  1  0  0  0
  5  6  1  0  0  0
  6  7  1  0  0  0
  7  8  1  0  0  0
  7 20  1  0  0  0
 20 22  1  0  0  0
 22 23  2  0  0  0
 23 24  1  0  0  0
 24 25  2  0  0  0
 25 26  1  0  0  0
 26 27  2  0  0  0
 25 28  1  0  0  0
 28 29  2  0  0  0
 29 30  1  0  0  0
 30 31  2  0  0  0
 31 32  1  0  0  0
 32 33  2  0  0  0
 17 10  1  0  0  0
  8  3  1  0  0  0
 27 22  1  0  0  0
 33 28  1  0  0  0
  9 19  1  0  0  0
 20 21  1  0  0  0
M  END
> <minimizedAffinity>
13.46447

> <CNNscore>
0.4622690976

> <CNNaffinity>
6.3417072296

> <CNN_VS>
2.9315752983

> <CNNaffinity_variance>
0.8528898358

$$$$
[H]OC1=C([H])C([H])=C(C(=O)N2C([H])([H])C([H])([H])C([H])([H])[C@@]([H])(N([H])c3nnc(-c4c([H])c([H])c([H])c([H])c4[H])c([H])c3[H])C2([H])[H])C([H])=C([H])C([H])=C1Cl


 33 36  0  0  0  0  0  0  0  0999 V2000
   25.3557    7.5227   54.4197 C   0  0  0  0  0  0  0  0  0  0  0  0
   25.2307    6.4340   55.2074 O   0  0  0  0  0  0  0  0  0  0  0  0
   26.6833    7.8139   54.2265 N   0  0  0  0  0  0  0  0  0  0  0  0
   27.2857    8.7865   53.3759 C   0  0  0  0  0  0  0  0  0  0  0  0
   27.7898    9.8875   54.3270 C   0  0  0  0  0  0  0  0  0  0  0  0
   28.9426    9.2346   55.0654 C   0  0  0  0  0  0  0  0  0  0  0  0
   28.5426    8.0161   55.8100 C   0  0  0  0  0  0  0  0  0  0  0  0
   27.6755    7.0436   55.0585 C   0  0  0  0  0  0  0  0  0  0  0  0
   20.6617   11.2375   53.5840 O   0  0  0  0  0  0  0  0  0  0  0  0
   21.5598   10.2067   53.3523 C   0  0  0  0  0  0  0  0  0  0  0  0
   22.5404   10.0956   54.2316 C   0  0  0  0  0  0  0  0  0  0  0  0
   23.7129    9.2044   54.4363 C   0  0  0  0  0  0  0  0  0  0  0  0
   24.0642    8.0044   54.0521 C   0  0  0  0  0  0  0  0  0  0  0  0
   23.2883    7.0491   53.1870 C   0  0  0  0  0  0  0  0  0  0  0  0
   22.3064    7.1465   52.3017 C   0  0  0  0  0  0  0  0  0  0  0  0
   21.5094    8.2313   51.7449 C   0  0  0  0  0  0  0  0  0  0  0  0
   21.1964    9.4504   52.1362 C   0  0  0  0  0  0  0  0  0  0  0  0
   20.1712   10.3350   51.0304 Cl  0  0  0  0  0  0  0  0  0  0  0  0
   19.6823   11.0567   53.4051 H   0  0  0  0  0  0  0  0  0  0  0  0
   27.8667    8.3899   57.0273 N   0  0  0  0  0  0  0  0  0  0  0  0
   27.0485    7.8201   57.3316 H   0  0  0  0  0  0  0  0  0  0  0  0
   28.2432    9.4991   57.8531 C   0  0  0  0  0  0  0  0  0  0  0  0
   28.8380    9.2944   59.0805 C   0  0  0  0  0  0  0  0  0  0  0  0
   29.2108   10.3821   59.8771 C   0  0  0  0  0  0  0  0  0  0  0  0
   28.9930   11.6695   59.4545 C   0  0  0  0  0  0  0  0  0  0  0  0
   28.4086   11.8143   58.2473 N   0  0  0  0  0  0  0  0  0  0  0  0
   28.0594   10.7821   57.5011 N   0  0  0  0  0  0  0  0  0  0  0  0
   29.3610   12.8616   60.2432 C   0  0  0  0  0  0  0  0  0  0  0  0
   28.5581   13.9683   60.3580 C   0  0  0  0  0  0  0  0  0  0  0  0
   28.9588   15.0621   61.1157 C   0  0  0  0  0  0  0  0  0  0  0  0
   30.1672   15.0848   61.7787 C   0  0  0  0  0  0  0  0  0  0  0  0
   30.9563   13.9620   61.6484 C   0  0  0  0  0  0  0  0  0  0  0  0
   30.5864   12.8749   60.9107 C   0  0  0  0  0  0  0  0  0  0  0  0
  9 10  1  0  0  0
 10 11  2  0  0  0
 11 12  1  0  0  0
 12 13  2  0  0  0
 13 14  1  0  0  0
 14 15  2  0  0  0
 15 16  1  0  0  0
 16 17  2  0  0  0
 17 18  1  0  0  0
 13  1  1  0  0  0
  1  2  2  0  0  0
  1  3  1  0  0  0
  3  4  1  0  0  0
  4  5  1  0  0  0
  5  6  1  0  0  0
  6  7  1  0  0  0
  7  8  1  0  0  0
  7 20  1  0  0  0
 20 22  1  0  0  0
 22 23  2  0  0  0
 23 24  1  0  0  0
 24 25  2  0  0  0
 25 26  1  0  0  0
 26 27  2  0  0  0
 25 28  1  0  0  0
 28 29  2  0  0  0
 29 30  1  0  0  0
 30 31  2  0  0  0
 31 32  1  0  0  0
 32 33  2  0  0  0
 17 10  1  0  0  0
  8  3  1  0  0  0
 27 22  1  0  0  0
 33 28  1  0  0  0
  9 19  1  0  0  0
 20 21  1  0  0  0
M  END
> <minimizedAffinity>
16.71674

> <CNNscore>
0.4608365893

> <CNNaffinity>
6.2790012360

> <CNN_VS>
2.8935935497

> <CNNaffinity_variance>
0.3294375539

$$$$
[H]OC1=C([H])C([H])=C(C(=O)N2C([H])([H])C([H])([H])C([H])([H])[C@@]([H])(N([H])c3nnc(-c4c([H])c([H])c([H])c([H])c4[H])c([H])c3[H])C2([H])[H])C([H])=C([H])C([H])=C1Cl


 33 36  0  0  0  0  0  0  0  0999 V2000
   23.1913    8.8287   54.9648 C   0  0  0  0  0  0  0  0  0  0  0  0
   22.8023    8.2839   56.1366 O   0  0  0  0  0  0  0  0  0  0  0  0
   22.1129    8.9586   54.1251 N   0  0  0  0  0  0  0  0  0  0  0  0
   22.0252    9.5895   52.8498 C   0  0  0  0  0  0  0  0  0  0  0  0
   21.9241    8.4311   51.8404 C   0  0  0  0  0  0  0  0  0  0  0  0
   20.5477    7.8453   52.0911 C   0  0  0  0  0  0  0  0  0  0  0  0
   20.3615    7.3693   53.4832 C   0  0  0  0  0  0  0  0  0  0  0  0
   20.8281    8.3054   54.5641 C   0  0  0  0  0  0  0  0  0  0  0  0
   28.7424   10.0413   57.0256 O   0  0  0  0  0  0  0  0  0  0  0  0
   27.7390    9.4940   56.2403 C   0  0  0  0  0  0  0  0  0  0  0  0
   26.5038    9.8007   56.5969 C   0  0  0  0  0  0  0  0  0  0  0  0
   25.1314    9.4911   56.1155 C   0  0  0  0  0  0  0  0  0  0  0  0
   24.5940    9.0872   54.9936 C   0  0  0  0  0  0  0  0  0  0  0  0
   25.2894    8.7837   53.6946 C   0  0  0  0  0  0  0  0  0  0  0  0
   26.5237    8.4736   53.3235 C   0  0  0  0  0  0  0  0  0  0  0  0
   27.7980    8.2793   54.0022 C   0  0  0  0  0  0  0  0  0  0  0  0
   28.3068    8.6695   55.1537 C   0  0  0  0  0  0  0  0  0  0  0  0
   29.9391    8.1218   55.4574 Cl  0  0  0  0  0  0  0  0  0  0  0  0
   29.5778   10.3702   56.5590 H   0  0  0  0  0  0  0  0  0  0  0  0
   21.0234    6.1003   53.6560 N   0  0  0  0  0  0  0  0  0  0  0  0
   21.1031    5.4696   52.8298 H   0  0  0  0  0  0  0  0  0  0  0  0
   21.5819    5.6418   54.8936 C   0  0  0  0  0  0  0  0  0  0  0  0
   22.9001    5.2428   54.9674 C   0  0  0  0  0  0  0  0  0  0  0  0
   23.4408    4.8049   56.1809 C   0  0  0  0  0  0  0  0  0  0  0  0
   22.6731    4.7638   57.3177 C   0  0  0  0  0  0  0  0  0  0  0  0
   21.3912    5.1645   57.1912 N   0  0  0  0  0  0  0  0  0  0  0  0
   20.8881    5.5765   56.0418 N   0  0  0  0  0  0  0  0  0  0  0  0
   23.1787    4.3134   58.6292 C   0  0  0  0  0  0  0  0  0  0  0  0
   22.8154    4.8937   59.8182 C   0  0  0  0  0  0  0  0  0  0  0  0
   23.3252    4.4253   61.0232 C   0  0  0  0  0  0  0  0  0  0  0  0
   24.2089    3.3687   61.0779 C   0  0  0  0  0  0  0  0  0  0  0  0
   24.5589    2.8023   59.8709 C   0  0  0  0  0  0  0  0  0  0  0  0
   24.0728    3.2430   58.6742 C   0  0  0  0  0  0  0  0  0  0  0  0
  9 10  1  0  0  0
 10 11  2  0  0  0
 11 12  1  0  0  0
 12 13  2  0  0  0
 13 14  1  0  0  0
 14 15  2  0  0  0
 15 16  1  0  0  0
 16 17  2  0  0  0
 17 18  1  0  0  0
 13  1  1  0  0  0
  1  2  2  0  0  0
  1  3  1  0  0  0
  3  4  1  0  0  0
  4  5  1  0  0  0
  5  6  1  0  0  0
  6  7  1  0  0  0
  7  8  1  0  0  0
  7 20  1  0  0  0
 20 22  1  0  0  0
 22 23  2  0  0  0
 23 24  1  0  0  0
 24 25  2  0  0  0
 25 26  1  0  0  0
 26 27  2  0  0  0
 25 28  1  0  0  0
 28 29  2  0  0  0
 29 30  1  0  0  0
 30 31  2  0  0  0
 31 32  1  0  0  0
 32 33  2  0  0  0
 17 10  1  0  0  0
  8  3  1  0  0  0
 27 22  1  0  0  0
 33 28  1  0  0  0
  9 19  1  0  0  0
 20 21  1  0  0  0
M  END
> <minimizedAffinity>
35.05683

> <CNNscore>
0.4202751219

> <CNNaffinity>
6.2822012901

> <CNN_VS>
2.6402528286

> <CNNaffinity_variance>
1.0769611597

$$$$
[H]OC1=C([H])C([H])=C(C(=O)N2C([H])([H])C([H])([H])C([H])([H])[C@@]([H])(N([H])c3nnc(-c4c([H])c([H])c([H])c([H])c4[H])c([H])c3[H])C2([H])[H])C([H])=C([H])C([H])=C1Cl


 33 36  0  0  0  0  0  0  0  0999 V2000
   21.8064    9.0316   54.5427 C   0  0  0  0  0  0  0  0  0  0  0  0
   21.9803    9.3918   55.8316 O   0  0  0  0  0  0  0  0  0  0  0  0
   22.1415    7.7110   54.3737 N   0  0  0  0  0  0  0  0  0  0  0  0
   21.9991    6.8772   53.2263 C   0  0  0  0  0  0  0  0  0  0  0  0
   23.4296    6.6990   52.6854 C   0  0  0  0  0  0  0  0  0  0  0  0
   24.1100    5.8315   53.7269 C   0  0  0  0  0  0  0  0  0  0  0  0
   24.1135    6.4391   55.0798 C   0  0  0  0  0  0  0  0  0  0  0  0
   22.8064    7.0249   55.5386 C   0  0  0  0  0  0  0  0  0  0  0  0
   19.9187   14.5987   53.1369 O   0  0  0  0  0  0  0  0  0  0  0  0
   20.5447   13.3680   53.0080 C   0  0  0  0  0  0  0  0  0  0  0  0
   20.4726   12.5776   54.0649 C   0  0  0  0  0  0  0  0  0  0  0  0
   20.9515   11.2189   54.4332 C   0  0  0  0  0  0  0  0  0  0  0  0
   21.3315   10.1459   53.7890 C   0  0  0  0  0  0  0  0  0  0  0  0
   21.4002    9.9398   52.3004 C   0  0  0  0  0  0  0  0  0  0  0  0
   21.4746   10.7210   51.2320 C   0  0  0  0  0  0  0  0  0  0  0  0
   21.5247   12.1571   50.9927 C   0  0  0  0  0  0  0  0  0  0  0  0
   21.1654   13.2262   51.6748 C   0  0  0  0  0  0  0  0  0  0  0  0
   21.4715   14.7473   50.8692 Cl  0  0  0  0  0  0  0  0  0  0  0  0
   19.4196   14.9585   52.3336 H   0  0  0  0  0  0  0  0  0  0  0  0
   25.1266    7.4622   55.1508 N   0  0  0  0  0  0  0  0  0  0  0  0
   25.3721    7.8485   56.0875 H   0  0  0  0  0  0  0  0  0  0  0  0
   25.8235    7.9900   54.0152 C   0  0  0  0  0  0  0  0  0  0  0  0
   27.1816    8.2248   54.0679 C   0  0  0  0  0  0  0  0  0  0  0  0
   27.8567    8.7317   52.9525 C   0  0  0  0  0  0  0  0  0  0  0  0
   27.1834    9.0041   51.7881 C   0  0  0  0  0  0  0  0  0  0  0  0
   25.8573    8.7567   51.7894 N   0  0  0  0  0  0  0  0  0  0  0  0
   25.2272    8.2782   52.8468 N   0  0  0  0  0  0  0  0  0  0  0  0
   27.8323    9.5393   50.5752 C   0  0  0  0  0  0  0  0  0  0  0  0
   28.1557    8.7667   49.4885 C   0  0  0  0  0  0  0  0  0  0  0  0
   28.7665    9.3278   48.3735 C   0  0  0  0  0  0  0  0  0  0  0  0
   29.0718   10.6705   48.3093 C   0  0  0  0  0  0  0  0  0  0  0  0
   28.7376   11.4260   49.4128 C   0  0  0  0  0  0  0  0  0  0  0  0
   28.1374   10.8999   50.5199 C   0  0  0  0  0  0  0  0  0  0  0  0
  9 10  1  0  0  0
 10 11  2  0  0  0
 11 12  1  0  0  0
 12 13  2  0  0  0
 13 14  1  0  0  0
 14 15  2  0  0  0
 15 16  1  0  0  0
 16 17  2  0  0  0
 17 18  1  0  0  0
 13  1  1  0  0  0
  1  2  2  0  0  0
  1  3  1  0  0  0
  3  4  1  0  0  0
  4  5  1  0  0  0
  5  6  1  0  0  0
  6  7  1  0  0  0
  7  8  1  0  0  0
  7 20  1  0  0  0
 20 22  1  0  0  0
 22 23  2  0  0  0
 23 24  1  0  0  0
 24 25  2  0  0  0
 25 26  1  0  0  0
 26 27  2  0  0  0
 25 28  1  0  0  0
 28 29  2  0  0  0
 29 30  1  0  0  0
 30 31  2  0  0  0
 31 32  1  0  0  0
 32 33  2  0  0  0
 17 10  1  0  0  0
  8  3  1  0  0  0
 27 22  1  0  0  0
 33 28  1  0  0  0
  9 19  1  0  0  0
 20 21  1  0  0  0
M  END
> <minimizedAffinity>
35.42780

> <CNNscore>
0.4143818617

> <CNNaffinity>
6.1037859917

> <CNN_VS>
2.5292983055

> <CNNaffinity_variance>
0.3058622479

$$$$
[H]OC1=C([H])C([H])=C(C(=O)N2C([H])([H])C([H])([H])C([H])([H])[C@@]([H])(N([H])c3nnc(-c4c([H])c([H])c([H])c([H])c4[H])c([H])c3[H])C2([H])[H])C([H])=C([H])C([H])=C1Cl


 33 36  0  0  0  0  0  0  0  0999 V2000
   21.7023   10.3507   53.9433 C   0  0  0  0  0  0  0  0  0  0  0  0
   22.4005   10.3638   55.0981 O   0  0  0  0  0  0  0  0  0  0  0  0
   21.4745    9.0565   53.5457 N   0  0  0  0  0  0  0  0  0  0  0  0
   20.6824    8.5632   52.4680 C   0  0  0  0  0  0  0  0  0  0  0  0
   21.6989    8.0849   51.4151 C   0  0  0  0  0  0  0  0  0  0  0  0
   22.3271    6.8558   52.0436 C   0  0  0  0  0  0  0  0  0  0  0  0
   22.9840    7.1367   53.3432 C   0  0  0  0  0  0  0  0  0  0  0  0
   22.1933    7.9750   54.3098 C   0  0  0  0  0  0  0  0  0  0  0  0
   21.1364   15.2402   50.4356 O   0  0  0  0  0  0  0  0  0  0  0  0
   20.8702   14.3285   51.4460 C   0  0  0  0  0  0  0  0  0  0  0  0
   21.6581   13.2676   51.4795 C   0  0  0  0  0  0  0  0  0  0  0  0
   21.7936   12.0481   52.3192 C   0  0  0  0  0  0  0  0  0  0  0  0
   21.4350   11.6880   53.5245 C   0  0  0  0  0  0  0  0  0  0  0  0
   20.6924   12.5030   54.5478 C   0  0  0  0  0  0  0  0  0  0  0  0
   19.8994   13.5651   54.5283 C   0  0  0  0  0  0  0  0  0  0  0  0
   19.3693   14.4509   53.5003 C   0  0  0  0  0  0  0  0  0  0  0  0
   19.7305   14.7730   52.2744 C   0  0  0  0  0  0  0  0  0  0  0  0
   18.6852   15.9286   51.4816 Cl  0  0  0  0  0  0  0  0  0  0  0  0
   21.0588   16.2243   50.6582 H   0  0  0  0  0  0  0  0  0  0  0  0
   24.2576    7.7731   53.1169 N   0  0  0  0  0  0  0  0  0  0  0  0
   24.5710    7.9121   52.1324 H   0  0  0  0  0  0  0  0  0  0  0  0
   25.1296    8.2296   54.1586 C   0  0  0  0  0  0  0  0  0  0  0  0
   26.4974    8.0967   54.0420 C   0  0  0  0  0  0  0  0  0  0  0  0
   27.3427    8.5528   55.0589 C   0  0  0  0  0  0  0  0  0  0  0  0
   26.8295    9.1395   56.1884 C   0  0  0  0  0  0  0  0  0  0  0  0
   25.4862    9.2452   56.2526 N   0  0  0  0  0  0  0  0  0  0  0  0
   24.6949    8.8119   55.2881 N   0  0  0  0  0  0  0  0  0  0  0  0
   27.6625    9.6423   57.2983 C   0  0  0  0  0  0  0  0  0  0  0  0
   28.0287   10.9578   57.4314 C   0  0  0  0  0  0  0  0  0  0  0  0
   28.8154   11.3724   58.4993 C   0  0  0  0  0  0  0  0  0  0  0  0
   29.2585   10.4911   59.4622 C   0  0  0  0  0  0  0  0  0  0  0  0
   28.8778    9.1753   59.3071 C   0  0  0  0  0  0  0  0  0  0  0  0
   28.1060    8.7423   58.2681 C   0  0  0  0  0  0  0  0  0  0  0  0
  9 10  1  0  0  0
 10 11  2  0  0  0
 11 12  1  0  0  0
 12 13  2  0  0  0
 13 14  1  0  0  0
 14 15  2  0  0  0
 15 16  1  0  0  0
 16 17  2  0  0  0
 17 18  1  0  0  0
 13  1  1  0  0  0
  1  2  2  0  0  0
  1  3  1  0  0  0
  3  4  1  0  0  0
  4  5  1  0  0  0
  5  6  1  0  0  0
  6  7  1  0  0  0
  7  8  1  0  0  0
  7 20  1  0  0  0
 20 22  1  0  0  0
 22 23  2  0  0  0
 23 24  1  0  0  0
 24 25  2  0  0  0
 25 26  1  0  0  0
 26 27  2  0  0  0
 25 28  1  0  0  0
 28 29  2  0  0  0
 29 30  1  0  0  0
 30 31  2  0  0  0
 31 32  1  0  0  0
 32 33  2  0  0  0
 17 10  1  0  0  0
  8  3  1  0  0  0
 27 22  1  0  0  0
 33 28  1  0  0  0
  9 19  1  0  0  0
 20 21  1  0  0  0
M  END
> <minimizedAffinity>
25.00103

> <CNNscore>
0.4083739817

> <CNNaffinity>
6.4047536850

> <CNN_VS>
2.6155347824

> <CNNaffinity_variance>
0.4640782475

$$$$
[H]N=C(N([H])[H])N([H])C([H])([H])C([H])([H])C([H])([H])[C@@]([H])(B(O[H])O[H])N([H])C(=O)[C@@]1([H])N(C(=O)[C@@]([H])(N([H])C(=O)[C@@]([H])(N([H])C(=O)[C@@]([H])(N([H])C(=O)C([H])([H])O[H])C([H])([H])OC([H])([H])c2c([H])c([H])c([H])c([H])c2[H])C([H])([H])C([H])([H])C(=O)O[H])C([H])([H])C([H])(C([H])([H])[H])C([H])([H])[H])C([H])([H])C([H])([H])C1([H])[H]


 65 66  0  0  0  0  0  0  0  0999 V2000
   24.6115    7.7475   54.3292 C   0  0  0  0  0  0  0  0  0  0  0  0
   25.8596    8.4002   53.9152 C   0  0  0  0  0  0  0  0  0  0  0  0
   25.7978    8.8988   52.7054 O   0  0  0  0  0  0  0  0  0  0  0  0
   27.0760    8.5791   54.5700 N   0  0  0  0  0  0  0  0  0  0  0  0
   28.1598    9.3598   53.8894 C   0  0  0  0  0  0  0  0  0  0  0  0
   29.4135    9.1067   54.6425 C   0  0  0  0  0  0  0  0  0  0  0  0
   29.0990    7.8801   55.4253 C   0  0  0  0  0  0  0  0  0  0  0  0
   27.6485    8.1664   55.8259 C   0  0  0  0  0  0  0  0  0  0  0  0
   27.5836    9.1646   56.8990 C   0  0  0  0  0  0  0  0  0  0  0  0
   26.5879    9.9700   56.8485 O   0  0  0  0  0  0  0  0  0  0  0  0
   28.5234    9.2976   57.9637 N   0  0  0  0  0  0  0  0  0  0  0  0
   29.3187    8.6425   57.9923 H   0  0  0  0  0  0  0  0  0  0  0  0
   28.3977   10.3004   58.9817 C   0  0  0  0  0  0  0  0  0  0  0  0
   28.1144   11.7370   58.3803 B   0  0  0  0  0  0  0  0  0  0  0  0
   28.0755   12.8774   59.2839 O   0  0  0  0  0  0  0  0  0  0  0  0
   28.4789   11.9876   56.9918 O   0  0  0  0  0  0  0  0  0  0  0  0
   29.0102   13.1168   59.5394 H   0  0  0  0  0  0  0  0  0  0  0  0
   29.4133   11.8185   56.7909 H   0  0  0  0  0  0  0  0  0  0  0  0
   29.5538   10.3397   59.9536 C   0  0  0  0  0  0  0  0  0  0  0  0
   29.1395   10.4344   61.3952 C   0  0  0  0  0  0  0  0  0  0  0  0
   29.7543   11.7343   61.9243 C   0  0  0  0  0  0  0  0  0  0  0  0
   30.5940   12.3672   60.9503 N   0  0  0  0  0  0  0  0  0  0  0  0
   30.9591   11.8217   60.1629 H   0  0  0  0  0  0  0  0  0  0  0  0
   30.9232   13.7385   61.0618 C   0  0  0  0  0  0  0  0  0  0  0  0
   29.9857   14.6996   60.5736 N   0  0  0  0  0  0  0  0  0  0  0  0
   32.0018   14.2151   61.5667 N   0  0  0  0  0  0  0  0  0  0  0  0
   29.9555   15.0037   59.5844 H   0  0  0  0  0  0  0  0  0  0  0  0
   29.3230   15.0874   61.2720 H   0  0  0  0  0  0  0  0  0  0  0  0
   32.7745   13.6615   61.9591 H   0  0  0  0  0  0  0  0  0  0  0  0
   23.5383    8.2033   53.4449 N   0  0  0  0  0  0  0  0  0  0  0  0
   22.6433    9.2429   53.7567 C   0  0  0  0  0  0  0  0  0  0  0  0
   22.7613    9.8230   54.8486 O   0  0  0  0  0  0  0  0  0  0  0  0
   23.4210    7.7292   52.5194 H   0  0  0  0  0  0  0  0  0  0  0  0
   21.5690    9.6709   52.8291 C   0  0  0  0  0  0  0  0  0  0  0  0
   21.6101   11.1250   52.5857 N   0  0  0  0  0  0  0  0  0  0  0  0
   21.2335   11.6503   51.3461 C   0  0  0  0  0  0  0  0  0  0  0  0
   20.8638   10.8095   50.4511 O   0  0  0  0  0  0  0  0  0  0  0  0
   21.9253   11.7542   53.3451 H   0  0  0  0  0  0  0  0  0  0  0  0
   21.2040   13.0510   50.9495 C   0  0  0  0  0  0  0  0  0  0  0  0
   20.3877   13.7836   51.9454 N   0  0  0  0  0  0  0  0  0  0  0  0
   19.7920   15.0342   51.6786 C   0  0  0  0  0  0  0  0  0  0  0  0
   19.9006   15.6382   50.5860 O   0  0  0  0  0  0  0  0  0  0  0  0
   20.2643   13.3272   52.8675 H   0  0  0  0  0  0  0  0  0  0  0  0
   18.9851   15.6781   52.7500 C   0  0  0  0  0  0  0  0  0  0  0  0
   19.2081   15.1092   53.9921 O   0  0  0  0  0  0  0  0  0  0  0  0
   19.8866   15.6258   54.4944 H   0  0  0  0  0  0  0  0  0  0  0  0
   22.5400   13.7282   50.8401 C   0  0  0  0  0  0  0  0  0  0  0  0
   22.6219   14.9927   51.3328 O   0  0  0  0  0  0  0  0  0  0  0  0
   22.6203   16.0262   50.4368 C   0  0  0  0  0  0  0  0  0  0  0  0
   23.7838   16.0581   49.5129 C   0  0  0  0  0  0  0  0  0  0  0  0
   23.8947   17.1776   48.6801 C   0  0  0  0  0  0  0  0  0  0  0  0
   24.9719   17.2469   47.8254 C   0  0  0  0  0  0  0  0  0  0  0  0
   25.9242   16.2560   47.7745 C   0  0  0  0  0  0  0  0  0  0  0  0
   25.8019   15.1542   48.6030 C   0  0  0  0  0  0  0  0  0  0  0  0
   24.7270   15.0889   49.4529 C   0  0  0  0  0  0  0  0  0  0  0  0
   21.3754    8.8642   51.6192 C   0  0  0  0  0  0  0  0  0  0  0  0
   20.1867    7.9342   51.6134 C   0  0  0  0  0  0  0  0  0  0  0  0
   20.0052    7.3495   52.9662 C   0  0  0  0  0  0  0  0  0  0  0  0
   19.8553    5.9565   53.1397 O   0  0  0  0  0  0  0  0  0  0  0  0
   19.9843    8.0570   53.9954 O   0  0  0  0  0  0  0  0  0  0  0  0
   20.6767    5.3685   53.2763 H   0  0  0  0  0  0  0  0  0  0  0  0
   24.5991    6.3039   54.5717 C   0  0  0  0  0  0  0  0  0  0  0  0
   22.5635    5.7273   53.1901 C   0  0  0  0  0  0  0  0  0  0  0  0
   23.1971    5.7023   54.5291 C   0  0  0  0  0  0  0  0  0  0  0  0
   22.3073    6.3820   55.5356 C   0  0  0  0  0  0  0  0  0  0  0  0
 63 64  1  0  0  0
 64 65  1  0  0  0
 64 62  1  0  0  0
 62  1  1  0  0  0
  1 30  1  0  0  0
 30 31  1  0  0  0
 31 32  2  0  0  0
 31 34  1  0  0  0
 34 56  1  0  0  0
 56 57  1  0  0  0
 57 58  1  0  0  0
 58 59  1  0  0  0
 58 60  2  0  0  0
 34 35  1  0  0  0
 35 36  1  0  0  0
 36 37  2  0  0  0
 36 39  1  0  0  0
 39 47  1  0  0  0
 47 48  1  0  0  0
 48 49  1  0  0  0
 49 50  1  0  0  0
 50 51  2  0  0  0
 51 52  1  0  0  0
 52 53  2  0  0  0
 53 54  1  0  0  0
 54 55  2  0  0  0
 39 40  1  0  0  0
 40 41  1  0  0  0
 41 42  2  0  0  0
 41 44  1  0  0  0
 44 45  1  0  0  0
  1  2  1  0  0  0
  2  3  2  0  0  0
  2  4  1  0  0  0
  4  5  1  0  0  0
  5  6  1  0  0  0
  6  7  1  0  0  0
  7  8  1  0  0  0
  8  9  1  0  0  0
  9 10  2  0  0  0
  9 11  1  0  0  0
 11 13  1  0  0  0
 13 19  1  0  0  0
 19 20  1  0  0  0
 20 21  1  0  0  0
 21 22  1  0  0  0
 22 24  1  0  0  0
 24 25  1  0  0  0
 24 26  2  0  0  0
 13 14  1  0  0  0
 14 15  1  0  0  0
 14 16  1  0  0  0
 55 50  1  0  0  0
  8  4  1  0  0  0
 30 33  1  0  0  0
 59 61  1  0  0  0
 35 38  1  0  0  0
 40 43  1  0  0  0
 45 46  1  0  0  0
 11 12  1  0  0  0
 22 23  1  0  0  0
 25 27  1  0  0  0
 25 28  1  0  0  0
 26 29  1  0  0  0
 15 17  1  0  0  0
 16 18  1  0  0  0
M  END
> <minimizedAffinity>
16.45483

> <CNNscore>
0.5854856968

> <CNNaffinity>
7.0102682114

> <CNN_VS>
4.1044116020

> <CNNaffinity_variance>
1.7062095404

$$$$
[H]N=C(N([H])[H])N([H])C([H])([H])C([H])([H])C([H])([H])[C@@]([H])(B(O[H])O[H])N([H])C(=O)[C@@]1([H])N(C(=O)[C@@]([H])(N([H])C(=O)[C@@]([H])(N([H])C(=O)[C@@]([H])(N([H])C(=O)C([H])([H])O[H])C([H])([H])OC([H])([H])c2c([H])c([H])c([H])c([H])c2[H])C([H])([H])C([H])([H])C(=O)O[H])C([H])([H])C([H])(C([H])([H])[H])C([H])([H])[H])C([H])([H])C([H])([H])C1([H])[H]


 65 66  0  0  0  0  0  0  0  0999 V2000
   24.0234    8.6119   54.8914 C   0  0  0  0  0  0  0  0  0  0  0  0
   23.6788    8.0951   53.5612 C   0  0  0  0  0  0  0  0  0  0  0  0
   24.7289    7.7354   52.8657 O   0  0  0  0  0  0  0  0  0  0  0  0
   22.4542    7.9235   52.9198 N   0  0  0  0  0  0  0  0  0  0  0  0
   22.4288    7.2995   51.5570 C   0  0  0  0  0  0  0  0  0  0  0  0
   21.0785    7.5473   50.9928 C   0  0  0  0  0  0  0  0  0  0  0  0
   20.5528    8.6525   51.8403 C   0  0  0  0  0  0  0  0  0  0  0  0
   21.0771    8.2266   53.2149 C   0  0  0  0  0  0  0  0  0  0  0  0
   20.2949    7.1100   53.7566 C   0  0  0  0  0  0  0  0  0  0  0  0
   19.6121    7.3698   54.8097 O   0  0  0  0  0  0  0  0  0  0  0  0
   20.2424    5.7939   53.2092 N   0  0  0  0  0  0  0  0  0  0  0  0
   20.7958    5.5995   52.3616 H   0  0  0  0  0  0  0  0  0  0  0  0
   19.4541    4.7473   53.7933 C   0  0  0  0  0  0  0  0  0  0  0  0
   19.5847    3.3822   53.0027 B   0  0  0  0  0  0  0  0  0  0  0  0
   18.8505    3.2239   51.7559 O   0  0  0  0  0  0  0  0  0  0  0  0
   20.8024    2.6001   53.1734 O   0  0  0  0  0  0  0  0  0  0  0  0
   19.3188    3.7380   51.0399 H   0  0  0  0  0  0  0  0  0  0  0  0
   21.6167    3.0839   52.9618 H   0  0  0  0  0  0  0  0  0  0  0  0
   18.0034    5.1133   54.0039 C   0  0  0  0  0  0  0  0  0  0  0  0
   17.0647    3.9401   53.9725 C   0  0  0  0  0  0  0  0  0  0  0  0
   16.1373    4.1117   55.1800 C   0  0  0  0  0  0  0  0  0  0  0  0
   16.3804    3.1235   56.1892 N   0  0  0  0  0  0  0  0  0  0  0  0
   16.9075    2.2762   55.9541 H   0  0  0  0  0  0  0  0  0  0  0  0
   15.9030    3.3051   57.5084 C   0  0  0  0  0  0  0  0  0  0  0  0
   16.7243    4.0231   58.4307 N   0  0  0  0  0  0  0  0  0  0  0  0
   14.7839    2.8798   57.9691 N   0  0  0  0  0  0  0  0  0  0  0  0
   17.4711    3.5721   58.9880 H   0  0  0  0  0  0  0  0  0  0  0  0
   16.5326    5.0395   58.5181 H   0  0  0  0  0  0  0  0  0  0  0  0
   14.0817    2.3475   57.4388 H   0  0  0  0  0  0  0  0  0  0  0  0
   25.4815    8.6347   55.0129 N   0  0  0  0  0  0  0  0  0  0  0  0
   26.1823    9.3420   56.0067 C   0  0  0  0  0  0  0  0  0  0  0  0
   25.5347    9.9914   56.8443 O   0  0  0  0  0  0  0  0  0  0  0  0
   26.0472    8.0938   54.3183 H   0  0  0  0  0  0  0  0  0  0  0  0
   27.6624    9.3371   56.0907 C   0  0  0  0  0  0  0  0  0  0  0  0
   28.1264    9.1134   57.4727 N   0  0  0  0  0  0  0  0  0  0  0  0
   28.4782   10.1925   58.2890 C   0  0  0  0  0  0  0  0  0  0  0  0
   28.3808   11.3625   57.7730 O   0  0  0  0  0  0  0  0  0  0  0  0
   28.1920    8.1445   57.8315 H   0  0  0  0  0  0  0  0  0  0  0  0
   28.9391   10.1457   59.6694 C   0  0  0  0  0  0  0  0  0  0  0  0
   28.8865    8.7334   60.1139 N   0  0  0  0  0  0  0  0  0  0  0  0
   30.0421    7.9570   60.3410 C   0  0  0  0  0  0  0  0  0  0  0  0
   31.2098    8.3843   60.1850 O   0  0  0  0  0  0  0  0  0  0  0  0
   27.9433    8.3298   60.2600 H   0  0  0  0  0  0  0  0  0  0  0  0
   29.8730    6.5499   60.7942 C   0  0  0  0  0  0  0  0  0  0  0  0
   28.9266    6.4291   61.7970 O   0  0  0  0  0  0  0  0  0  0  0  0
   28.0467    6.1825   61.4169 H   0  0  0  0  0  0  0  0  0  0  0  0
   30.3254   10.6691   59.9143 C   0  0  0  0  0  0  0  0  0  0  0  0
   30.6425   10.9689   61.2020 O   0  0  0  0  0  0  0  0  0  0  0  0
   31.0965   12.2314   61.4683 C   0  0  0  0  0  0  0  0  0  0  0  0
   30.0978   13.3132   61.2669 C   0  0  0  0  0  0  0  0  0  0  0  0
   28.7575   12.9823   61.4974 C   0  0  0  0  0  0  0  0  0  0  0  0
   27.8087   13.9672   61.3380 C   0  0  0  0  0  0  0  0  0  0  0  0
   28.1456   15.2470   60.9637 C   0  0  0  0  0  0  0  0  0  0  0  0
   29.4746   15.5605   60.7384 C   0  0  0  0  0  0  0  0  0  0  0  0
   30.4167   14.5761   60.8980 C   0  0  0  0  0  0  0  0  0  0  0  0
   28.3826    8.5542   55.0806 C   0  0  0  0  0  0  0  0  0  0  0  0
   29.8109    8.9586   54.8081 C   0  0  0  0  0  0  0  0  0  0  0  0
   29.8673   10.4098   54.4988 C   0  0  0  0  0  0  0  0  0  0  0  0
   31.0737   11.0171   54.0877 O   0  0  0  0  0  0  0  0  0  0  0  0
   28.8600   11.1437   54.5823 O   0  0  0  0  0  0  0  0  0  0  0  0
   31.3120   11.0583   53.0975 H   0  0  0  0  0  0  0  0  0  0  0  0
   23.3742    9.8286   55.3824 C   0  0  0  0  0  0  0  0  0  0  0  0
   22.1012   11.2025   53.6862 C   0  0  0  0  0  0  0  0  0  0  0  0
   22.0437   10.1166   54.6925 C   0  0  0  0  0  0  0  0  0  0  0  0
   20.9798   10.4146   55.7153 C   0  0  0  0  0  0  0  0  0  0  0  0
 63 64  1  0  0  0
 64 65  1  0  0  0
 64 62  1  0  0  0
 62  1  1  0  0  0
  1 30  1  0  0  0
 30 31  1  0  0  0
 31 32  2  0  0  0
 31 34  1  0  0  0
 34 56  1  0  0  0
 56 57  1  0  0  0
 57 58  1  0  0  0
 58 59  1  0  0  0
 58 60  2  0  0  0
 34 35  1  0  0  0
 35 36  1  0  0  0
 36 37  2  0  0  0
 36 39  1  0  0  0
 39 47  1  0  0  0
 47 48  1  0  0  0
 48 49  1  0  0  0
 49 50  1  0  0  0
 50 51  2  0  0  0
 51 52  1  0  0  0
 52 53  2  0  0  0
 53 54  1  0  0  0
 54 55  2  0  0  0
 39 40  1  0  0  0
 40 41  1  0  0  0
 41 42  2  0  0  0
 41 44  1  0  0  0
 44 45  1  0  0  0
  1  2  1  0  0  0
  2  3  2  0  0  0
  2  4  1  0  0  0
  4  5  1  0  0  0
  5  6  1  0  0  0
  6  7  1  0  0  0
  7  8  1  0  0  0
  8  9  1  0  0  0
  9 10  2  0  0  0
  9 11  1  0  0  0
 11 13  1  0  0  0
 13 19  1  0  0  0
 19 20  1  0  0  0
 20 21  1  0  0  0
 21 22  1  0  0  0
 22 24  1  0  0  0
 24 25  1  0  0  0
 24 26  2  0  0  0
 13 14  1  0  0  0
 14 15  1  0  0  0
 14 16  1  0  0  0
 55 50  1  0  0  0
  8  4  1  0  0  0
 30 33  1  0  0  0
 59 61  1  0  0  0
 35 38  1  0  0  0
 40 43  1  0  0  0
 45 46  1  0  0  0
 11 12  1  0  0  0
 22 23  1  0  0  0
 25 27  1  0  0  0
 25 28  1  0  0  0
 26 29  1  0  0  0
 15 17  1  0  0  0
 16 18  1  0  0  0
M  END
> <minimizedAffinity>
18.16725

> <CNNscore>
0.5617964864

> <CNNaffinity>
7.1852560043

> <CNN_VS>
4.0366516113

> <CNNaffinity_variance>
0.3038299084

$$$$
[H]N=C(N([H])[H])N([H])C([H])([H])C([H])([H])C([H])([H])[C@@]([H])(B(O[H])O[H])N([H])C(=O)[C@@]1([H])N(C(=O)[C@@]([H])(N([H])C(=O)[C@@]([H])(N([H])C(=O)[C@@]([H])(N([H])C(=O)C([H])([H])O[H])C([H])([H])OC([H])([H])c2c([H])c([H])c([H])c([H])c2[H])C([H])([H])C([H])([H])C(=O)O[H])C([H])([H])C([H])(C([H])([H])[H])C([H])([H])[H])C([H])([H])C([H])([H])C1([H])[H]


 65 66  0  0  0  0  0  0  0  0999 V2000
   24.9723    8.7913   54.1447 C   0  0  0  0  0  0  0  0  0  0  0  0
   23.8336    9.2456   54.9523 C   0  0  0  0  0  0  0  0  0  0  0  0
   24.1872    9.6688   56.1405 O   0  0  0  0  0  0  0  0  0  0  0  0
   22.4681    9.3045   54.6828 N   0  0  0  0  0  0  0  0  0  0  0  0
   21.5489    9.8898   55.7122 C   0  0  0  0  0  0  0  0  0  0  0  0
   20.1663    9.5227   55.3163 C   0  0  0  0  0  0  0  0  0  0  0  0
   20.3724    8.4015   54.3588 C   0  0  0  0  0  0  0  0  0  0  0  0
   21.6060    8.9019   53.6012 C   0  0  0  0  0  0  0  0  0  0  0  0
   21.2507    9.9672   52.6573 C   0  0  0  0  0  0  0  0  0  0  0  0
   20.9382    9.5806   51.4759 O   0  0  0  0  0  0  0  0  0  0  0  0
   21.2292   11.3623   52.9534 N   0  0  0  0  0  0  0  0  0  0  0  0
   21.4820   11.6587   53.9077 H   0  0  0  0  0  0  0  0  0  0  0  0
   20.8715   12.3516   51.9782 C   0  0  0  0  0  0  0  0  0  0  0  0
   21.3842   11.9801   50.5274 B   0  0  0  0  0  0  0  0  0  0  0  0
   20.4132   11.8805   49.4476 O   0  0  0  0  0  0  0  0  0  0  0  0
   22.7562   12.3195   50.1727 O   0  0  0  0  0  0  0  0  0  0  0  0
   20.1470   12.8013   49.1691 H   0  0  0  0  0  0  0  0  0  0  0  0
   22.9702   13.2608   50.2740 H   0  0  0  0  0  0  0  0  0  0  0  0
   21.2769   13.7586   52.3509 C   0  0  0  0  0  0  0  0  0  0  0  0
   21.6855   14.6088   51.1809 C   0  0  0  0  0  0  0  0  0  0  0  0
   21.0930   15.9973   51.4434 C   0  0  0  0  0  0  0  0  0  0  0  0
   21.9560   17.0455   50.9841 N   0  0  0  0  0  0  0  0  0  0  0  0
   22.2536   17.7801   51.6343 H   0  0  0  0  0  0  0  0  0  0  0  0
   22.4044   17.0767   49.6428 C   0  0  0  0  0  0  0  0  0  0  0  0
   23.8056   16.9477   49.3963 N   0  0  0  0  0  0  0  0  0  0  0  0
   21.6636   17.2133   48.6045 N   0  0  0  0  0  0  0  0  0  0  0  0
   24.4558   17.7531   49.4112 H   0  0  0  0  0  0  0  0  0  0  0  0
   24.1481   15.9884   49.1966 H   0  0  0  0  0  0  0  0  0  0  0  0
   20.6407   17.3191   48.6086 H   0  0  0  0  0  0  0  0  0  0  0  0
   26.1970    9.3454   54.7230 N   0  0  0  0  0  0  0  0  0  0  0  0
   26.5967    9.1590   56.0589 C   0  0  0  0  0  0  0  0  0  0  0  0
   25.8748    8.4798   56.8073 O   0  0  0  0  0  0  0  0  0  0  0  0
   26.8207    9.9204   54.1103 H   0  0  0  0  0  0  0  0  0  0  0  0
   27.8472    9.7410   56.6023 C   0  0  0  0  0  0  0  0  0  0  0  0
   28.3168    9.0039   57.7904 N   0  0  0  0  0  0  0  0  0  0  0  0
   28.9053    9.6818   58.8620 C   0  0  0  0  0  0  0  0  0  0  0  0
   29.0151   10.9546   58.7498 O   0  0  0  0  0  0  0  0  0  0  0  0
   28.2082    7.9747   57.8202 H   0  0  0  0  0  0  0  0  0  0  0  0
   29.4062    9.1104   60.1041 C   0  0  0  0  0  0  0  0  0  0  0  0
   29.1798   10.1036   61.1799 N   0  0  0  0  0  0  0  0  0  0  0  0
   29.9584   11.2713   61.3223 C   0  0  0  0  0  0  0  0  0  0  0  0
   30.9081   11.5719   60.5619 O   0  0  0  0  0  0  0  0  0  0  0  0
   28.4039    9.9043   61.8371 H   0  0  0  0  0  0  0  0  0  0  0  0
   29.6384   12.2055   62.4352 C   0  0  0  0  0  0  0  0  0  0  0  0
   30.0505   13.5004   62.1717 O   0  0  0  0  0  0  0  0  0  0  0  0
   29.3045   14.0339   61.7999 H   0  0  0  0  0  0  0  0  0  0  0  0
   28.7857    7.8082   60.5221 C   0  0  0  0  0  0  0  0  0  0  0  0
   29.6415    6.7859   60.7894 O   0  0  0  0  0  0  0  0  0  0  0  0
   29.4151    6.0446   61.9164 C   0  0  0  0  0  0  0  0  0  0  0  0
   28.3829    4.9852   61.7743 C   0  0  0  0  0  0  0  0  0  0  0  0
   27.3472    5.2343   60.8662 C   0  0  0  0  0  0  0  0  0  0  0  0
   26.3847    4.2645   60.6970 C   0  0  0  0  0  0  0  0  0  0  0  0
   26.4198    3.0770   61.3898 C   0  0  0  0  0  0  0  0  0  0  0  0
   27.4491    2.8439   62.2851 C   0  0  0  0  0  0  0  0  0  0  0  0
   28.4059    3.8129   62.4510 C   0  0  0  0  0  0  0  0  0  0  0  0
   28.9045   10.0625   55.6375 C   0  0  0  0  0  0  0  0  0  0  0  0
   28.7818    9.4347   54.2705 C   0  0  0  0  0  0  0  0  0  0  0  0
   29.2585    8.0294   54.3232 C   0  0  0  0  0  0  0  0  0  0  0  0
   30.6314    7.7346   54.4697 O   0  0  0  0  0  0  0  0  0  0  0  0
   28.4731    7.0612   54.2473 O   0  0  0  0  0  0  0  0  0  0  0  0
   31.0350    7.6364   55.4005 H   0  0  0  0  0  0  0  0  0  0  0  0
   25.0811    7.3769   53.7836 C   0  0  0  0  0  0  0  0  0  0  0  0
   23.7357    5.6023   54.9776 C   0  0  0  0  0  0  0  0  0  0  0  0
   23.7587    6.6250   53.9058 C   0  0  0  0  0  0  0  0  0  0  0  0
   23.3901    6.0004   52.5864 C   0  0  0  0  0  0  0  0  0  0  0  0
 63 64  1  0  0  0
 64 65  1  0  0  0
 64 62  1  0  0  0
 62  1  1  0  0  0
  1 30  1  0  0  0
 30 31  1  0  0  0
 31 32  2  0  0  0
 31 34  1  0  0  0
 34 56  1  0  0  0
 56 57  1  0  0  0
 57 58  1  0  0  0
 58 59  1  0  0  0
 58 60  2  0  0  0
 34 35  1  0  0  0
 35 36  1  0  0  0
 36 37  2  0  0  0
 36 39  1  0  0  0
 39 47  1  0  0  0
 47 48  1  0  0  0
 48 49  1  0  0  0
 49 50  1  0  0  0
 50 51  2  0  0  0
 51 52  1  0  0  0
 52 53  2  0  0  0
 53 54  1  0  0  0
 54 55  2  0  0  0
 39 40  1  0  0  0
 40 41  1  0  0  0
 41 42  2  0  0  0
 41 44  1  0  0  0
 44 45  1  0  0  0
  1  2  1  0  0  0
  2  3  2  0  0  0
  2  4  1  0  0  0
  4  5  1  0  0  0
  5  6  1  0  0  0
  6  7  1  0  0  0
  7  8  1  0  0  0
  8  9  1  0  0  0
  9 10  2  0  0  0
  9 11  1  0  0  0
 11 13  1  0  0  0
 13 19  1  0  0  0
 19 20  1  0  0  0
 20 21  1  0  0  0
 21 22  1  0  0  0
 22 24  1  0  0  0
 24 25  1  0  0  0
 24 26  2  0  0  0
 13 14  1  0  0  0
 14 15  1  0  0  0
 14 16  1  0  0  0
 55 50  1  0  0  0
  8  4  1  0  0  0
 30 33  1  0  0  0
 59 61  1  0  0  0
 35 38  1  0  0  0
 40 43  1  0  0  0
 45 46  1  0  0  0
 11 12  1  0  0  0
 22 23  1  0  0  0
 25 27  1  0  0  0
 25 28  1  0  0  0
 26 29  1  0  0  0
 15 17  1  0  0  0
 16 18  1  0  0  0
M  END
> <minimizedAffinity>
16.56773

> <CNNscore>
0.5273539424

> <CNNaffinity>
6.8833971024

> <CNN_VS>
3.6299865246

> <CNNaffinity_variance>
1.3934581280

$$$$
[H]N=C(N([H])[H])N([H])C([H])([H])C([H])([H])C([H])([H])[C@@]([H])(B(O[H])O[H])N([H])C(=O)[C@@]1([H])N(C(=O)[C@@]([H])(N([H])C(=O)[C@@]([H])(N([H])C(=O)[C@@]([H])(N([H])C(=O)C([H])([H])O[H])C([H])([H])OC([H])([H])c2c([H])c([H])c([H])c([H])c2[H])C([H])([H])C([H])([H])C(=O)O[H])C([H])([H])C([H])(C([H])([H])[H])C([H])([H])[H])C([H])([H])C([H])([H])C1([H])[H]


 65 66  0  0  0  0  0  0  0  0999 V2000
   24.1678    8.7707   55.0767 C   0  0  0  0  0  0  0  0  0  0  0  0
   23.9980    8.3065   53.6943 C   0  0  0  0  0  0  0  0  0  0  0  0
   25.1105    8.3428   53.0036 O   0  0  0  0  0  0  0  0  0  0  0  0
   22.8826    7.8431   53.0002 N   0  0  0  0  0  0  0  0  0  0  0  0
   23.0497    7.3747   51.5860 C   0  0  0  0  0  0  0  0  0  0  0  0
   21.6891    7.2653   51.0030 C   0  0  0  0  0  0  0  0  0  0  0  0
   20.8548    8.0778   51.9302 C   0  0  0  0  0  0  0  0  0  0  0  0
   21.4766    7.6951   53.2766 C   0  0  0  0  0  0  0  0  0  0  0  0
   21.0601    6.3501   53.6882 C   0  0  0  0  0  0  0  0  0  0  0  0
   21.8065    5.7803   54.5605 O   0  0  0  0  0  0  0  0  0  0  0  0
   19.9159    5.6523   53.1998 N   0  0  0  0  0  0  0  0  0  0  0  0
   19.3242    6.1229   52.4993 H   0  0  0  0  0  0  0  0  0  0  0  0
   19.5679    4.3345   53.6474 C   0  0  0  0  0  0  0  0  0  0  0  0
   19.8858    3.2265   52.5626 B   0  0  0  0  0  0  0  0  0  0  0  0
   20.3390    1.9184   53.0122 O   0  0  0  0  0  0  0  0  0  0  0  0
   19.1969    3.2987   51.2805 O   0  0  0  0  0  0  0  0  0  0  0  0
   19.5560    1.4121   53.3685 H   0  0  0  0  0  0  0  0  0  0  0  0
   18.2289    3.3015   51.3506 H   0  0  0  0  0  0  0  0  0  0  0  0
   18.1479    4.2091   54.1481 C   0  0  0  0  0  0  0  0  0  0  0  0
   18.0159    3.4330   55.4283 C   0  0  0  0  0  0  0  0  0  0  0  0
   16.5198    3.4195   55.7589 C   0  0  0  0  0  0  0  0  0  0  0  0
   15.7449    4.1116   54.7716 N   0  0  0  0  0  0  0  0  0  0  0  0
   15.4188    5.0654   54.9584 H   0  0  0  0  0  0  0  0  0  0  0  0
   15.4265    3.4938   53.5394 C   0  0  0  0  0  0  0  0  0  0  0  0
   14.7652    4.2757   52.5433 N   0  0  0  0  0  0  0  0  0  0  0  0
   15.6762    2.2765   53.2210 N   0  0  0  0  0  0  0  0  0  0  0  0
   13.7370    4.3914   52.5101 H   0  0  0  0  0  0  0  0  0  0  0  0
   15.3769    4.7311   51.8392 H   0  0  0  0  0  0  0  0  0  0  0  0
   16.1428    1.5844   53.8216 H   0  0  0  0  0  0  0  0  0  0  0  0
   25.5948    8.9876   55.3175 N   0  0  0  0  0  0  0  0  0  0  0  0
   26.1622    9.1846   56.5897 C   0  0  0  0  0  0  0  0  0  0  0  0
   25.4162    9.1733   57.5827 O   0  0  0  0  0  0  0  0  0  0  0  0
   26.2419    9.0002   54.4953 H   0  0  0  0  0  0  0  0  0  0  0  0
   27.6153    9.4019   56.7862 C   0  0  0  0  0  0  0  0  0  0  0  0
   27.9920    9.2967   58.2083 N   0  0  0  0  0  0  0  0  0  0  0  0
   28.5397   10.3920   58.8826 C   0  0  0  0  0  0  0  0  0  0  0  0
   28.6968   11.4684   58.2034 O   0  0  0  0  0  0  0  0  0  0  0  0
   27.8486    8.3982   58.7023 H   0  0  0  0  0  0  0  0  0  0  0  0
   28.9497   10.4586   60.2781 C   0  0  0  0  0  0  0  0  0  0  0  0
   30.0243   11.4730   60.3835 N   0  0  0  0  0  0  0  0  0  0  0  0
   30.9508   11.5017   61.4469 C   0  0  0  0  0  0  0  0  0  0  0  0
   30.9482   10.6822   62.3950 O   0  0  0  0  0  0  0  0  0  0  0  0
   30.0730   12.1754   59.6232 H   0  0  0  0  0  0  0  0  0  0  0  0
   31.9953   12.5613   61.4488 C   0  0  0  0  0  0  0  0  0  0  0  0
   31.4546   13.8345   61.5027 O   0  0  0  0  0  0  0  0  0  0  0  0
   31.4298   14.1625   62.4361 H   0  0  0  0  0  0  0  0  0  0  0  0
   27.8695   10.8075   61.2615 C   0  0  0  0  0  0  0  0  0  0  0  0
   27.2172   11.9825   61.0553 O   0  0  0  0  0  0  0  0  0  0  0  0
   27.4503   13.0028   61.9360 C   0  0  0  0  0  0  0  0  0  0  0  0
   28.0721   14.2149   61.3424 C   0  0  0  0  0  0  0  0  0  0  0  0
   28.5444   14.1004   60.0297 C   0  0  0  0  0  0  0  0  0  0  0  0
   29.1092   15.2109   59.4437 C   0  0  0  0  0  0  0  0  0  0  0  0
   29.2165   16.4091   60.1101 C   0  0  0  0  0  0  0  0  0  0  0  0
   28.7460   16.5082   61.4079 C   0  0  0  0  0  0  0  0  0  0  0  0
   28.1843   15.3993   61.9883 C   0  0  0  0  0  0  0  0  0  0  0  0
   28.5219    8.7002   55.8707 C   0  0  0  0  0  0  0  0  0  0  0  0
   28.5609    9.2007   54.4474 C   0  0  0  0  0  0  0  0  0  0  0  0
   27.7678    8.2944   53.5788 C   0  0  0  0  0  0  0  0  0  0  0  0
   27.2060    8.7575   52.3692 O   0  0  0  0  0  0  0  0  0  0  0  0
   27.5725    7.0970   53.8756 O   0  0  0  0  0  0  0  0  0  0  0  0
   27.7413    8.6999   51.5037 H   0  0  0  0  0  0  0  0  0  0  0  0
   23.3162    9.8474   55.5852 C   0  0  0  0  0  0  0  0  0  0  0  0
   21.4425   11.1536   54.5045 C   0  0  0  0  0  0  0  0  0  0  0  0
   21.9128    9.8336   54.9857 C   0  0  0  0  0  0  0  0  0  0  0  0
   20.9298    9.2621   55.9725 C   0  0  0  0  0  0  0  0  0  0  0  0
 63 64  1  0  0  0
 64 65  1  0  0  0
 64 62  1  0  0  0
 62  1  1  0  0  0
  1 30  1  0  0  0
 30 31  1  0  0  0
 31 32  2  0  0  0
 31 34  1  0  0  0
 34 56  1  0  0  0
 56 57  1  0  0  0
 57 58  1  0  0  0
 58 59  1  0  0  0
 58 60  2  0  0  0
 34 35  1  0  0  0
 35 36  1  0  0  0
 36 37  2  0  0  0
 36 39  1  0  0  0
 39 47  1  0  0  0
 47 48  1  0  0  0
 48 49  1  0  0  0
 49 50  1  0  0  0
 50 51  2  0  0  0
 51 52  1  0  0  0
 52 53  2  0  0  0
 53 54  1  0  0  0
 54 55  2  0  0  0
 39 40  1  0  0  0
 40 41  1  0  0  0
 41 42  2  0  0  0
 41 44  1  0  0  0
 44 45  1  0  0  0
  1  2  1  0  0  0
  2  3  2  0  0  0
  2  4  1  0  0  0
  4  5  1  0  0  0
  5  6  1  0  0  0
  6  7  1  0  0  0
  7  8  1  0  0  0
  8  9  1  0  0  0
  9 10  2  0  0  0
  9 11  1  0  0  0
 11 13  1  0  0  0
 13 19  1  0  0  0
 19 20  1  0  0  0
 20 21  1  0  0  0
 21 22  1  0  0  0
 22 24  1  0  0  0
 24 25  1  0  0  0
 24 26  2  0  0  0
 13 14  1  0  0  0
 14 15  1  0  0  0
 14 16  1  0  0  0
 55 50  1  0  0  0
  8  4  1  0  0  0
 30 33  1  0  0  0
 59 61  1  0  0  0
 35 38  1  0  0  0
 40 43  1  0  0  0
 45 46  1  0  0  0
 11 12  1  0  0  0
 22 23  1  0  0  0
 25 27  1  0  0  0
 25 28  1  0  0  0
 26 29  1  0  0  0
 15 17  1  0  0  0
 16 18  1  0  0  0
M  END
> <minimizedAffinity>
15.39371

> <CNNscore>
0.5242515206

> <CNNaffinity>
7.1651344299

> <CNN_VS>
3.7563326359

> <CNNaffinity_variance>
0.5202859640

$$$$
[H]N=C(N([H])[H])N([H])C([H])([H])C([H])([H])C([H])([H])[C@@]([H])(B(O[H])O[H])N([H])C(=O)[C@@]1([H])N(C(=O)[C@@]([H])(N([H])C(=O)[C@@]([H])(N([H])C(=O)[C@@]([H])(N([H])C(=O)C([H])([H])O[H])C([H])([H])OC([H])([H])c2c([H])c([H])c([H])c([H])c2[H])C([H])([H])C([H])([H])C(=O)O[H])C([H])([H])C([H])(C([H])([H])[H])C([H])([H])[H])C([H])([H])C([H])([H])C1([H])[H]


 65 66  0  0  0  0  0  0  0  0999 V2000
   23.8867    8.8660   55.0526 C   0  0  0  0  0  0  0  0  0  0  0  0
   23.6790    8.4752   53.6528 C   0  0  0  0  0  0  0  0  0  0  0  0
   24.7188    8.7208   52.8948 O   0  0  0  0  0  0  0  0  0  0  0  0
   22.5908    7.9001   53.0004 N   0  0  0  0  0  0  0  0  0  0  0  0
   22.7137    7.5568   51.5464 C   0  0  0  0  0  0  0  0  0  0  0  0
   21.3418    7.2875   51.0480 C   0  0  0  0  0  0  0  0  0  0  0  0
   20.4741    7.9047   52.0884 C   0  0  0  0  0  0  0  0  0  0  0  0
   21.2454    7.5287   53.3571 C   0  0  0  0  0  0  0  0  0  0  0  0
   21.0569    6.1125   53.6903 C   0  0  0  0  0  0  0  0  0  0  0  0
   21.9170    5.6131   54.4988 O   0  0  0  0  0  0  0  0  0  0  0  0
   20.0138    5.2768   53.1922 N   0  0  0  0  0  0  0  0  0  0  0  0
   19.3287    5.6919   52.5436 H   0  0  0  0  0  0  0  0  0  0  0  0
   19.8902    3.8960   53.5610 C   0  0  0  0  0  0  0  0  0  0  0  0
   20.1151    2.9223   52.3335 B   0  0  0  0  0  0  0  0  0  0  0  0
   20.9948    1.7752   52.5037 O   0  0  0  0  0  0  0  0  0  0  0  0
   19.0636    2.8239   51.3295 O   0  0  0  0  0  0  0  0  0  0  0  0
   20.5137    1.0768   53.0302 H   0  0  0  0  0  0  0  0  0  0  0  0
   18.1974    2.5708   51.6867 H   0  0  0  0  0  0  0  0  0  0  0  0
   18.6066    3.5646   54.2857 C   0  0  0  0  0  0  0  0  0  0  0  0
   17.5866    4.6682   54.2613 C   0  0  0  0  0  0  0  0  0  0  0  0
   16.4559    4.2157   55.1910 C   0  0  0  0  0  0  0  0  0  0  0  0
   15.1728    4.3015   54.5580 N   0  0  0  0  0  0  0  0  0  0  0  0
   14.4244    4.8463   54.9984 H   0  0  0  0  0  0  0  0  0  0  0  0
   14.9276    3.6442   53.3296 C   0  0  0  0  0  0  0  0  0  0  0  0
   15.6298    2.4291   53.0623 N   0  0  0  0  0  0  0  0  0  0  0  0
   14.1223    4.0387   52.4124 N   0  0  0  0  0  0  0  0  0  0  0  0
   16.5763    2.4069   52.6437 H   0  0  0  0  0  0  0  0  0  0  0  0
   15.1355    1.5512   53.3121 H   0  0  0  0  0  0  0  0  0  0  0  0
   13.5453    4.8892   52.4477 H   0  0  0  0  0  0  0  0  0  0  0  0
   25.3149    9.1129   55.2546 N   0  0  0  0  0  0  0  0  0  0  0  0
   25.9084    9.3474   56.5084 C   0  0  0  0  0  0  0  0  0  0  0  0
   25.1863    9.3447   57.5189 O   0  0  0  0  0  0  0  0  0  0  0  0
   25.9422    9.1189   54.4170 H   0  0  0  0  0  0  0  0  0  0  0  0
   27.3616    9.5942   56.6654 C   0  0  0  0  0  0  0  0  0  0  0  0
   27.9376    8.7727   57.7464 N   0  0  0  0  0  0  0  0  0  0  0  0
   28.6472    9.3691   58.7929 C   0  0  0  0  0  0  0  0  0  0  0  0
   28.7696   10.6451   58.7539 O   0  0  0  0  0  0  0  0  0  0  0  0
   27.8125    7.7452   57.7195 H   0  0  0  0  0  0  0  0  0  0  0  0
   29.2630    8.7087   59.9352 C   0  0  0  0  0  0  0  0  0  0  0  0
   29.3702    9.7047   61.0268 N   0  0  0  0  0  0  0  0  0  0  0  0
   30.5612   10.4044   61.3128 C   0  0  0  0  0  0  0  0  0  0  0  0
   31.6307   10.2466   60.6789 O   0  0  0  0  0  0  0  0  0  0  0  0
   28.5125    9.8752   61.5827 H   0  0  0  0  0  0  0  0  0  0  0  0
   30.5545   11.3894   62.4279 C   0  0  0  0  0  0  0  0  0  0  0  0
   29.6001   12.3767   62.2535 O   0  0  0  0  0  0  0  0  0  0  0  0
   28.7698   12.1477   62.7408 H   0  0  0  0  0  0  0  0  0  0  0  0
   28.5392    7.5029   60.4622 C   0  0  0  0  0  0  0  0  0  0  0  0
   29.3053    6.5385   61.0380 O   0  0  0  0  0  0  0  0  0  0  0  0
   28.8850    6.0204   62.2321 C   0  0  0  0  0  0  0  0  0  0  0  0
   28.1673    4.7228   62.1358 C   0  0  0  0  0  0  0  0  0  0  0  0
   28.9008    3.5736   62.4528 C   0  0  0  0  0  0  0  0  0  0  0  0
   28.2598    2.3567   62.3918 C   0  0  0  0  0  0  0  0  0  0  0  0
   26.9367    2.2494   62.0321 C   0  0  0  0  0  0  0  0  0  0  0  0
   26.2234    3.3937   61.7204 C   0  0  0  0  0  0  0  0  0  0  0  0
   26.8659    4.6042   61.7822 C   0  0  0  0  0  0  0  0  0  0  0  0
   28.1667    9.6246   55.4394 C   0  0  0  0  0  0  0  0  0  0  0  0
   28.9884    8.3937   55.1432 C   0  0  0  0  0  0  0  0  0  0  0  0
   28.3303    7.6009   54.0740 C   0  0  0  0  0  0  0  0  0  0  0  0
   28.9145    6.4100   53.5906 O   0  0  0  0  0  0  0  0  0  0  0  0
   27.2421    7.9473   53.5682 O   0  0  0  0  0  0  0  0  0  0  0  0
   28.6941    5.5183   54.0326 H   0  0  0  0  0  0  0  0  0  0  0  0
   23.0241    9.8856   55.6518 C   0  0  0  0  0  0  0  0  0  0  0  0
   21.0574   11.3159   54.9654 C   0  0  0  0  0  0  0  0  0  0  0  0
   21.6432    9.9557   55.0057 C   0  0  0  0  0  0  0  0  0  0  0  0
   20.6980    9.0051   55.6910 C   0  0  0  0  0  0  0  0  0  0  0  0
 63 64  1  0  0  0
 64 65  1  0  0  0
 64 62  1  0  0  0
 62  1  1  0  0  0
  1 30  1  0  0  0
 30 31  1  0  0  0
 31 32  2  0  0  0
 31 34  1  0  0  0
 34 56  1  0  0  0
 56 57  1  0  0  0
 57 58  1  0  0  0
 58 59  1  0  0  0
 58 60  2  0  0  0
 34 35  1  0  0  0
 35 36  1  0  0  0
 36 37  2  0  0  0
 36 39  1  0  0  0
 39 47  1  0  0  0
 47 48  1  0  0  0
 48 49  1  0  0  0
 49 50  1  0  0  0
 50 51  2  0  0  0
 51 52  1  0  0  0
 52 53  2  0  0  0
 53 54  1  0  0  0
 54 55  2  0  0  0
 39 40  1  0  0  0
 40 41  1  0  0  0
 41 42  2  0  0  0
 41 44  1  0  0  0
 44 45  1  0  0  0
  1  2  1  0  0  0
  2  3  2  0  0  0
  2  4  1  0  0  0
  4  5  1  0  0  0
  5  6  1  0  0  0
  6  7  1  0  0  0
  7  8  1  0  0  0
  8  9  1  0  0  0
  9 10  2  0  0  0
  9 11  1  0  0  0
 11 13  1  0  0  0
 13 19  1  0  0  0
 19 20  1  0  0  0
 20 21  1  0  0  0
 21 22  1  0  0  0
 22 24  1  0  0  0
 24 25  1  0  0  0
 24 26  2  0  0  0
 13 14  1  0  0  0
 14 15  1  0  0  0
 14 16  1  0  0  0
 55 50  1  0  0  0
  8  4  1  0  0  0
 30 33  1  0  0  0
 59 61  1  0  0  0
 35 38  1  0  0  0
 40 43  1  0  0  0
 45 46  1  0  0  0
 11 12  1  0  0  0
 22 23  1  0  0  0
 25 27  1  0  0  0
 25 28  1  0  0  0
 26 29  1  0  0  0
 15 17  1  0  0  0
 16 18  1  0  0  0
M  END
> <minimizedAffinity>
17.67576

> <CNNscore>
0.4911227822

> <CNNaffinity>
7.0371041298

> <CNN_VS>
3.4560821056

> <CNNaffinity_variance>
0.7241409421

$$$$
[H]N=C(N([H])[H])N([H])C([H])([H])C([H])([H])C([H])([H])[C@@]([H])(B(O[H])O[H])N([H])C(=O)[C@@]1([H])N(C(=O)[C@@]([H])(N([H])C(=O)[C@@]([H])(N([H])C(=O)[C@@]([H])(N([H])C(=O)C([H])([H])O[H])C([H])([H])OC([H])([H])c2c([H])c([H])c([H])c([H])c2[H])C([H])([H])C([H])([H])C(=O)O[H])C([H])([H])C([H])(C([H])([H])[H])C([H])([H])[H])C([H])([H])C([H])([H])C1([H])[H]


 65 66  0  0  0  0  0  0  0  0999 V2000
   24.9717    7.5487   54.5253 C   0  0  0  0  0  0  0  0  0  0  0  0
   24.2732    8.4347   53.5860 C   0  0  0  0  0  0  0  0  0  0  0  0
   24.9219    8.5974   52.4596 O   0  0  0  0  0  0  0  0  0  0  0  0
   23.0645    9.1207   53.6798 N   0  0  0  0  0  0  0  0  0  0  0  0
   22.5837    9.9106   52.4999 C   0  0  0  0  0  0  0  0  0  0  0  0
   21.4841   10.7830   52.9824 C   0  0  0  0  0  0  0  0  0  0  0  0
   21.6744   10.7859   54.4588 C   0  0  0  0  0  0  0  0  0  0  0  0
   22.0629    9.3232   54.6951 C   0  0  0  0  0  0  0  0  0  0  0  0
   20.8926    8.4435   54.6012 C   0  0  0  0  0  0  0  0  0  0  0  0
   19.9597    8.6680   55.4509 O   0  0  0  0  0  0  0  0  0  0  0  0
   20.7252    7.3867   53.6580 N   0  0  0  0  0  0  0  0  0  0  0  0
   21.4831    7.2181   52.9800 H   0  0  0  0  0  0  0  0  0  0  0  0
   19.5511    6.5632   53.6239 C   0  0  0  0  0  0  0  0  0  0  0  0
   19.8887    5.0452   53.3280 B   0  0  0  0  0  0  0  0  0  0  0  0
   21.2809    4.6213   53.3537 O   0  0  0  0  0  0  0  0  0  0  0  0
   18.8719    4.0429   53.6200 O   0  0  0  0  0  0  0  0  0  0  0  0
   21.5778    4.5511   54.3041 H   0  0  0  0  0  0  0  0  0  0  0  0
   18.5619    4.0496   54.5397 H   0  0  0  0  0  0  0  0  0  0  0  0
   18.4716    7.0678   52.6951 C   0  0  0  0  0  0  0  0  0  0  0  0
   17.1296    7.2372   53.3501 C   0  0  0  0  0  0  0  0  0  0  0  0
   16.9643    6.0353   54.2860 C   0  0  0  0  0  0  0  0  0  0  0  0
   15.8654    5.2003   53.8994 N   0  0  0  0  0  0  0  0  0  0  0  0
   15.0287    5.6218   53.4832 H   0  0  0  0  0  0  0  0  0  0  0  0
   15.9230    3.7988   54.0835 C   0  0  0  0  0  0  0  0  0  0  0  0
   16.3959    3.3015   55.3364 N   0  0  0  0  0  0  0  0  0  0  0  0
   15.5874    2.9118   53.2197 N   0  0  0  0  0  0  0  0  0  0  0  0
   17.4004    3.1580   55.5416 H   0  0  0  0  0  0  0  0  0  0  0  0
   15.6696    3.0854   56.0459 H   0  0  0  0  0  0  0  0  0  0  0  0
   15.2305    3.1019   52.2742 H   0  0  0  0  0  0  0  0  0  0  0  0
   26.1998    8.2150   54.9601 N   0  0  0  0  0  0  0  0  0  0  0  0
   26.2659    9.1445   56.0142 C   0  0  0  0  0  0  0  0  0  0  0  0
   25.2225    9.4254   56.6267 O   0  0  0  0  0  0  0  0  0  0  0  0
   27.0909    7.9927   54.4586 H   0  0  0  0  0  0  0  0  0  0  0  0
   27.5339    9.7963   56.4199 C   0  0  0  0  0  0  0  0  0  0  0  0
   28.1264    9.1418   57.6013 N   0  0  0  0  0  0  0  0  0  0  0  0
   28.7207    9.9017   58.6130 C   0  0  0  0  0  0  0  0  0  0  0  0
   28.7249   11.1741   58.4526 O   0  0  0  0  0  0  0  0  0  0  0  0
   28.0999    8.1091   57.6714 H   0  0  0  0  0  0  0  0  0  0  0  0
   29.3345    9.4166   59.8411 C   0  0  0  0  0  0  0  0  0  0  0  0
   29.7308   10.5975   60.6431 N   0  0  0  0  0  0  0  0  0  0  0  0
   28.8499   11.2554   61.5269 C   0  0  0  0  0  0  0  0  0  0  0  0
   27.6599   10.9082   61.7106 O   0  0  0  0  0  0  0  0  0  0  0  0
   30.7070   10.9263   60.5304 H   0  0  0  0  0  0  0  0  0  0  0  0
   29.3560   12.4282   62.2899 C   0  0  0  0  0  0  0  0  0  0  0  0
   29.3491   13.5898   61.5371 O   0  0  0  0  0  0  0  0  0  0  0  0
   28.5248   14.1101   61.7080 H   0  0  0  0  0  0  0  0  0  0  0  0
   28.4755    8.5290   60.6954 C   0  0  0  0  0  0  0  0  0  0  0  0
   29.1059    7.8482   61.6893 O   0  0  0  0  0  0  0  0  0  0  0  0
   29.6300    6.6214   61.3871 C   0  0  0  0  0  0  0  0  0  0  0  0
   28.6606    5.4960   61.4325 C   0  0  0  0  0  0  0  0  0  0  0  0
   27.7928    5.3694   60.3416 C   0  0  0  0  0  0  0  0  0  0  0  0
   26.8948    4.3257   60.3439 C   0  0  0  0  0  0  0  0  0  0  0  0
   26.8346    3.4211   61.3780 C   0  0  0  0  0  0  0  0  0  0  0  0
   27.6981    3.5584   62.4508 C   0  0  0  0  0  0  0  0  0  0  0  0
   28.5910    4.5998   62.4448 C   0  0  0  0  0  0  0  0  0  0  0  0
   28.4961   10.0988   55.3545 C   0  0  0  0  0  0  0  0  0  0  0  0
   28.3921    9.2688   54.0982 C   0  0  0  0  0  0  0  0  0  0  0  0
   29.0957    7.9762   54.2956 C   0  0  0  0  0  0  0  0  0  0  0  0
   28.5339    6.7669   53.8319 O   0  0  0  0  0  0  0  0  0  0  0  0
   30.2038    7.9068   54.8676 O   0  0  0  0  0  0  0  0  0  0  0  0
   28.7366    6.4395   52.8881 H   0  0  0  0  0  0  0  0  0  0  0  0
   24.2244    6.9236   55.6179 C   0  0  0  0  0  0  0  0  0  0  0  0
   23.0450    4.7328   56.0586 C   0  0  0  0  0  0  0  0  0  0  0  0
   23.2225    5.8781   55.1358 C   0  0  0  0  0  0  0  0  0  0  0  0
   23.6030    5.3844   53.7653 C   0  0  0  0  0  0  0  0  0  0  0  0
 63 64  1  0  0  0
 64 65  1  0  0  0
 64 62  1  0  0  0
 62  1  1  0  0  0
  1 30  1  0  0  0
 30 31  1  0  0  0
 31 32  2  0  0  0
 31 34  1  0  0  0
 34 56  1  0  0  0
 56 57  1  0  0  0
 57 58  1  0  0  0
 58 59  1  0  0  0
 58 60  2  0  0  0
 34 35  1  0  0  0
 35 36  1  0  0  0
 36 37  2  0  0  0
 36 39  1  0  0  0
 39 47  1  0  0  0
 47 48  1  0  0  0
 48 49  1  0  0  0
 49 50  1  0  0  0
 50 51  2  0  0  0
 51 52  1  0  0  0
 52 53  2  0  0  0
 53 54  1  0  0  0
 54 55  2  0  0  0
 39 40  1  0  0  0
 40 41  1  0  0  0
 41 42  2  0  0  0
 41 44  1  0  0  0
 44 45  1  0  0  0
  1  2  1  0  0  0
  2  3  2  0  0  0
  2  4  1  0  0  0
  4  5  1  0  0  0
  5  6  1  0  0  0
  6  7  1  0  0  0
  7  8  1  0  0  0
  8  9  1  0  0  0
  9 10  2  0  0  0
  9 11  1  0  0  0
 11 13  1  0  0  0
 13 19  1  0  0  0
 19 20  1  0  0  0
 20 21  1  0  0  0
 21 22  1  0  0  0
 22 24  1  0  0  0
 24 25  1  0  0  0
 24 26  2  0  0  0
 13 14  1  0  0  0
 14 15  1  0  0  0
 14 16  1  0  0  0
 55 50  1  0  0  0
  8  4  1  0  0  0
 30 33  1  0  0  0
 59 61  1  0  0  0
 35 38  1  0  0  0
 40 43  1  0  0  0
 45 46  1  0  0  0
 11 12  1  0  0  0
 22 23  1  0  0  0
 25 27  1  0  0  0
 25 28  1  0  0  0
 26 29  1  0  0  0
 15 17  1  0  0  0
 16 18  1  0  0  0
M  END
> <minimizedAffinity>
20.02850

> <CNNscore>
0.4910071492

> <CNNaffinity>
7.0003128052

> <CNN_VS>
3.4372036457

> <CNNaffinity_variance>
0.8234885931

$$$$
[H]N=C(N([H])[H])N([H])C([H])([H])C([H])([H])C([H])([H])[C@@]([H])(B(O[H])O[H])N([H])C(=O)[C@@]1([H])N(C(=O)[C@@]([H])(N([H])C(=O)[C@@]([H])(N([H])C(=O)[C@@]([H])(N([H])C(=O)C([H])([H])O[H])C([H])([H])OC([H])([H])c2c([H])c([H])c([H])c([H])c2[H])C([H])([H])C([H])([H])C(=O)O[H])C([H])([H])C([H])(C([H])([H])[H])C([H])([H])[H])C([H])([H])C([H])([H])C1([H])[H]


 65 66  0  0  0  0  0  0  0  0999 V2000
   23.8936    8.6943   55.0581 C   0  0  0  0  0  0  0  0  0  0  0  0
   23.5970    8.3031   53.6746 C   0  0  0  0  0  0  0  0  0  0  0  0
   24.6161    8.4677   52.8681 O   0  0  0  0  0  0  0  0  0  0  0  0
   22.4438    7.7972   53.0790 N   0  0  0  0  0  0  0  0  0  0  0  0
   22.4775    7.4299   51.6260 C   0  0  0  0  0  0  0  0  0  0  0  0
   21.0693    7.2504   51.1924 C   0  0  0  0  0  0  0  0  0  0  0  0
   20.2936    7.9378   52.2610 C   0  0  0  0  0  0  0  0  0  0  0  0
   21.0935    7.5237   53.4999 C   0  0  0  0  0  0  0  0  0  0  0  0
   20.8235    6.1278   53.8613 C   0  0  0  0  0  0  0  0  0  0  0  0
   21.7366    5.5451   54.5466 O   0  0  0  0  0  0  0  0  0  0  0  0
   19.6502    5.3949   53.5138 N   0  0  0  0  0  0  0  0  0  0  0  0
   18.9238    5.8763   52.9632 H   0  0  0  0  0  0  0  0  0  0  0  0
   19.4524    4.0280   53.9015 C   0  0  0  0  0  0  0  0  0  0  0  0
   19.3568    3.0563   52.6555 B   0  0  0  0  0  0  0  0  0  0  0  0
   18.1357    2.2886   52.4604 O   0  0  0  0  0  0  0  0  0  0  0  0
   20.1558    3.3656   51.4767 O   0  0  0  0  0  0  0  0  0  0  0  0
   17.4289    2.8951   52.1014 H   0  0  0  0  0  0  0  0  0  0  0  0
   19.9949    4.2497   51.1101 H   0  0  0  0  0  0  0  0  0  0  0  0
   18.2891    3.8168   54.8421 C   0  0  0  0  0  0  0  0  0  0  0  0
   16.9418    3.9898   54.1990 C   0  0  0  0  0  0  0  0  0  0  0  0
   15.9209    3.9297   55.3399 C   0  0  0  0  0  0  0  0  0  0  0  0
   16.5403    3.6462   56.6010 N   0  0  0  0  0  0  0  0  0  0  0  0
   17.5625    3.6083   56.6679 H   0  0  0  0  0  0  0  0  0  0  0  0
   15.7562    3.4202   57.7566 C   0  0  0  0  0  0  0  0  0  0  0  0
   15.5494    4.5107   58.6559 N   0  0  0  0  0  0  0  0  0  0  0  0
   15.2020    2.3109   58.0851 N   0  0  0  0  0  0  0  0  0  0  0  0
   16.2153    4.7507   59.4115 H   0  0  0  0  0  0  0  0  0  0  0  0
   14.6816    5.0622   58.5137 H   0  0  0  0  0  0  0  0  0  0  0  0
   15.2542    1.4342   57.5501 H   0  0  0  0  0  0  0  0  0  0  0  0
   25.2832    9.1487   55.1202 N   0  0  0  0  0  0  0  0  0  0  0  0
   26.0071    9.3223   56.3140 C   0  0  0  0  0  0  0  0  0  0  0  0
   25.4441    9.0746   57.3931 O   0  0  0  0  0  0  0  0  0  0  0  0
   25.7774    9.3625   54.2229 H   0  0  0  0  0  0  0  0  0  0  0  0
   27.4149    9.7863   56.3289 C   0  0  0  0  0  0  0  0  0  0  0  0
   28.1011    9.3971   57.5751 N   0  0  0  0  0  0  0  0  0  0  0  0
   28.6485   10.3676   58.4193 C   0  0  0  0  0  0  0  0  0  0  0  0
   28.5259   11.5896   58.0501 O   0  0  0  0  0  0  0  0  0  0  0  0
   28.1758    8.3931   57.8166 H   0  0  0  0  0  0  0  0  0  0  0  0
   29.3410   10.1544   59.6823 C   0  0  0  0  0  0  0  0  0  0  0  0
   29.5512   11.4800   60.3097 N   0  0  0  0  0  0  0  0  0  0  0  0
   30.7643   11.8542   60.9246 C   0  0  0  0  0  0  0  0  0  0  0  0
   31.7663   11.1053   61.0008 O   0  0  0  0  0  0  0  0  0  0  0  0
   28.7533   12.1402   60.2734 H   0  0  0  0  0  0  0  0  0  0  0  0
   30.8688   13.2151   61.5169 C   0  0  0  0  0  0  0  0  0  0  0  0
   30.1141   14.1491   60.8282 O   0  0  0  0  0  0  0  0  0  0  0  0
   29.2306   14.2675   61.2581 H   0  0  0  0  0  0  0  0  0  0  0  0
   28.6402    9.2671   60.6710 C   0  0  0  0  0  0  0  0  0  0  0  0
   29.4220    8.6625   61.6048 O   0  0  0  0  0  0  0  0  0  0  0  0
   30.0321    7.4878   61.2601 C   0  0  0  0  0  0  0  0  0  0  0  0
   29.1562    6.2883   61.3060 C   0  0  0  0  0  0  0  0  0  0  0  0
   28.6701    5.8176   60.0807 C   0  0  0  0  0  0  0  0  0  0  0  0
   27.8709    4.6965   60.0867 C   0  0  0  0  0  0  0  0  0  0  0  0
   27.5465    4.0414   61.2516 C   0  0  0  0  0  0  0  0  0  0  0  0
   28.0334    4.5179   62.4562 C   0  0  0  0  0  0  0  0  0  0  0  0
   28.8291    5.6354   62.4459 C   0  0  0  0  0  0  0  0  0  0  0  0
   28.2026    9.5583   55.1124 C   0  0  0  0  0  0  0  0  0  0  0  0
   28.9383    8.2435   55.0237 C   0  0  0  0  0  0  0  0  0  0  0  0
   28.2435    7.3477   54.0648 C   0  0  0  0  0  0  0  0  0  0  0  0
   28.9249    6.2739   53.4516 O   0  0  0  0  0  0  0  0  0  0  0  0
   27.0397    7.5012   53.7692 O   0  0  0  0  0  0  0  0  0  0  0  0
   28.9412    5.3584   53.8994 H   0  0  0  0  0  0  0  0  0  0  0  0
   22.9596    9.5616   55.7779 C   0  0  0  0  0  0  0  0  0  0  0  0
   21.9649   11.0536   53.9975 C   0  0  0  0  0  0  0  0  0  0  0  0
   21.7357    9.9411   54.9487 C   0  0  0  0  0  0  0  0  0  0  0  0
   20.5739   10.2625   55.8508 C   0  0  0  0  0  0  0  0  0  0  0  0
 63 64  1  0  0  0
 64 65  1  0  0  0
 64 62  1  0  0  0
 62  1  1  0  0  0
  1 30  1  0  0  0
 30 31  1  0  0  0
 31 32  2  0  0  0
 31 34  1  0  0  0
 34 56  1  0  0  0
 56 57  1  0  0  0
 57 58  1  0  0  0
 58 59  1  0  0  0
 58 60  2  0  0  0
 34 35  1  0  0  0
 35 36  1  0  0  0
 36 37  2  0  0  0
 36 39  1  0  0  0
 39 47  1  0  0  0
 47 48  1  0  0  0
 48 49  1  0  0  0
 49 50  1  0  0  0
 50 51  2  0  0  0
 51 52  1  0  0  0
 52 53  2  0  0  0
 53 54  1  0  0  0
 54 55  2  0  0  0
 39 40  1  0  0  0
 40 41  1  0  0  0
 41 42  2  0  0  0
 41 44  1  0  0  0
 44 45  1  0  0  0
  1  2  1  0  0  0
  2  3  2  0  0  0
  2  4  1  0  0  0
  4  5  1  0  0  0
  5  6  1  0  0  0
  6  7  1  0  0  0
  7  8  1  0  0  0
  8  9  1  0  0  0
  9 10  2  0  0  0
  9 11  1  0  0  0
 11 13  1  0  0  0
 13 19  1  0  0  0
 19 20  1  0  0  0
 20 21  1  0  0  0
 21 22  1  0  0  0
 22 24  1  0  0  0
 24 25  1  0  0  0
 24 26  2  0  0  0
 13 14  1  0  0  0
 14 15  1  0  0  0
 14 16  1  0  0  0
 55 50  1  0  0  0
  8  4  1  0  0  0
 30 33  1  0  0  0
 59 61  1  0  0  0
 35 38  1  0  0  0
 40 43  1  0  0  0
 45 46  1  0  0  0
 11 12  1  0  0  0
 22 23  1  0  0  0
 25 27  1  0  0  0
 25 28  1  0  0  0
 26 29  1  0  0  0
 15 17  1  0  0  0
 16 18  1  0  0  0
M  END
> <minimizedAffinity>
18.10180

> <CNNscore>
0.4838901162

> <CNNaffinity>
7.0159392357

> <CNN_VS>
3.3949437141

> <CNNaffinity_variance>
0.5705670118

$$$$
[H]N=C(N([H])[H])N([H])C([H])([H])C([H])([H])C([H])([H])[C@@]([H])(B(O[H])O[H])N([H])C(=O)[C@@]1([H])N(C(=O)[C@@]([H])(N([H])C(=O)[C@@]([H])(N([H])C(=O)[C@@]([H])(N([H])C(=O)C([H])([H])O[H])C([H])([H])OC([H])([H])c2c([H])c([H])c([H])c([H])c2[H])C([H])([H])C([H])([H])C(=O)O[H])C([H])([H])C([H])(C([H])([H])[H])C([H])([H])[H])C([H])([H])C([H])([H])C1([H])[H]


 65 66  0  0  0  0  0  0  0  0999 V2000
   24.6272    8.3551   54.5698 C   0  0  0  0  0  0  0  0  0  0  0  0
   23.6143    9.1222   55.3051 C   0  0  0  0  0  0  0  0  0  0  0  0
   23.9507    9.3490   56.5507 O   0  0  0  0  0  0  0  0  0  0  0  0
   22.3807    9.6416   54.9190 N   0  0  0  0  0  0  0  0  0  0  0  0
   21.5916   10.4494   55.9049 C   0  0  0  0  0  0  0  0  0  0  0  0
   20.2181   10.5788   55.3573 C   0  0  0  0  0  0  0  0  0  0  0  0
   20.1557    9.4983   54.3351 C   0  0  0  0  0  0  0  0  0  0  0  0
   21.5614    9.5974   53.7349 C   0  0  0  0  0  0  0  0  0  0  0  0
   21.6783   10.7628   52.8517 C   0  0  0  0  0  0  0  0  0  0  0  0
   21.7489   10.5047   51.5983 O   0  0  0  0  0  0  0  0  0  0  0  0
   21.7176   12.1235   53.2777 N   0  0  0  0  0  0  0  0  0  0  0  0
   21.6590   12.3164   54.2885 H   0  0  0  0  0  0  0  0  0  0  0  0
   21.8342   13.2165   52.3559 C   0  0  0  0  0  0  0  0  0  0  0  0
   20.5514   14.1438   52.3559 B   0  0  0  0  0  0  0  0  0  0  0  0
   20.0000   14.5735   51.0791 O   0  0  0  0  0  0  0  0  0  0  0  0
   19.6418   14.0630   53.4915 O   0  0  0  0  0  0  0  0  0  0  0  0
   19.5057   13.8093   50.6693 H   0  0  0  0  0  0  0  0  0  0  0  0
   19.2986   13.1711   53.6613 H   0  0  0  0  0  0  0  0  0  0  0  0
   22.2004   12.8003   50.9503 C   0  0  0  0  0  0  0  0  0  0  0  0
   22.8956   13.8701   50.1560 C   0  0  0  0  0  0  0  0  0  0  0  0
   23.8690   13.1376   49.2267 C   0  0  0  0  0  0  0  0  0  0  0  0
   25.2176   13.5932   49.3941 N   0  0  0  0  0  0  0  0  0  0  0  0
   25.7284   13.3642   50.2529 H   0  0  0  0  0  0  0  0  0  0  0  0
   25.8537   14.3543   48.3854 C   0  0  0  0  0  0  0  0  0  0  0  0
   26.9416   13.7594   47.6759 N   0  0  0  0  0  0  0  0  0  0  0  0
   25.5458   15.5501   48.0378 N   0  0  0  0  0  0  0  0  0  0  0  0
   27.9183   13.7867   48.0182 H   0  0  0  0  0  0  0  0  0  0  0  0
   26.7019   13.2895   46.7820 H   0  0  0  0  0  0  0  0  0  0  0  0
   24.7925   16.1175   48.4480 H   0  0  0  0  0  0  0  0  0  0  0  0
   25.9342    8.9665   54.8132 N   0  0  0  0  0  0  0  0  0  0  0  0
   26.4858    9.1739   56.0907 C   0  0  0  0  0  0  0  0  0  0  0  0
   25.8340    8.8172   57.0859 O   0  0  0  0  0  0  0  0  0  0  0  0
   26.5010    9.2739   53.9890 H   0  0  0  0  0  0  0  0  0  0  0  0
   27.8152    9.7990   56.2897 C   0  0  0  0  0  0  0  0  0  0  0  0
   27.9266   10.4244   57.6208 N   0  0  0  0  0  0  0  0  0  0  0  0
   28.5487    9.7490   58.6749 C   0  0  0  0  0  0  0  0  0  0  0  0
   29.0016    8.5761   58.4218 O   0  0  0  0  0  0  0  0  0  0  0  0
   27.5344   11.3714   57.7669 H   0  0  0  0  0  0  0  0  0  0  0  0
   28.7517   10.2258   60.0356 C   0  0  0  0  0  0  0  0  0  0  0  0
   30.1327    9.8690   60.4362 N   0  0  0  0  0  0  0  0  0  0  0  0
   30.4277    8.7908   61.2966 C   0  0  0  0  0  0  0  0  0  0  0  0
   29.5567    8.0442   61.8012 O   0  0  0  0  0  0  0  0  0  0  0  0
   30.8931   10.4545   60.0453 H   0  0  0  0  0  0  0  0  0  0  0  0
   31.8522    8.5166   61.6269 C   0  0  0  0  0  0  0  0  0  0  0  0
   32.0031    7.3877   62.4137 O   0  0  0  0  0  0  0  0  0  0  0  0
   32.2081    6.5981   61.8533 H   0  0  0  0  0  0  0  0  0  0  0  0
   28.5620   11.7006   60.2471 C   0  0  0  0  0  0  0  0  0  0  0  0
   29.0926   12.2240   61.3843 O   0  0  0  0  0  0  0  0  0  0  0  0
   30.3128   12.8355   61.2944 C   0  0  0  0  0  0  0  0  0  0  0  0
   30.2650   14.2948   61.0180 C   0  0  0  0  0  0  0  0  0  0  0  0
   28.9950   14.8767   60.9298 C   0  0  0  0  0  0  0  0  0  0  0  0
   28.9161   16.2307   60.6933 C   0  0  0  0  0  0  0  0  0  0  0  0
   30.0400   17.0092   60.5448 C   0  0  0  0  0  0  0  0  0  0  0  0
   31.2896   16.4209   60.6336 C   0  0  0  0  0  0  0  0  0  0  0  0
   31.3638   15.0714   60.8691 C   0  0  0  0  0  0  0  0  0  0  0  0
   28.9868    9.0080   55.8972 C   0  0  0  0  0  0  0  0  0  0  0  0
   29.2830    8.9320   54.4193 C   0  0  0  0  0  0  0  0  0  0  0  0
   28.2354    8.1266   53.7421 C   0  0  0  0  0  0  0  0  0  0  0  0
   27.4382    8.6862   52.7201 O   0  0  0  0  0  0  0  0  0  0  0  0
   28.0229    6.9325   54.0406 O   0  0  0  0  0  0  0  0  0  0  0  0
   27.7438    8.6341   51.7491 H   0  0  0  0  0  0  0  0  0  0  0  0
   24.6352    6.8944   54.6657 C   0  0  0  0  0  0  0  0  0  0  0  0
   23.3637    7.0530   52.4878 C   0  0  0  0  0  0  0  0  0  0  0  0
   23.6902    6.2246   53.6719 C   0  0  0  0  0  0  0  0  0  0  0  0
   22.4259    5.7916   54.3653 C   0  0  0  0  0  0  0  0  0  0  0  0
 63 64  1  0  0  0
 64 65  1  0  0  0
 64 62  1  0  0  0
 62  1  1  0  0  0
  1 30  1  0  0  0
 30 31  1  0  0  0
 31 32  2  0  0  0
 31 34  1  0  0  0
 34 56  1  0  0  0
 56 57  1  0  0  0
 57 58  1  0  0  0
 58 59  1  0  0  0
 58 60  2  0  0  0
 34 35  1  0  0  0
 35 36  1  0  0  0
 36 37  2  0  0  0
 36 39  1  0  0  0
 39 47  1  0  0  0
 47 48  1  0  0  0
 48 49  1  0  0  0
 49 50  1  0  0  0
 50 51  2  0  0  0
 51 52  1  0  0  0
 52 53  2  0  0  0
 53 54  1  0  0  0
 54 55  2  0  0  0
 39 40  1  0  0  0
 40 41  1  0  0  0
 41 42  2  0  0  0
 41 44  1  0  0  0
 44 45  1  0  0  0
  1  2  1  0  0  0
  2  3  2  0  0  0
  2  4  1  0  0  0
  4  5  1  0  0  0
  5  6  1  0  0  0
  6  7  1  0  0  0
  7  8  1  0  0  0
  8  9  1  0  0  0
  9 10  2  0  0  0
  9 11  1  0  0  0
 11 13  1  0  0  0
 13 19  1  0  0  0
 19 20  1  0  0  0
 20 21  1  0  0  0
 21 22  1  0  0  0
 22 24  1  0  0  0
 24 25  1  0  0  0
 24 26  2  0  0  0
 13 14  1  0  0  0
 14 15  1  0  0  0
 14 16  1  0  0  0
 55 50  1  0  0  0
  8  4  1  0  0  0
 30 33  1  0  0  0
 59 61  1  0  0  0
 35 38  1  0  0  0
 40 43  1  0  0  0
 45 46  1  0  0  0
 11 12  1  0  0  0
 22 23  1  0  0  0
 25 27  1  0  0  0
 25 28  1  0  0  0
 26 29  1  0  0  0
 15 17  1  0  0  0
 16 18  1  0  0  0
M  END
> <minimizedAffinity>
18.68464

> <CNNscore>
0.4630059004

> <CNNaffinity>
6.9906716347

> <CNN_VS>
3.2367222309

> <CNNaffinity_variance>
1.4910230637

$$$$
[H]N=C(N([H])[H])N([H])C([H])([H])C([H])([H])C([H])([H])[C@@]([H])(B(O[H])O[H])N([H])C(=O)[C@@]1([H])N(C(=O)[C@@]([H])(N([H])C(=O)[C@@]([H])(N([H])C(=O)[C@@]([H])(N([H])C(=O)C([H])([H])O[H])C([H])([H])OC([H])([H])c2c([H])c([H])c([H])c([H])c2[H])C([H])([H])C([H])([H])C(=O)O[H])C([H])([H])C([H])(C([H])([H])[H])C([H])([H])[H])C([H])([H])C([H])([H])C1([H])[H]


 65 66  0  0  0  0  0  0  0  0999 V2000
   26.4632    9.5127   55.5334 C   0  0  0  0  0  0  0  0  0  0  0  0
   25.1763    8.9490   55.9590 C   0  0  0  0  0  0  0  0  0  0  0  0
   24.7469    9.4534   57.0892 O   0  0  0  0  0  0  0  0  0  0  0  0
   24.3466    7.9893   55.3835 N   0  0  0  0  0  0  0  0  0  0  0  0
   23.0398    7.6681   56.0442 C   0  0  0  0  0  0  0  0  0  0  0  0
   22.5404    6.4135   55.4280 C   0  0  0  0  0  0  0  0  0  0  0  0
   23.7547    5.8447   54.7812 C   0  0  0  0  0  0  0  0  0  0  0  0
   24.4065    7.1194   54.2368 C   0  0  0  0  0  0  0  0  0  0  0  0
   23.7012    7.6071   53.0465 C   0  0  0  0  0  0  0  0  0  0  0  0
   23.8887    6.9306   51.9741 O   0  0  0  0  0  0  0  0  0  0  0  0
   22.8464    8.7480   53.0003 N   0  0  0  0  0  0  0  0  0  0  0  0
   22.7041    9.2820   53.8703 H   0  0  0  0  0  0  0  0  0  0  0  0
   22.1876    9.1691   51.7976 C   0  0  0  0  0  0  0  0  0  0  0  0
   21.6844   10.6676   51.8795 B   0  0  0  0  0  0  0  0  0  0  0  0
   22.0701   11.4722   53.0295 O   0  0  0  0  0  0  0  0  0  0  0  0
   21.3914   11.3659   50.6344 O   0  0  0  0  0  0  0  0  0  0  0  0
   23.0234   11.7484   52.9231 H   0  0  0  0  0  0  0  0  0  0  0  0
   22.1343   11.3913   50.0103 H   0  0  0  0  0  0  0  0  0  0  0  0
   21.0757    8.2492   51.3500 C   0  0  0  0  0  0  0  0  0  0  0  0
   20.0418    7.9783   52.4066 C   0  0  0  0  0  0  0  0  0  0  0  0
   20.8076    7.8902   53.7308 C   0  0  0  0  0  0  0  0  0  0  0  0
   20.1756    8.6502   54.7688 N   0  0  0  0  0  0  0  0  0  0  0  0
   19.2325    8.3974   55.0812 H   0  0  0  0  0  0  0  0  0  0  0  0
   20.8400    9.7450   55.3696 C   0  0  0  0  0  0  0  0  0  0  0  0
   21.5443   10.6546   54.5227 N   0  0  0  0  0  0  0  0  0  0  0  0
   20.8751   10.0075   56.6248 N   0  0  0  0  0  0  0  0  0  0  0  0
   22.5219   10.4988   54.2196 H   0  0  0  0  0  0  0  0  0  0  0  0
   21.0191   11.4971   54.2198 H   0  0  0  0  0  0  0  0  0  0  0  0
   20.4232    9.4545   57.3648 H   0  0  0  0  0  0  0  0  0  0  0  0
   26.7627   10.6676   56.3807 N   0  0  0  0  0  0  0  0  0  0  0  0
   27.7205   10.6667   57.4112 C   0  0  0  0  0  0  0  0  0  0  0  0
   28.3638    9.6261   57.6253 O   0  0  0  0  0  0  0  0  0  0  0  0
   26.2331   11.5553   56.2174 H   0  0  0  0  0  0  0  0  0  0  0  0
   27.9900   11.8616   58.2460 C   0  0  0  0  0  0  0  0  0  0  0  0
   29.0875   11.6196   59.2012 N   0  0  0  0  0  0  0  0  0  0  0  0
   28.9484   11.9668   60.5482 C   0  0  0  0  0  0  0  0  0  0  0  0
   27.8357   12.5021   60.8945 O   0  0  0  0  0  0  0  0  0  0  0  0
   29.9663   11.1910   58.8607 H   0  0  0  0  0  0  0  0  0  0  0  0
   29.9224   11.7847   61.6151 C   0  0  0  0  0  0  0  0  0  0  0  0
   30.0868   10.3282   61.8307 N   0  0  0  0  0  0  0  0  0  0  0  0
   31.0636    9.5593   61.1639 C   0  0  0  0  0  0  0  0  0  0  0  0
   31.8726   10.0316   60.3315 O   0  0  0  0  0  0  0  0  0  0  0  0
   29.4429    9.8862   62.5118 H   0  0  0  0  0  0  0  0  0  0  0  0
   31.1457    8.1040   61.4625 C   0  0  0  0  0  0  0  0  0  0  0  0
   30.5309    7.3313   60.4924 O   0  0  0  0  0  0  0  0  0  0  0  0
   31.1939    7.0109   59.8313 H   0  0  0  0  0  0  0  0  0  0  0  0
   31.2777   12.3847   61.3730 C   0  0  0  0  0  0  0  0  0  0  0  0
   31.5167   13.5953   61.9441 O   0  0  0  0  0  0  0  0  0  0  0  0
   31.8411   14.6358   61.1177 C   0  0  0  0  0  0  0  0  0  0  0  0
   30.7121   15.5376   60.7707 C   0  0  0  0  0  0  0  0  0  0  0  0
   30.9141   16.4136   59.6978 C   0  0  0  0  0  0  0  0  0  0  0  0
   29.8808   17.2495   59.3385 C   0  0  0  0  0  0  0  0  0  0  0  0
   28.6755   17.2411   60.0007 C   0  0  0  0  0  0  0  0  0  0  0  0
   28.4894   16.3704   61.0603 C   0  0  0  0  0  0  0  0  0  0  0  0
   29.5217   15.5394   61.4152 C   0  0  0  0  0  0  0  0  0  0  0  0
   28.0701   13.1522   57.5529 C   0  0  0  0  0  0  0  0  0  0  0  0
   28.1917   13.1021   56.0494 C   0  0  0  0  0  0  0  0  0  0  0  0
   28.5950   14.4363   55.5376 C   0  0  0  0  0  0  0  0  0  0  0  0
   28.9153   15.4867   56.4249 O   0  0  0  0  0  0  0  0  0  0  0  0
   28.6730   14.6800   54.3150 O   0  0  0  0  0  0  0  0  0  0  0  0
   29.8744   15.6055   56.7490 H   0  0  0  0  0  0  0  0  0  0  0  0
   27.6073    8.6229   55.3280 C   0  0  0  0  0  0  0  0  0  0  0  0
   26.9153    8.9442   52.9190 C   0  0  0  0  0  0  0  0  0  0  0  0
   27.9110    8.3699   53.8538 C   0  0  0  0  0  0  0  0  0  0  0  0
   28.0687    6.8944   53.5998 C   0  0  0  0  0  0  0  0  0  0  0  0
 63 64  1  0  0  0
 64 65  1  0  0  0
 64 62  1  0  0  0
 62  1  1  0  0  0
  1 30  1  0  0  0
 30 31  1  0  0  0
 31 32  2  0  0  0
 31 34  1  0  0  0
 34 56  1  0  0  0
 56 57  1  0  0  0
 57 58  1  0  0  0
 58 59  1  0  0  0
 58 60  2  0  0  0
 34 35  1  0  0  0
 35 36  1  0  0  0
 36 37  2  0  0  0
 36 39  1  0  0  0
 39 47  1  0  0  0
 47 48  1  0  0  0
 48 49  1  0  0  0
 49 50  1  0  0  0
 50 51  2  0  0  0
 51 52  1  0  0  0
 52 53  2  0  0  0
 53 54  1  0  0  0
 54 55  2  0  0  0
 39 40  1  0  0  0
 40 41  1  0  0  0
 41 42  2  0  0  0
 41 44  1  0  0  0
 44 45  1  0  0  0
  1  2  1  0  0  0
  2  3  2  0  0  0
  2  4  1  0  0  0
  4  5  1  0  0  0
  5  6  1  0  0  0
  6  7  1  0  0  0
  7  8  1  0  0  0
  8  9  1  0  0  0
  9 10  2  0  0  0
  9 11  1  0  0  0
 11 13  1  0  0  0
 13 19  1  0  0  0
 19 20  1  0  0  0
 20 21  1  0  0  0
 21 22  1  0  0  0
 22 24  1  0  0  0
 24 25  1  0  0  0
 24 26  2  0  0  0
 13 14  1  0  0  0
 14 15  1  0  0  0
 14 16  1  0  0  0
 55 50  1  0  0  0
  8  4  1  0  0  0
 30 33  1  0  0  0
 59 61  1  0  0  0
 35 38  1  0  0  0
 40 43  1  0  0  0
 45 46  1  0  0  0
 11 12  1  0  0  0
 22 23  1  0  0  0
 25 27  1  0  0  0
 25 28  1  0  0  0
 26 29  1  0  0  0
 15 17  1  0  0  0
 16 18  1  0  0  0
M  END
> <minimizedAffinity>
15.81657

> <CNNscore>
0.4485316575

> <CNNaffinity>
6.9584593773

> <CNN_VS>
3.1210892200

> <CNNaffinity_variance>
1.5283927917

$$$$
[H]c1c([H])c([H])c2c(c1[H])c1c3c(c4c5c([H])c([H])c([H])c([H])c5n5c4c1n2[C@@]1([H])O[C@@]5(C([H])([H])[H])[C@]([H])(OC([H])([H])[H])[C@@]([H])(N([H])C([H])([H])[H])C1([H])[H])C([H])([H])N([H])C3=O


 37 44  0  0  0  0  0  0  0  0999 V2000
   27.3726   10.5858   57.5950 C   0  0  0  0  0  0  0  0  0  0  0  0
   25.9186   11.0456   57.2474 C   0  0  0  0  0  0  0  0  0  0  0  0
   25.5822   10.1706   56.2438 C   0  0  0  0  0  0  0  0  0  0  0  0
   26.5088   10.4136   55.2396 O   0  0  0  0  0  0  0  0  0  0  0  0
   27.4778    9.3826   55.3527 C   0  0  0  0  0  0  0  0  0  0  0  0
   28.6139    9.9607   54.4452 C   0  0  0  0  0  0  0  0  0  0  0  0
   27.8469    9.3880   56.7489 C   0  0  0  0  0  0  0  0  0  0  0  0
   26.9023    8.2378   54.6795 N   0  0  0  0  0  0  0  0  0  0  0  0
   27.5906    7.2514   54.0440 C   0  0  0  0  0  0  0  0  0  0  0  0
   28.9264    6.9531   53.9645 C   0  0  0  0  0  0  0  0  0  0  0  0
   29.3789    5.8654   53.2460 C   0  0  0  0  0  0  0  0  0  0  0  0
   28.4947    5.0234   52.5706 C   0  0  0  0  0  0  0  0  0  0  0  0
   27.1458    5.3048   52.6380 C   0  0  0  0  0  0  0  0  0  0  0  0
   26.7364    6.4002   53.3660 C   0  0  0  0  0  0  0  0  0  0  0  0
   25.4818    6.8588   53.5839 C   0  0  0  0  0  0  0  0  0  0  0  0
   24.1861    6.5226   53.1906 C   0  0  0  0  0  0  0  0  0  0  0  0
   23.8060    5.3716   52.3193 C   0  0  0  0  0  0  0  0  0  0  0  0
   22.3768    5.4674   52.2348 N   0  0  0  0  0  0  0  0  0  0  0  0
   21.9044    6.5910   52.9782 C   0  0  0  0  0  0  0  0  0  0  0  0
   20.6917    6.8482   53.0224 O   0  0  0  0  0  0  0  0  0  0  0  0
   23.0582    7.2396   53.5706 C   0  0  0  0  0  0  0  0  0  0  0  0
   23.1714    8.3506   54.3840 C   0  0  0  0  0  0  0  0  0  0  0  0
   22.3204    9.2284   54.9803 C   0  0  0  0  0  0  0  0  0  0  0  0
   20.9758    9.3929   54.9591 C   0  0  0  0  0  0  0  0  0  0  0  0
   20.4212   10.4270   55.7126 C   0  0  0  0  0  0  0  0  0  0  0  0
   21.2172   11.2639   56.4617 C   0  0  0  0  0  0  0  0  0  0  0  0
   22.6008   11.0847   56.4752 C   0  0  0  0  0  0  0  0  0  0  0  0
   23.1392   10.0766   55.7407 C   0  0  0  0  0  0  0  0  0  0  0  0
   24.4095    9.7352   55.6115 N   0  0  0  0  0  0  0  0  0  0  0  0
   24.4444    8.6707   54.7641 C   0  0  0  0  0  0  0  0  0  0  0  0
   25.5882    7.9475   54.3703 C   0  0  0  0  0  0  0  0  0  0  0  0
   21.7804    4.7935   51.6959 H   0  0  0  0  0  0  0  0  0  0  0  0
   28.6532   11.9467   58.9697 C   0  0  0  0  0  0  0  0  0  0  0  0
   28.2883   11.6864   57.5722 N   0  0  0  0  0  0  0  0  0  0  0  0
   29.1624   11.3281   57.1312 H   0  0  0  0  0  0  0  0  0  0  0  0
   27.8416    8.1928   57.4559 O   0  0  0  0  0  0  0  0  0  0  0  0
   28.3720    8.2523   58.7213 C   0  0  0  0  0  0  0  0  0  0  0  0
 33 34  1  0  0  0
 34  1  1  0  0  0
  1  2  1  0  0  0
  2  3  1  0  0  0
  3  4  1  0  0  0
  4  5  1  0  0  0
  5  6  1  0  0  0
  5  7  1  0  0  0
  7 36  1  0  0  0
 36 37  1  0  0  0
  5  8  1  0  0  0
  8  9  1  0  0  0
  9 10  2  0  0  0
 10 11  1  0  0  0
 11 12  2  0  0  0
 12 13  1  0  0  0
 13 14  2  0  0  0
 14 15  1  0  0  0
 15 16  2  0  0  0
 16 17  1  0  0  0
 17 18  1  0  0  0
 18 19  1  0  0  0
 19 20  2  0  0  0
 19 21  1  0  0  0
 21 22  2  0  0  0
 22 23  1  0  0  0
 23 24  2  0  0  0
 24 25  1  0  0  0
 25 26  2  0  0  0
 26 27  1  0  0  0
 27 28  2  0  0  0
 28 29  1  0  0  0
 29 30  1  0  0  0
 30 31  2  0  0  0
  7  1  1  0  0  0
 31  8  1  0  0  0
 29  3  1  0  0  0
 14  9  1  0  0  0
 31 15  1  0  0  0
 21 16  1  0  0  0
 30 22  1  0  0  0
 28 23  1  0  0  0
 34 35  1  0  0  0
 18 32  1  0  0  0
M  END
> <minimizedAffinity>
77.32673

> <CNNscore>
0.3895557821

> <CNNaffinity>
6.0856208801

> <CNN_VS>
2.3706889153

> <CNNaffinity_variance>
0.6778463125

$$$$
[H]c1c([H])c([H])c2c(c1[H])c1c3c(c4c5c([H])c([H])c([H])c([H])c5n5c4c1n2[C@@]1([H])O[C@@]5(C([H])([H])[H])[C@]([H])(OC([H])([H])[H])[C@@]([H])(N([H])C([H])([H])[H])C1([H])[H])C([H])([H])N([H])C3=O


 37 44  0  0  0  0  0  0  0  0999 V2000
   20.9038   10.1292   55.4734 C   0  0  0  0  0  0  0  0  0  0  0  0
   20.0093    9.0186   54.8307 C   0  0  0  0  0  0  0  0  0  0  0  0
   20.9530    8.1449   54.3490 C   0  0  0  0  0  0  0  0  0  0  0  0
   21.6832    8.8864   53.4309 O   0  0  0  0  0  0  0  0  0  0  0  0
   22.8722    9.2698   54.1047 C   0  0  0  0  0  0  0  0  0  0  0  0
   23.4115   10.3656   53.1264 C   0  0  0  0  0  0  0  0  0  0  0  0
   22.4122    9.8375   55.3504 C   0  0  0  0  0  0  0  0  0  0  0  0
   23.7491    8.1212   54.0219 N   0  0  0  0  0  0  0  0  0  0  0  0
   25.1089    8.1503   53.9982 C   0  0  0  0  0  0  0  0  0  0  0  0
   26.0202    9.1583   54.1808 C   0  0  0  0  0  0  0  0  0  0  0  0
   27.3780    8.9210   54.1143 C   0  0  0  0  0  0  0  0  0  0  0  0
   27.8797    7.6444   53.8588 C   0  0  0  0  0  0  0  0  0  0  0  0
   26.9801    6.6151   53.6727 C   0  0  0  0  0  0  0  0  0  0  0  0
   25.6333    6.8949   53.7473 C   0  0  0  0  0  0  0  0  0  0  0  0
   24.5795    6.0561   53.6148 C   0  0  0  0  0  0  0  0  0  0  0  0
   24.3752    4.7060   53.3284 C   0  0  0  0  0  0  0  0  0  0  0  0
   25.4426    3.6895   53.0917 C   0  0  0  0  0  0  0  0  0  0  0  0
   24.7110    2.4779   52.8559 N   0  0  0  0  0  0  0  0  0  0  0  0
   23.3055    2.7188   52.9252 C   0  0  0  0  0  0  0  0  0  0  0  0
   22.5010    1.7926   52.7416 O   0  0  0  0  0  0  0  0  0  0  0  0
   23.1173    4.1254   53.2233 C   0  0  0  0  0  0  0  0  0  0  0  0
   21.9755    4.8814   53.4072 C   0  0  0  0  0  0  0  0  0  0  0  0
   20.6348    4.6538   53.4358 C   0  0  0  0  0  0  0  0  0  0  0  0
   19.8647    3.5585   53.2291 C   0  0  0  0  0  0  0  0  0  0  0  0
   18.4809    3.6884   53.3436 C   0  0  0  0  0  0  0  0  0  0  0  0
   17.9062    4.8990   53.6588 C   0  0  0  0  0  0  0  0  0  0  0  0
   18.7099    6.0200   53.8691 C   0  0  0  0  0  0  0  0  0  0  0  0
   20.0577    5.8914   53.7572 C   0  0  0  0  0  0  0  0  0  0  0  0
   20.9916    6.8138   53.9120 N   0  0  0  0  0  0  0  0  0  0  0  0
   22.1867    6.2020   53.6880 C   0  0  0  0  0  0  0  0  0  0  0  0
   23.4634    6.7912   53.7853 C   0  0  0  0  0  0  0  0  0  0  0  0
   25.1662    1.5531   52.6618 H   0  0  0  0  0  0  0  0  0  0  0  0
   21.2057   11.5915   53.6980 C   0  0  0  0  0  0  0  0  0  0  0  0
   20.5434   11.4308   54.9977 N   0  0  0  0  0  0  0  0  0  0  0  0
   19.5260   11.3871   54.7744 H   0  0  0  0  0  0  0  0  0  0  0  0
   22.9762    9.4026   56.5426 O   0  0  0  0  0  0  0  0  0  0  0  0
   24.3209    9.6435   56.6827 C   0  0  0  0  0  0  0  0  0  0  0  0
 33 34  1  0  0  0
 34  1  1  0  0  0
  1  2  1  0  0  0
  2  3  1  0  0  0
  3  4  1  0  0  0
  4  5  1  0  0  0
  5  6  1  0  0  0
  5  7  1  0  0  0
  7 36  1  0  0  0
 36 37  1  0  0  0
  5  8  1  0  0  0
  8  9  1  0  0  0
  9 10  2  0  0  0
 10 11  1  0  0  0
 11 12  2  0  0  0
 12 13  1  0  0  0
 13 14  2  0  0  0
 14 15  1  0  0  0
 15 16  2  0  0  0
 16 17  1  0  0  0
 17 18  1  0  0  0
 18 19  1  0  0  0
 19 20  2  0  0  0
 19 21  1  0  0  0
 21 22  2  0  0  0
 22 23  1  0  0  0
 23 24  2  0  0  0
 24 25  1  0  0  0
 25 26  2  0  0  0
 26 27  1  0  0  0
 27 28  2  0  0  0
 28 29  1  0  0  0
 29 30  1  0  0  0
 30 31  2  0  0  0
  7  1  1  0  0  0
 31  8  1  0  0  0
 29  3  1  0  0  0
 14  9  1  0  0  0
 31 15  1  0  0  0
 21 16  1  0  0  0
 30 22  1  0  0  0
 28 23  1  0  0  0
 34 35  1  0  0  0
 18 32  1  0  0  0
M  END
> <minimizedAffinity>
76.39976

> <CNNscore>
0.2383977920

> <CNNaffinity>
6.1369748116

> <CNN_VS>
1.4630411863

> <CNNaffinity_variance>
0.3116025329

$$$$
[H]c1c([H])c([H])c2c(c1[H])c1c3c(c4c5c([H])c([H])c([H])c([H])c5n5c4c1n2[C@@]1([H])O[C@@]5(C([H])([H])[H])[C@]([H])(OC([H])([H])[H])[C@@]([H])(N([H])C([H])([H])[H])C1([H])[H])C([H])([H])N([H])C3=O


 37 44  0  0  0  0  0  0  0  0999 V2000
   20.3082    8.3566   53.5733 C   0  0  0  0  0  0  0  0  0  0  0  0
   21.0481    9.3780   54.4983 C   0  0  0  0  0  0  0  0  0  0  0  0
   22.3045    8.8285   54.5711 C   0  0  0  0  0  0  0  0  0  0  0  0
   22.1102    7.5805   55.1461 O   0  0  0  0  0  0  0  0  0  0  0  0
   22.1353    6.6537   54.0714 C   0  0  0  0  0  0  0  0  0  0  0  0
   21.5569    5.3835   54.7791 C   0  0  0  0  0  0  0  0  0  0  0  0
   21.2124    7.1999   53.1042 C   0  0  0  0  0  0  0  0  0  0  0  0
   23.5371    6.4182   53.7987 N   0  0  0  0  0  0  0  0  0  0  0  0
   24.0757    5.2736   53.2984 C   0  0  0  0  0  0  0  0  0  0  0  0
   23.5180    4.1287   52.7906 C   0  0  0  0  0  0  0  0  0  0  0  0
   24.3013    3.0911   52.3278 C   0  0  0  0  0  0  0  0  0  0  0  0
   25.6943    3.1648   52.3572 C   0  0  0  0  0  0  0  0  0  0  0  0
   26.2765    4.3084   52.8636 C   0  0  0  0  0  0  0  0  0  0  0  0
   25.4583    5.3204   53.3152 C   0  0  0  0  0  0  0  0  0  0  0  0
   25.7971    6.5239   53.8334 C   0  0  0  0  0  0  0  0  0  0  0  0
   26.9705    7.2035   54.1618 C   0  0  0  0  0  0  0  0  0  0  0  0
   28.3609    6.6991   53.9594 C   0  0  0  0  0  0  0  0  0  0  0  0
   29.1842    7.7692   54.4451 N   0  0  0  0  0  0  0  0  0  0  0  0
   28.3774    8.8455   54.9237 C   0  0  0  0  0  0  0  0  0  0  0  0
   28.9063    9.8650   55.3923 O   0  0  0  0  0  0  0  0  0  0  0  0
   26.9897    8.4687   54.7359 C   0  0  0  0  0  0  0  0  0  0  0  0
   25.8109    9.1340   55.0128 C   0  0  0  0  0  0  0  0  0  0  0  0
   25.4566   10.3539   55.4991 C   0  0  0  0  0  0  0  0  0  0  0  0
   26.1548   11.4133   55.9740 C   0  0  0  0  0  0  0  0  0  0  0  0
   25.4479   12.5370   56.4013 C   0  0  0  0  0  0  0  0  0  0  0  0
   24.0730   12.5735   56.3441 C   0  0  0  0  0  0  0  0  0  0  0  0
   23.3650   11.4760   55.8532 C   0  0  0  0  0  0  0  0  0  0  0  0
   24.0554   10.3824   55.4373 C   0  0  0  0  0  0  0  0  0  0  0  0
   23.5884    9.2479   54.9455 N   0  0  0  0  0  0  0  0  0  0  0  0
   24.6677    8.4601   54.6866 C   0  0  0  0  0  0  0  0  0  0  0  0
   24.6500    7.1729   54.1126 C   0  0  0  0  0  0  0  0  0  0  0  0
   30.2327    7.7437   54.4395 H   0  0  0  0  0  0  0  0  0  0  0  0
   18.6750    6.7172   53.4098 C   0  0  0  0  0  0  0  0  0  0  0  0
   19.0840    7.9073   54.1648 N   0  0  0  0  0  0  0  0  0  0  0  0
   19.3332    7.5492   55.1117 H   0  0  0  0  0  0  0  0  0  0  0  0
   21.6163    7.3334   51.7823 O   0  0  0  0  0  0  0  0  0  0  0  0
   20.9800    8.3176   51.0664 C   0  0  0  0  0  0  0  0  0  0  0  0
 33 34  1  0  0  0
 34  1  1  0  0  0
  1  2  1  0  0  0
  2  3  1  0  0  0
  3  4  1  0  0  0
  4  5  1  0  0  0
  5  6  1  0  0  0
  5  7  1  0  0  0
  7 36  1  0  0  0
 36 37  1  0  0  0
  5  8  1  0  0  0
  8  9  1  0  0  0
  9 10  2  0  0  0
 10 11  1  0  0  0
 11 12  2  0  0  0
 12 13  1  0  0  0
 13 14  2  0  0  0
 14 15  1  0  0  0
 15 16  2  0  0  0
 16 17  1  0  0  0
 17 18  1  0  0  0
 18 19  1  0  0  0
 19 20  2  0  0  0
 19 21  1  0  0  0
 21 22  2  0  0  0
 22 23  1  0  0  0
 23 24  2  0  0  0
 24 25  1  0  0  0
 25 26  2  0  0  0
 26 27  1  0  0  0
 27 28  2  0  0  0
 28 29  1  0  0  0
 29 30  1  0  0  0
 30 31  2  0  0  0
  7  1  1  0  0  0
 31  8  1  0  0  0
 29  3  1  0  0  0
 14  9  1  0  0  0
 31 15  1  0  0  0
 21 16  1  0  0  0
 30 22  1  0  0  0
 28 23  1  0  0  0
 34 35  1  0  0  0
 18 32  1  0  0  0
M  END
> <minimizedAffinity>
89.40308

> <CNNscore>
0.1953531951

> <CNNaffinity>
5.6147370338

> <CNN_VS>
1.0968568325

> <CNNaffinity_variance>
1.4048898220

$$$$
[H]c1c([H])c([H])c2c(c1[H])c1c3c(c4c5c([H])c([H])c([H])c([H])c5n5c4c1n2[C@@]1([H])O[C@@]5(C([H])([H])[H])[C@]([H])(OC([H])([H])[H])[C@@]([H])(N([H])C([H])([H])[H])C1([H])[H])C([H])([H])N([H])C3=O


 37 44  0  0  0  0  0  0  0  0999 V2000
   27.7953    7.8733   53.8159 C   0  0  0  0  0  0  0  0  0  0  0  0
   27.4223    6.3545   53.8353 C   0  0  0  0  0  0  0  0  0  0  0  0
   26.0561    6.4048   53.9652 C   0  0  0  0  0  0  0  0  0  0  0  0
   25.8408    7.0567   55.1713 O   0  0  0  0  0  0  0  0  0  0  0  0
   25.5194    8.3970   54.8320 C   0  0  0  0  0  0  0  0  0  0  0  0
   25.6610    9.0849   56.2304 C   0  0  0  0  0  0  0  0  0  0  0  0
   26.5678    8.7992   53.9240 C   0  0  0  0  0  0  0  0  0  0  0  0
   24.1158    8.3787   54.4792 N   0  0  0  0  0  0  0  0  0  0  0  0
   23.2386    9.4081   54.6254 C   0  0  0  0  0  0  0  0  0  0  0  0
   23.3998   10.7239   54.9754 C   0  0  0  0  0  0  0  0  0  0  0  0
   22.3250   11.5867   55.0439 C   0  0  0  0  0  0  0  0  0  0  0  0
   21.0290   11.1553   54.7593 C   0  0  0  0  0  0  0  0  0  0  0  0
   20.8442    9.8351   54.4042 C   0  0  0  0  0  0  0  0  0  0  0  0
   21.9439    9.0073   54.3478 C   0  0  0  0  0  0  0  0  0  0  0  0
   22.0087    7.6971   54.0147 C   0  0  0  0  0  0  0  0  0  0  0  0
   21.1151    6.6835   53.6675 C   0  0  0  0  0  0  0  0  0  0  0  0
   19.6363    6.8301   53.5258 C   0  0  0  0  0  0  0  0  0  0  0  0
   19.1995    5.5160   53.1499 N   0  0  0  0  0  0  0  0  0  0  0  0
   20.3089    4.6203   53.0764 C   0  0  0  0  0  0  0  0  0  0  0  0
   20.1347    3.4306   52.7718 O   0  0  0  0  0  0  0  0  0  0  0  0
   21.5026    5.3752   53.4053 C   0  0  0  0  0  0  0  0  0  0  0  0
   22.8326    5.0076   53.4748 C   0  0  0  0  0  0  0  0  0  0  0  0
   23.5594    3.8822   53.2395 C   0  0  0  0  0  0  0  0  0  0  0  0
   23.2377    2.6149   52.8849 C   0  0  0  0  0  0  0  0  0  0  0  0
   24.2676    1.6883   52.7244 C   0  0  0  0  0  0  0  0  0  0  0  0
   25.5817    2.0482   52.9208 C   0  0  0  0  0  0  0  0  0  0  0  0
   25.9006    3.3565   53.2861 C   0  0  0  0  0  0  0  0  0  0  0  0
   24.8959    4.2576   53.4419 C   0  0  0  0  0  0  0  0  0  0  0  0
   24.9745    5.5326   53.7814 N   0  0  0  0  0  0  0  0  0  0  0  0
   23.6995    6.0078   53.8149 C   0  0  0  0  0  0  0  0  0  0  0  0
   23.3035    7.3324   54.0893 C   0  0  0  0  0  0  0  0  0  0  0  0
   18.1980    5.2693   52.9592 H   0  0  0  0  0  0  0  0  0  0  0  0
   28.8550    9.6371   54.8871 C   0  0  0  0  0  0  0  0  0  0  0  0
   28.8115    8.1742   54.7788 N   0  0  0  0  0  0  0  0  0  0  0  0
   28.4448    7.8499   55.6992 H   0  0  0  0  0  0  0  0  0  0  0  0
   26.2269    9.3860   52.7124 O   0  0  0  0  0  0  0  0  0  0  0  0
   27.1162    9.1820   51.6860 C   0  0  0  0  0  0  0  0  0  0  0  0
 33 34  1  0  0  0
 34  1  1  0  0  0
  1  2  1  0  0  0
  2  3  1  0  0  0
  3  4  1  0  0  0
  4  5  1  0  0  0
  5  6  1  0  0  0
  5  7  1  0  0  0
  7 36  1  0  0  0
 36 37  1  0  0  0
  5  8  1  0  0  0
  8  9  1  0  0  0
  9 10  2  0  0  0
 10 11  1  0  0  0
 11 12  2  0  0  0
 12 13  1  0  0  0
 13 14  2  0  0  0
 14 15  1  0  0  0
 15 16  2  0  0  0
 16 17  1  0  0  0
 17 18  1  0  0  0
 18 19  1  0  0  0
 19 20  2  0  0  0
 19 21  1  0  0  0
 21 22  2  0  0  0
 22 23  1  0  0  0
 23 24  2  0  0  0
 24 25  1  0  0  0
 25 26  2  0  0  0
 26 27  1  0  0  0
 27 28  2  0  0  0
 28 29  1  0  0  0
 29 30  1  0  0  0
 30 31  2  0  0  0
  7  1  1  0  0  0
 31  8  1  0  0  0
 29  3  1  0  0  0
 14  9  1  0  0  0
 31 15  1  0  0  0
 21 16  1  0  0  0
 30 22  1  0  0  0
 28 23  1  0  0  0
 34 35  1  0  0  0
 18 32  1  0  0  0
M  END
> <minimizedAffinity>
79.32894

> <CNNscore>
0.1809310019

> <CNNaffinity>
5.9063768387

> <CNN_VS>
1.0686466694

> <CNNaffinity_variance>
0.7884656191

$$$$
[H]c1c([H])c([H])c2c(c1[H])c1c3c(c4c5c([H])c([H])c([H])c([H])c5n5c4c1n2[C@@]1([H])O[C@@]5(C([H])([H])[H])[C@]([H])(OC([H])([H])[H])[C@@]([H])(N([H])C([H])([H])[H])C1([H])[H])C([H])([H])N([H])C3=O


 37 44  0  0  0  0  0  0  0  0999 V2000
   28.2559    6.7261   53.0086 C   0  0  0  0  0  0  0  0  0  0  0  0
   26.8780    5.9860   53.0149 C   0  0  0  0  0  0  0  0  0  0  0  0
   26.1103    6.8329   53.7761 C   0  0  0  0  0  0  0  0  0  0  0  0
   26.7418    6.8657   55.0115 O   0  0  0  0  0  0  0  0  0  0  0  0
   27.4887    8.0726   55.0297 C   0  0  0  0  0  0  0  0  0  0  0  0
   28.4081    7.8180   56.2701 C   0  0  0  0  0  0  0  0  0  0  0  0
   28.2336    8.0529   53.7927 C   0  0  0  0  0  0  0  0  0  0  0  0
   26.5391    9.1079   55.3780 N   0  0  0  0  0  0  0  0  0  0  0  0
   26.8179   10.2610   56.0436 C   0  0  0  0  0  0  0  0  0  0  0  0
   27.9939   10.8471   56.4349 C   0  0  0  0  0  0  0  0  0  0  0  0
   28.0083   12.0533   57.1050 C   0  0  0  0  0  0  0  0  0  0  0  0
   26.8255   12.7269   57.4118 C   0  0  0  0  0  0  0  0  0  0  0  0
   25.6305   12.1552   57.0266 C   0  0  0  0  0  0  0  0  0  0  0  0
   25.6607   10.9502   56.3597 C   0  0  0  0  0  0  0  0  0  0  0  0
   24.6308   10.2163   55.8778 C   0  0  0  0  0  0  0  0  0  0  0  0
   23.2375   10.2887   55.8697 C   0  0  0  0  0  0  0  0  0  0  0  0
   22.4140   11.3860   56.4581 C   0  0  0  0  0  0  0  0  0  0  0  0
   21.0651   10.9879   56.1737 N   0  0  0  0  0  0  0  0  0  0  0  0
   21.0459    9.7408   55.4790 C   0  0  0  0  0  0  0  0  0  0  0  0
   19.9677    9.2238   55.1488 O   0  0  0  0  0  0  0  0  0  0  0  0
   22.4218    9.3197   55.2985 C   0  0  0  0  0  0  0  0  0  0  0  0
   22.9704    8.2073   54.6898 C   0  0  0  0  0  0  0  0  0  0  0  0
   22.5070    7.1273   54.0051 C   0  0  0  0  0  0  0  0  0  0  0  0
   21.2686    6.6764   53.6911 C   0  0  0  0  0  0  0  0  0  0  0  0
   21.1581    5.4978   52.9538 C   0  0  0  0  0  0  0  0  0  0  0  0
   22.2780    4.8050   52.5526 C   0  0  0  0  0  0  0  0  0  0  0  0
   23.5481    5.2793   52.8824 C   0  0  0  0  0  0  0  0  0  0  0  0
   23.6537    6.4277   53.6005 C   0  0  0  0  0  0  0  0  0  0  0  0
   24.7459    7.0449   54.0165 N   0  0  0  0  0  0  0  0  0  0  0  0
   24.3356    8.1465   54.7025 C   0  0  0  0  0  0  0  0  0  0  0  0
   25.1612    9.1260   55.2904 C   0  0  0  0  0  0  0  0  0  0  0  0
   20.2235   11.5510   56.4470 H   0  0  0  0  0  0  0  0  0  0  0  0
   29.3790    4.7885   52.4037 C   0  0  0  0  0  0  0  0  0  0  0  0
   29.3190    5.8549   53.4102 N   0  0  0  0  0  0  0  0  0  0  0  0
   30.2016    6.3941   53.2796 H   0  0  0  0  0  0  0  0  0  0  0  0
   28.2026    9.1677   52.9651 O   0  0  0  0  0  0  0  0  0  0  0  0
   27.2223    9.1627   52.0034 C   0  0  0  0  0  0  0  0  0  0  0  0
 33 34  1  0  0  0
 34  1  1  0  0  0
  1  2  1  0  0  0
  2  3  1  0  0  0
  3  4  1  0  0  0
  4  5  1  0  0  0
  5  6  1  0  0  0
  5  7  1  0  0  0
  7 36  1  0  0  0
 36 37  1  0  0  0
  5  8  1  0  0  0
  8  9  1  0  0  0
  9 10  2  0  0  0
 10 11  1  0  0  0
 11 12  2  0  0  0
 12 13  1  0  0  0
 13 14  2  0  0  0
 14 15  1  0  0  0
 15 16  2  0  0  0
 16 17  1  0  0  0
 17 18  1  0  0  0
 18 19  1  0  0  0
 19 20  2  0  0  0
 19 21  1  0  0  0
 21 22  2  0  0  0
 22 23  1  0  0  0
 23 24  2  0  0  0
 24 25  1  0  0  0
 25 26  2  0  0  0
 26 27  1  0  0  0
 27 28  2  0  0  0
 28 29  1  0  0  0
 29 30  1  0  0  0
 30 31  2  0  0  0
  7  1  1  0  0  0
 31  8  1  0  0  0
 29  3  1  0  0  0
 14  9  1  0  0  0
 31 15  1  0  0  0
 21 16  1  0  0  0
 30 22  1  0  0  0
 28 23  1  0  0  0
 34 35  1  0  0  0
 18 32  1  0  0  0
M  END
> <minimizedAffinity>
86.95899

> <CNNscore>
0.1717313081

> <CNNaffinity>
5.6362538338

> <CNN_VS>
0.9679212570

> <CNNaffinity_variance>
0.5579581857

$$$$
[H]c1c([H])c([H])c2c(c1[H])c1c3c(c4c5c([H])c([H])c([H])c([H])c5n5c4c1n2[C@@]1([H])O[C@@]5(C([H])([H])[H])[C@]([H])(OC([H])([H])[H])[C@@]([H])(N([H])C([H])([H])[H])C1([H])[H])C([H])([H])N([H])C3=O


 37 44  0  0  0  0  0  0  0  0999 V2000
   24.4937    8.2120   55.1455 C   0  0  0  0  0  0  0  0  0  0  0  0
   24.3206    9.3486   54.0851 C   0  0  0  0  0  0  0  0  0  0  0  0
   23.1954    8.9354   53.4148 C   0  0  0  0  0  0  0  0  0  0  0  0
   23.5396    7.7041   52.8749 O   0  0  0  0  0  0  0  0  0  0  0  0
   22.9705    6.7325   53.7391 C   0  0  0  0  0  0  0  0  0  0  0  0
   23.7149    5.4464   53.2486 C   0  0  0  0  0  0  0  0  0  0  0  0
   23.3970    7.1324   55.0596 C   0  0  0  0  0  0  0  0  0  0  0  0
   21.5828    6.6290   53.3412 N   0  0  0  0  0  0  0  0  0  0  0  0
   20.7988    5.5223   53.4460 C   0  0  0  0  0  0  0  0  0  0  0  0
   20.9881    4.3023   54.0424 C   0  0  0  0  0  0  0  0  0  0  0  0
   20.0103    3.3290   54.0153 C   0  0  0  0  0  0  0  0  0  0  0  0
   18.7875    3.5467   53.3796 C   0  0  0  0  0  0  0  0  0  0  0  0
   18.5755    4.7678   52.7736 C   0  0  0  0  0  0  0  0  0  0  0  0
   19.5777    5.7116   52.8239 C   0  0  0  0  0  0  0  0  0  0  0  0
   19.5921    6.9678   52.3203 C   0  0  0  0  0  0  0  0  0  0  0  0
   18.7413    7.7798   51.5698 C   0  0  0  0  0  0  0  0  0  0  0  0
   17.3765    7.4114   51.0900 C   0  0  0  0  0  0  0  0  0  0  0  0
   16.9354    8.5831   50.3890 N   0  0  0  0  0  0  0  0  0  0  0  0
   17.9439    9.5934   50.4160 C   0  0  0  0  0  0  0  0  0  0  0  0
   17.7539   10.6838   49.8560 O   0  0  0  0  0  0  0  0  0  0  0  0
   19.0698    9.0672   51.1633 C   0  0  0  0  0  0  0  0  0  0  0  0
   20.2907    9.6209   51.4976 C   0  0  0  0  0  0  0  0  0  0  0  0
   20.9096   10.8206   51.3306 C   0  0  0  0  0  0  0  0  0  0  0  0
   20.5743   11.9683   50.6937 C   0  0  0  0  0  0  0  0  0  0  0  0
   21.4741   13.0333   50.7265 C   0  0  0  0  0  0  0  0  0  0  0  0
   22.6761   12.9256   51.3889 C   0  0  0  0  0  0  0  0  0  0  0  0
   23.0102   11.7382   52.0410 C   0  0  0  0  0  0  0  0  0  0  0  0
   22.1323   10.7019   52.0080 C   0  0  0  0  0  0  0  0  0  0  0  0
   22.2487    9.5024   52.5508 N   0  0  0  0  0  0  0  0  0  0  0  0
   21.1160    8.8177   52.2333 C   0  0  0  0  0  0  0  0  0  0  0  0
   20.7846    7.5086   52.6371 C   0  0  0  0  0  0  0  0  0  0  0  0
   15.9969    8.6652   49.9281 H   0  0  0  0  0  0  0  0  0  0  0  0
   26.5650    8.4561   54.1297 C   0  0  0  0  0  0  0  0  0  0  0  0
   25.8185    7.6693   55.1184 N   0  0  0  0  0  0  0  0  0  0  0  0
   26.2514    7.9136   56.0348 H   0  0  0  0  0  0  0  0  0  0  0  0
   22.4533    7.2408   56.0727 O   0  0  0  0  0  0  0  0  0  0  0  0
   21.5002    8.2126   55.8909 C   0  0  0  0  0  0  0  0  0  0  0  0
 33 34  1  0  0  0
 34  1  1  0  0  0
  1  2  1  0  0  0
  2  3  1  0  0  0
  3  4  1  0  0  0
  4  5  1  0  0  0
  5  6  1  0  0  0
  5  7  1  0  0  0
  7 36  1  0  0  0
 36 37  1  0  0  0
  5  8  1  0  0  0
  8  9  1  0  0  0
  9 10  2  0  0  0
 10 11  1  0  0  0
 11 12  2  0  0  0
 12 13  1  0  0  0
 13 14  2  0  0  0
 14 15  1  0  0  0
 15 16  2  0  0  0
 16 17  1  0  0  0
 17 18  1  0  0  0
 18 19  1  0  0  0
 19 20  2  0  0  0
 19 21  1  0  0  0
 21 22  2  0  0  0
 22 23  1  0  0  0
 23 24  2  0  0  0
 24 25  1  0  0  0
 25 26  2  0  0  0
 26 27  1  0  0  0
 27 28  2  0  0  0
 28 29  1  0  0  0
 29 30  1  0  0  0
 30 31  2  0  0  0
  7  1  1  0  0  0
 31  8  1  0  0  0
 29  3  1  0  0  0
 14  9  1  0  0  0
 31 15  1  0  0  0
 21 16  1  0  0  0
 30 22  1  0  0  0
 28 23  1  0  0  0
 34 35  1  0  0  0
 18 32  1  0  0  0
M  END
> <minimizedAffinity>
81.72050

> <CNNscore>
0.1400747895

> <CNNaffinity>
6.1194658279

> <CNN_VS>
0.8571828604

> <CNNaffinity_variance>
0.7661437392

$$$$
[H]c1c([H])c([H])c2c(c1[H])c1c3c(c4c5c([H])c([H])c([H])c([H])c5n5c4c1n2[C@@]1([H])O[C@@]5(C([H])([H])[H])[C@]([H])(OC([H])([H])[H])[C@@]([H])(N([H])C([H])([H])[H])C1([H])[H])C([H])([H])N([H])C3=O


 37 44  0  0  0  0  0  0  0  0999 V2000
   26.5144    8.5507   54.9952 C   0  0  0  0  0  0  0  0  0  0  0  0
   26.0332    7.4323   55.9771 C   0  0  0  0  0  0  0  0  0  0  0  0
   24.7431    7.2262   55.5540 C   0  0  0  0  0  0  0  0  0  0  0  0
   24.1133    8.4495   55.7359 O   0  0  0  0  0  0  0  0  0  0  0  0
   24.0779    9.0582   54.4541 C   0  0  0  0  0  0  0  0  0  0  0  0
   23.6973   10.5242   54.8472 C   0  0  0  0  0  0  0  0  0  0  0  0
   25.4365    8.9636   53.9738 C   0  0  0  0  0  0  0  0  0  0  0  0
   22.9445    8.4647   53.7773 N   0  0  0  0  0  0  0  0  0  0  0  0
   22.1786    9.0594   52.8232 C   0  0  0  0  0  0  0  0  0  0  0  0
   22.2987   10.2410   52.1383 C   0  0  0  0  0  0  0  0  0  0  0  0
   21.3702   10.6205   51.1905 C   0  0  0  0  0  0  0  0  0  0  0  0
   20.2703    9.8164   50.8898 C   0  0  0  0  0  0  0  0  0  0  0  0
   20.1305    8.6225   51.5668 C   0  0  0  0  0  0  0  0  0  0  0  0
   21.0798    8.2814   52.5050 C   0  0  0  0  0  0  0  0  0  0  0  0
   21.1587    7.1699   53.2730 C   0  0  0  0  0  0  0  0  0  0  0  0
   20.3987    6.0206   53.4921 C   0  0  0  0  0  0  0  0  0  0  0  0
   19.1253    5.6670   52.7977 C   0  0  0  0  0  0  0  0  0  0  0  0
   18.7656    4.4022   53.3720 N   0  0  0  0  0  0  0  0  0  0  0  0
   19.7246    4.0052   54.3522 C   0  0  0  0  0  0  0  0  0  0  0  0
   19.5854    2.9380   54.9690 O   0  0  0  0  0  0  0  0  0  0  0  0
   20.7421    5.0368   54.4112 C   0  0  0  0  0  0  0  0  0  0  0  0
   21.8900    5.1534   55.1712 C   0  0  0  0  0  0  0  0  0  0  0  0
   22.5471    4.3953   56.0898 C   0  0  0  0  0  0  0  0  0  0  0  0
   22.2873    3.2050   56.6823 C   0  0  0  0  0  0  0  0  0  0  0  0
   23.2069    2.7079   57.6054 C   0  0  0  0  0  0  0  0  0  0  0  0
   24.3529    3.4067   57.9109 C   0  0  0  0  0  0  0  0  0  0  0  0
   24.6093    4.6318   57.2943 C   0  0  0  0  0  0  0  0  0  0  0  0
   23.7124    5.1143   56.3952 C   0  0  0  0  0  0  0  0  0  0  0  0
   23.7580    6.2408   55.7054 N   0  0  0  0  0  0  0  0  0  0  0  0
   22.6276    6.2821   54.9484 C   0  0  0  0  0  0  0  0  0  0  0  0
   22.2729    7.2834   54.0220 C   0  0  0  0  0  0  0  0  0  0  0  0
   17.9113    3.8604   53.0946 H   0  0  0  0  0  0  0  0  0  0  0  0
   27.6343    9.1203   56.9453 C   0  0  0  0  0  0  0  0  0  0  0  0
   27.0720    9.6634   55.7033 N   0  0  0  0  0  0  0  0  0  0  0  0
   27.8991    9.9746   55.1503 H   0  0  0  0  0  0  0  0  0  0  0  0
   25.6725    8.4520   52.7045 O   0  0  0  0  0  0  0  0  0  0  0  0
   26.9763    8.5102   52.2768 C   0  0  0  0  0  0  0  0  0  0  0  0
 33 34  1  0  0  0
 34  1  1  0  0  0
  1  2  1  0  0  0
  2  3  1  0  0  0
  3  4  1  0  0  0
  4  5  1  0  0  0
  5  6  1  0  0  0
  5  7  1  0  0  0
  7 36  1  0  0  0
 36 37  1  0  0  0
  5  8  1  0  0  0
  8  9  1  0  0  0
  9 10  2  0  0  0
 10 11  1  0  0  0
 11 12  2  0  0  0
 12 13  1  0  0  0
 13 14  2  0  0  0
 14 15  1  0  0  0
 15 16  2  0  0  0
 16 17  1  0  0  0
 17 18  1  0  0  0
 18 19  1  0  0  0
 19 20  2  0  0  0
 19 21  1  0  0  0
 21 22  2  0  0  0
 22 23  1  0  0  0
 23 24  2  0  0  0
 24 25  1  0  0  0
 25 26  2  0  0  0
 26 27  1  0  0  0
 27 28  2  0  0  0
 28 29  1  0  0  0
 29 30  1  0  0  0
 30 31  2  0  0  0
  7  1  1  0  0  0
 31  8  1  0  0  0
 29  3  1  0  0  0
 14  9  1  0  0  0
 31 15  1  0  0  0
 21 16  1  0  0  0
 30 22  1  0  0  0
 28 23  1  0  0  0
 34 35  1  0  0  0
 18 32  1  0  0  0
M  END
> <minimizedAffinity>
81.37305

> <CNNscore>
0.1324315071

> <CNNaffinity>
5.9213800430

> <CNN_VS>
0.7841773033

> <CNNaffinity_variance>
0.8675552607

$$$$
[H]c1c([H])c([H])c2c(c1[H])c1c3c(c4c5c([H])c([H])c([H])c([H])c5n5c4c1n2[C@@]1([H])O[C@@]5(C([H])([H])[H])[C@]([H])(OC([H])([H])[H])[C@@]([H])(N([H])C([H])([H])[H])C1([H])[H])C([H])([H])N([H])C3=O


 37 44  0  0  0  0  0  0  0  0999 V2000
   20.7537    9.8378   52.0357 C   0  0  0  0  0  0  0  0  0  0  0  0
   19.9688    8.4943   52.1948 C   0  0  0  0  0  0  0  0  0  0  0  0
   20.8863    7.7117   52.8520 C   0  0  0  0  0  0  0  0  0  0  0  0
   21.9689    7.6367   51.9868 O   0  0  0  0  0  0  0  0  0  0  0  0
   22.9186    8.5708   52.4771 C   0  0  0  0  0  0  0  0  0  0  0  0
   23.8909    8.6546   51.2539 C   0  0  0  0  0  0  0  0  0  0  0  0
   22.1654    9.7904   52.6525 C   0  0  0  0  0  0  0  0  0  0  0  0
   23.6068    7.8910   53.5537 N   0  0  0  0  0  0  0  0  0  0  0  0
   24.8919    8.1047   53.9454 C   0  0  0  0  0  0  0  0  0  0  0  0
   25.8265    9.0443   53.5940 C   0  0  0  0  0  0  0  0  0  0  0  0
   27.0864    9.0510   54.1568 C   0  0  0  0  0  0  0  0  0  0  0  0
   27.4612    8.1012   55.1077 C   0  0  0  0  0  0  0  0  0  0  0  0
   26.5358    7.1468   55.4765 C   0  0  0  0  0  0  0  0  0  0  0  0
   25.2894    7.1759   54.8904 C   0  0  0  0  0  0  0  0  0  0  0  0
   24.2287    6.3622   55.1015 C   0  0  0  0  0  0  0  0  0  0  0  0
   23.9421    5.2313   55.8667 C   0  0  0  0  0  0  0  0  0  0  0  0
   24.8767    4.5547   56.8140 C   0  0  0  0  0  0  0  0  0  0  0  0
   24.0993    3.4699   57.3410 N   0  0  0  0  0  0  0  0  0  0  0  0
   22.7942    3.4603   56.7622 C   0  0  0  0  0  0  0  0  0  0  0  0
   21.9713    2.5904   57.0860 O   0  0  0  0  0  0  0  0  0  0  0  0
   22.7173    4.5758   55.8388 C   0  0  0  0  0  0  0  0  0  0  0  0
   21.6939    5.0306   55.0297 C   0  0  0  0  0  0  0  0  0  0  0  0
   20.3975    4.6929   54.7939 C   0  0  0  0  0  0  0  0  0  0  0  0
   19.5908    3.7001   55.2399 C   0  0  0  0  0  0  0  0  0  0  0  0
   18.2760    3.6541   54.7770 C   0  0  0  0  0  0  0  0  0  0  0  0
   17.8046    4.5930   53.8875 C   0  0  0  0  0  0  0  0  0  0  0  0
   18.6451    5.6107   53.4351 C   0  0  0  0  0  0  0  0  0  0  0  0
   19.9255    5.6538   53.8873 C   0  0  0  0  0  0  0  0  0  0  0  0
   20.8784    6.5201   53.5898 N   0  0  0  0  0  0  0  0  0  0  0  0
   21.9846    6.1390   54.2851 C   0  0  0  0  0  0  0  0  0  0  0  0
   23.2307    6.7973   54.3080 C   0  0  0  0  0  0  0  0  0  0  0  0
   24.4596    2.7896   58.0534 H   0  0  0  0  0  0  0  0  0  0  0  0
   21.1591   11.6962   50.7078 C   0  0  0  0  0  0  0  0  0  0  0  0
   20.7502   10.2871   50.6761 N   0  0  0  0  0  0  0  0  0  0  0  0
   21.5373    9.7921   50.2045 H   0  0  0  0  0  0  0  0  0  0  0  0
   22.2491   10.4709   53.8602 O   0  0  0  0  0  0  0  0  0  0  0  0
   21.4905    9.9559   54.8825 C   0  0  0  0  0  0  0  0  0  0  0  0
 33 34  1  0  0  0
 34  1  1  0  0  0
  1  2  1  0  0  0
  2  3  1  0  0  0
  3  4  1  0  0  0
  4  5  1  0  0  0
  5  6  1  0  0  0
  5  7  1  0  0  0
  7 36  1  0  0  0
 36 37  1  0  0  0
  5  8  1  0  0  0
  8  9  1  0  0  0
  9 10  2  0  0  0
 10 11  1  0  0  0
 11 12  2  0  0  0
 12 13  1  0  0  0
 13 14  2  0  0  0
 14 15  1  0  0  0
 15 16  2  0  0  0
 16 17  1  0  0  0
 17 18  1  0  0  0
 18 19  1  0  0  0
 19 20  2  0  0  0
 19 21  1  0  0  0
 21 22  2  0  0  0
 22 23  1  0  0  0
 23 24  2  0  0  0
 24 25  1  0  0  0
 25 26  2  0  0  0
 26 27  1  0  0  0
 27 28  2  0  0  0
 28 29  1  0  0  0
 29 30  1  0  0  0
 30 31  2  0  0  0
  7  1  1  0  0  0
 31  8  1  0  0  0
 29  3  1  0  0  0
 14  9  1  0  0  0
 31 15  1  0  0  0
 21 16  1  0  0  0
 30 22  1  0  0  0
 28 23  1  0  0  0
 34 35  1  0  0  0
 18 32  1  0  0  0
M  END
> <minimizedAffinity>
84.37309

> <CNNscore>
0.0996658504

> <CNNaffinity>
5.6333589554

> <CNN_VS>
0.5614535213

> <CNNaffinity_variance>
0.6370751858

$$$$
[H]c1c([H])c([H])c2c(c1[H])c1c3c(c4c5c([H])c([H])c([H])c([H])c5n5c4c1n2[C@@]1([H])O[C@@]5(C([H])([H])[H])[C@]([H])(OC([H])([H])[H])[C@@]([H])(N([H])C([H])([H])[H])C1([H])[H])C([H])([H])N([H])C3=O


 37 44  0  0  0  0  0  0  0  0999 V2000
   22.5168    4.8856   53.3286 C   0  0  0  0  0  0  0  0  0  0  0  0
   24.0326    5.1143   53.0181 C   0  0  0  0  0  0  0  0  0  0  0  0
   24.2377    6.3681   53.5396 C   0  0  0  0  0  0  0  0  0  0  0  0
   23.3817    7.1921   52.8226 O   0  0  0  0  0  0  0  0  0  0  0  0
   22.2541    7.3972   53.6600 C   0  0  0  0  0  0  0  0  0  0  0  0
   21.2451    8.0081   52.6317 C   0  0  0  0  0  0  0  0  0  0  0  0
   21.8664    6.0686   54.0724 C   0  0  0  0  0  0  0  0  0  0  0  0
   22.6447    8.4417   54.5826 N   0  0  0  0  0  0  0  0  0  0  0  0
   21.8145    9.3463   55.1682 C   0  0  0  0  0  0  0  0  0  0  0  0
   20.4494    9.4690   55.2022 C   0  0  0  0  0  0  0  0  0  0  0  0
   19.8364   10.4955   55.8912 C   0  0  0  0  0  0  0  0  0  0  0  0
   20.5814   11.4515   56.5825 C   0  0  0  0  0  0  0  0  0  0  0  0
   21.9568   11.3466   56.5621 C   0  0  0  0  0  0  0  0  0  0  0  0
   22.5285   10.3068   55.8623 C   0  0  0  0  0  0  0  0  0  0  0  0
   23.8375    9.9965   55.7139 C   0  0  0  0  0  0  0  0  0  0  0  0
   25.0667   10.5321   56.0994 C   0  0  0  0  0  0  0  0  0  0  0  0
   25.2671   11.7570   56.9289 C   0  0  0  0  0  0  0  0  0  0  0  0
   26.6937   11.8611   57.0413 N   0  0  0  0  0  0  0  0  0  0  0  0
   27.3318   10.7998   56.3309 C   0  0  0  0  0  0  0  0  0  0  0  0
   28.5693   10.7194   56.3030 O   0  0  0  0  0  0  0  0  0  0  0  0
   26.2905    9.9767   55.7469 C   0  0  0  0  0  0  0  0  0  0  0  0
   26.3478    8.8303   54.9777 C   0  0  0  0  0  0  0  0  0  0  0  0
   27.3212    8.0059   54.5055 C   0  0  0  0  0  0  0  0  0  0  0  0
   28.6747    8.0238   54.5624 C   0  0  0  0  0  0  0  0  0  0  0  0
   29.3789    6.9866   53.9514 C   0  0  0  0  0  0  0  0  0  0  0  0
   28.7187    5.9666   53.3043 C   0  0  0  0  0  0  0  0  0  0  0  0
   27.3245    5.9594   53.2521 C   0  0  0  0  0  0  0  0  0  0  0  0
   26.6403    6.9705   53.8481 C   0  0  0  0  0  0  0  0  0  0  0  0
   25.3335    7.1570   53.9156 N   0  0  0  0  0  0  0  0  0  0  0  0
   25.1385    8.3135   54.6063 C   0  0  0  0  0  0  0  0  0  0  0  0
   23.8981    8.8835   54.9573 C   0  0  0  0  0  0  0  0  0  0  0  0
   27.1802   12.6203   57.5772 H   0  0  0  0  0  0  0  0  0  0  0  0
   20.3855    4.4033   52.5498 C   0  0  0  0  0  0  0  0  0  0  0  0
   21.7957    4.4966   52.1543 N   0  0  0  0  0  0  0  0  0  0  0  0
   21.8367    5.3111   51.5049 H   0  0  0  0  0  0  0  0  0  0  0  0
   21.6621    5.8104   55.4215 O   0  0  0  0  0  0  0  0  0  0  0  0
   22.7845    5.4661   56.1340 C   0  0  0  0  0  0  0  0  0  0  0  0
 33 34  1  0  0  0
 34  1  1  0  0  0
  1  2  1  0  0  0
  2  3  1  0  0  0
  3  4  1  0  0  0
  4  5  1  0  0  0
  5  6  1  0  0  0
  5  7  1  0  0  0
  7 36  1  0  0  0
 36 37  1  0  0  0
  5  8  1  0  0  0
  8  9  1  0  0  0
  9 10  2  0  0  0
 10 11  1  0  0  0
 11 12  2  0  0  0
 12 13  1  0  0  0
 13 14  2  0  0  0
 14 15  1  0  0  0
 15 16  2  0  0  0
 16 17  1  0  0  0
 17 18  1  0  0  0
 18 19  1  0  0  0
 19 20  2  0  0  0
 19 21  1  0  0  0
 21 22  2  0  0  0
 22 23  1  0  0  0
 23 24  2  0  0  0
 24 25  1  0  0  0
 25 26  2  0  0  0
 26 27  1  0  0  0
 27 28  2  0  0  0
 28 29  1  0  0  0
 29 30  1  0  0  0
 30 31  2  0  0  0
  7  1  1  0  0  0
 31  8  1  0  0  0
 29  3  1  0  0  0
 14  9  1  0  0  0
 31 15  1  0  0  0
 21 16  1  0  0  0
 30 22  1  0  0  0
 28 23  1  0  0  0
 34 35  1  0  0  0
 18 32  1  0  0  0
M  END
> <minimizedAffinity>
83.70850

> <CNNscore>
0.0984097123

> <CNNaffinity>
5.5123386383

> <CNN_VS>
0.5424676538

> <CNNaffinity_variance>
1.5170034170

$$$$
[H]N=C(N([H])[H])N([H])C([H])([H])C([H])([H])C([H])([H])[C@@]([H])(C(=O)N([H])[C@]([H])(C(=O)N([H])[H])C([H])([H])c1c([H])nc([H])n1[H])N([H])C(=O)[C@@]([H])(N([H])C(=O)c1c([H])c([H])c(S(=O)(=O)N([H])[H])c([H])c1[H])C([H])([H])c1c([H])nc([H])n1[H]


 57 59  0  0  0  0  0  0  0  0999 V2000
   24.4032    6.7023   53.5513 C   0  0  0  0  0  0  0  0  0  0  0  0
   26.3626    8.0804   54.4016 C   0  0  0  0  0  0  0  0  0  0  0  0
   25.6905    8.6066   55.3337 O   0  0  0  0  0  0  0  0  0  0  0  0
   25.8116    7.1495   53.4982 N   0  0  0  0  0  0  0  0  0  0  0  0
   26.3878    6.7401   52.7530 H   0  0  0  0  0  0  0  0  0  0  0  0
   27.7823    8.4618   54.2603 C   0  0  0  0  0  0  0  0  0  0  0  0
   27.4651    8.9485   51.8357 C   0  0  0  0  0  0  0  0  0  0  0  0
   26.3641    9.4690   52.1100 O   0  0  0  0  0  0  0  0  0  0  0  0
   28.2511    8.4096   52.8892 N   0  0  0  0  0  0  0  0  0  0  0  0
   29.1591    7.9855   52.6324 H   0  0  0  0  0  0  0  0  0  0  0  0
   28.7560    8.9537   47.7607 C   0  0  0  0  0  0  0  0  0  0  0  0
   28.9811    7.8527   48.5603 C   0  0  0  0  0  0  0  0  0  0  0  0
   28.5653    7.8382   49.8849 C   0  0  0  0  0  0  0  0  0  0  0  0
   27.9154    8.9044   50.4666 C   0  0  0  0  0  0  0  0  0  0  0  0
   27.6907   10.0128   49.6553 C   0  0  0  0  0  0  0  0  0  0  0  0
   28.1055   10.0141   48.3516 C   0  0  0  0  0  0  0  0  0  0  0  0
   28.0268    8.2959   45.0871 N   0  0  0  0  0  0  0  0  0  0  0  0
   29.2712    9.0083   46.0872 S   0  0  0  0  0  0  0  0  0  0  0  0
   30.5199    8.2150   45.8558 O   0  0  0  0  0  0  0  0  0  0  0  0
   29.4809   10.4390   45.6746 O   0  0  0  0  0  0  0  0  0  0  0  0
   28.2053    7.2542   45.1189 H   0  0  0  0  0  0  0  0  0  0  0  0
   27.1230    8.4240   45.6280 H   0  0  0  0  0  0  0  0  0  0  0  0
   28.1627    9.7430   54.9142 C   0  0  0  0  0  0  0  0  0  0  0  0
   28.2126    9.7483   56.3837 C   0  0  0  0  0  0  0  0  0  0  0  0
   28.1707    8.5738   57.1571 C   0  0  0  0  0  0  0  0  0  0  0  0
   28.2097    8.9164   58.4521 N   0  0  0  0  0  0  0  0  0  0  0  0
   28.2738   10.2384   58.5555 C   0  0  0  0  0  0  0  0  0  0  0  0
   28.2742   10.7226   57.2963 N   0  0  0  0  0  0  0  0  0  0  0  0
   28.3075   11.7432   57.0822 H   0  0  0  0  0  0  0  0  0  0  0  0
   23.6364    8.0084   53.3987 C   0  0  0  0  0  0  0  0  0  0  0  0
   23.5969    8.5488   52.2434 O   0  0  0  0  0  0  0  0  0  0  0  0
   22.9809    8.6291   54.4592 N   0  0  0  0  0  0  0  0  0  0  0  0
   23.0171    8.1151   55.3971 H   0  0  0  0  0  0  0  0  0  0  0  0
   22.2721    9.8497   54.3974 C   0  0  0  0  0  0  0  0  0  0  0  0
   21.8016   10.2630   55.7174 C   0  0  0  0  0  0  0  0  0  0  0  0
   20.5241   10.8558   55.9383 N   0  0  0  0  0  0  0  0  0  0  0  0
   22.5731   10.0832   56.7166 O   0  0  0  0  0  0  0  0  0  0  0  0
   20.1195   10.8359   56.9016 H   0  0  0  0  0  0  0  0  0  0  0  0
   19.9685   11.3082   55.1982 H   0  0  0  0  0  0  0  0  0  0  0  0
   21.1508    9.9597   53.3943 C   0  0  0  0  0  0  0  0  0  0  0  0
   21.3625   11.0055   52.3850 C   0  0  0  0  0  0  0  0  0  0  0  0
   21.2411   10.9986   51.0058 C   0  0  0  0  0  0  0  0  0  0  0  0
   21.5379   12.1997   50.4886 N   0  0  0  0  0  0  0  0  0  0  0  0
   21.8488   12.9714   51.5455 C   0  0  0  0  0  0  0  0  0  0  0  0
   21.7450   12.2594   52.6868 N   0  0  0  0  0  0  0  0  0  0  0  0
   21.9438   12.6710   53.6382 H   0  0  0  0  0  0  0  0  0  0  0  0
   24.2641    6.1578   54.9549 C   0  0  0  0  0  0  0  0  0  0  0  0
   23.0124    5.4288   55.2584 C   0  0  0  0  0  0  0  0  0  0  0  0
   21.8021    6.2707   54.9034 C   0  0  0  0  0  0  0  0  0  0  0  0
   21.2517    5.8913   53.6097 N   0  0  0  0  0  0  0  0  0  0  0  0
   21.4433    4.9705   53.1656 H   0  0  0  0  0  0  0  0  0  0  0  0
   20.4058    6.7886   52.8802 C   0  0  0  0  0  0  0  0  0  0  0  0
   19.1055    7.1358   53.3838 N   0  0  0  0  0  0  0  0  0  0  0  0
   20.7695    7.3127   51.7620 N   0  0  0  0  0  0  0  0  0  0  0  0
   18.5502    6.4321   53.9066 H   0  0  0  0  0  0  0  0  0  0  0  0
   18.7656    8.1021   53.1997 H   0  0  0  0  0  0  0  0  0  0  0  0
   20.1910    7.9571   51.2147 H   0  0  0  0  0  0  0  0  0  0  0  0
 17 18  1  0  0  0
 18 19  2  0  0  0
 18 20  2  0  0  0
 18 11  1  0  0  0
 11 12  2  0  0  0
 12 13  1  0  0  0
 13 14  2  0  0  0
 14 15  1  0  0  0
 15 16  2  0  0  0
 14  7  1  0  0  0
  7  8  2  0  0  0
  7  9  1  0  0  0
  9  6  1  0  0  0
  6 23  1  0  0  0
 23 24  1  0  0  0
 24 25  2  0  0  0
 25 26  1  0  0  0
 26 27  2  0  0  0
 27 28  1  0  0  0
  6  2  1  0  0  0
  2  3  2  0  0  0
  2  4  1  0  0  0
  4  1  1  0  0  0
  1 47  1  0  0  0
 47 48  1  0  0  0
 48 49  1  0  0  0
 49 50  1  0  0  0
 50 52  1  0  0  0
 52 53  1  0  0  0
 52 54  2  0  0  0
  1 30  1  0  0  0
 30 31  2  0  0  0
 30 32  1  0  0  0
 32 34  1  0  0  0
 34 40  1  0  0  0
 40 41  1  0  0  0
 41 42  2  0  0  0
 42 43  1  0  0  0
 43 44  2  0  0  0
 44 45  1  0  0  0
 34 35  1  0  0  0
 35 36  1  0  0  0
 35 37  2  0  0  0
 16 11  1  0  0  0
 28 24  1  0  0  0
 45 41  1  0  0  0
 17 21  1  0  0  0
 17 22  1  0  0  0
  9 10  1  0  0  0
 28 29  1  0  0  0
  4  5  1  0  0  0
 50 51  1  0  0  0
 53 55  1  0  0  0
 53 56  1  0  0  0
 54 57  1  0  0  0
 32 33  1  0  0  0
 45 46  1  0  0  0
 36 38  1  0  0  0
 36 39  1  0  0  0
M  END
> <minimizedAffinity>
26.15096

> <CNNscore>
0.5346866846

> <CNNaffinity>
7.0209517479

> <CNN_VS>
3.7540094852

> <CNNaffinity_variance>
1.1193873882

$$$$
[H]N=C(N([H])[H])N([H])C([H])([H])C([H])([H])C([H])([H])[C@@]([H])(C(=O)N([H])[C@]([H])(C(=O)N([H])[H])C([H])([H])c1c([H])nc([H])n1[H])N([H])C(=O)[C@@]([H])(N([H])C(=O)c1c([H])c([H])c(S(=O)(=O)N([H])[H])c([H])c1[H])C([H])([H])c1c([H])nc([H])n1[H]


 57 59  0  0  0  0  0  0  0  0999 V2000
   27.3097    8.2194   54.2812 C   0  0  0  0  0  0  0  0  0  0  0  0
   24.8475    7.5972   54.1709 C   0  0  0  0  0  0  0  0  0  0  0  0
   25.0820    6.4122   53.7995 O   0  0  0  0  0  0  0  0  0  0  0  0
   25.8716    8.5317   54.4251 N   0  0  0  0  0  0  0  0  0  0  0  0
   25.6447    9.4867   54.7275 H   0  0  0  0  0  0  0  0  0  0  0  0
   23.4405    8.0118   54.3434 C   0  0  0  0  0  0  0  0  0  0  0  0
   22.0086   10.0183   53.9693 C   0  0  0  0  0  0  0  0  0  0  0  0
   21.3496    9.7057   54.9824 O   0  0  0  0  0  0  0  0  0  0  0  0
   23.0990    9.1956   53.5790 N   0  0  0  0  0  0  0  0  0  0  0  0
   23.6276    9.4795   52.7362 H   0  0  0  0  0  0  0  0  0  0  0  0
   20.9127   13.5775   51.8710 C   0  0  0  0  0  0  0  0  0  0  0  0
   21.5366   12.5424   51.2065 C   0  0  0  0  0  0  0  0  0  0  0  0
   21.8962   11.3807   51.8765 C   0  0  0  0  0  0  0  0  0  0  0  0
   21.6547   11.1985   53.2204 C   0  0  0  0  0  0  0  0  0  0  0  0
   21.0248   12.2460   53.8861 C   0  0  0  0  0  0  0  0  0  0  0  0
   20.6756   13.3853   53.2139 C   0  0  0  0  0  0  0  0  0  0  0  0
   21.7859   16.1841   51.1254 N   0  0  0  0  0  0  0  0  0  0  0  0
   20.4496   15.0588   51.0584 S   0  0  0  0  0  0  0  0  0  0  0  0
   19.2867   15.7271   51.7243 O   0  0  0  0  0  0  0  0  0  0  0  0
   20.1237   14.7603   49.6211 O   0  0  0  0  0  0  0  0  0  0  0  0
   21.7022   16.6613   52.0652 H   0  0  0  0  0  0  0  0  0  0  0  0
   22.6561   15.5833   51.2125 H   0  0  0  0  0  0  0  0  0  0  0  0
   22.4337    6.9335   54.1503 C   0  0  0  0  0  0  0  0  0  0  0  0
   21.4100    7.1590   53.1192 C   0  0  0  0  0  0  0  0  0  0  0  0
   21.7111    7.6376   51.8309 C   0  0  0  0  0  0  0  0  0  0  0  0
   20.5667    7.7563   51.1437 N   0  0  0  0  0  0  0  0  0  0  0  0
   19.5512    7.3830   51.9130 C   0  0  0  0  0  0  0  0  0  0  0  0
   20.0804    7.0262   53.1016 N   0  0  0  0  0  0  0  0  0  0  0  0
   19.5000    6.6987   53.9043 H   0  0  0  0  0  0  0  0  0  0  0  0
   27.8749    8.6389   55.6309 C   0  0  0  0  0  0  0  0  0  0  0  0
   29.0508    8.2481   55.9360 O   0  0  0  0  0  0  0  0  0  0  0  0
   27.1673    9.4264   56.5357 N   0  0  0  0  0  0  0  0  0  0  0  0
   26.2007    9.7547   56.2145 H   0  0  0  0  0  0  0  0  0  0  0  0
   27.6171    9.8336   57.8117 C   0  0  0  0  0  0  0  0  0  0  0  0
   28.3154   11.1154   57.7493 C   0  0  0  0  0  0  0  0  0  0  0  0
   28.1585   12.1362   58.7320 N   0  0  0  0  0  0  0  0  0  0  0  0
   29.1015   11.3273   56.7680 O   0  0  0  0  0  0  0  0  0  0  0  0
   28.8947   12.8732   58.8146 H   0  0  0  0  0  0  0  0  0  0  0  0
   27.3544   12.1929   59.3735 H   0  0  0  0  0  0  0  0  0  0  0  0
   28.4242    8.8472   58.6186 C   0  0  0  0  0  0  0  0  0  0  0  0
   29.0279    9.4262   59.8258 C   0  0  0  0  0  0  0  0  0  0  0  0
   30.3184    9.3858   60.3258 C   0  0  0  0  0  0  0  0  0  0  0  0
   30.4126   10.0690   61.4758 N   0  0  0  0  0  0  0  0  0  0  0  0
   29.1757   10.5446   61.7056 C   0  0  0  0  0  0  0  0  0  0  0  0
   28.3402   10.1618   60.7178 N   0  0  0  0  0  0  0  0  0  0  0  0
   27.3184   10.4261   60.6979 H   0  0  0  0  0  0  0  0  0  0  0  0
   27.7631    9.1641   53.1912 C   0  0  0  0  0  0  0  0  0  0  0  0
   27.2598    8.8875   51.8273 C   0  0  0  0  0  0  0  0  0  0  0  0
   28.0344    9.6871   50.7975 C   0  0  0  0  0  0  0  0  0  0  0  0
   27.9163    9.1000   49.4702 N   0  0  0  0  0  0  0  0  0  0  0  0
   27.4590    8.1814   49.3006 H   0  0  0  0  0  0  0  0  0  0  0  0
   28.4352    9.7773   48.3191 C   0  0  0  0  0  0  0  0  0  0  0  0
   28.6170   11.2027   48.3327 N   0  0  0  0  0  0  0  0  0  0  0  0
   28.7553    9.1475   47.2429 N   0  0  0  0  0  0  0  0  0  0  0  0
   27.9525   11.8023   48.8578 H   0  0  0  0  0  0  0  0  0  0  0  0
   29.4274   11.5847   47.8031 H   0  0  0  0  0  0  0  0  0  0  0  0
   29.1285    9.5992   46.4026 H   0  0  0  0  0  0  0  0  0  0  0  0
 17 18  1  0  0  0
 18 19  2  0  0  0
 18 20  2  0  0  0
 18 11  1  0  0  0
 11 12  2  0  0  0
 12 13  1  0  0  0
 13 14  2  0  0  0
 14 15  1  0  0  0
 15 16  2  0  0  0
 14  7  1  0  0  0
  7  8  2  0  0  0
  7  9  1  0  0  0
  9  6  1  0  0  0
  6 23  1  0  0  0
 23 24  1  0  0  0
 24 25  2  0  0  0
 25 26  1  0  0  0
 26 27  2  0  0  0
 27 28  1  0  0  0
  6  2  1  0  0  0
  2  3  2  0  0  0
  2  4  1  0  0  0
  4  1  1  0  0  0
  1 47  1  0  0  0
 47 48  1  0  0  0
 48 49  1  0  0  0
 49 50  1  0  0  0
 50 52  1  0  0  0
 52 53  1  0  0  0
 52 54  2  0  0  0
  1 30  1  0  0  0
 30 31  2  0  0  0
 30 32  1  0  0  0
 32 34  1  0  0  0
 34 40  1  0  0  0
 40 41  1  0  0  0
 41 42  2  0  0  0
 42 43  1  0  0  0
 43 44  2  0  0  0
 44 45  1  0  0  0
 34 35  1  0  0  0
 35 36  1  0  0  0
 35 37  2  0  0  0
 16 11  1  0  0  0
 28 24  1  0  0  0
 45 41  1  0  0  0
 17 21  1  0  0  0
 17 22  1  0  0  0
  9 10  1  0  0  0
 28 29  1  0  0  0
  4  5  1  0  0  0
 50 51  1  0  0  0
 53 55  1  0  0  0
 53 56  1  0  0  0
 54 57  1  0  0  0
 32 33  1  0  0  0
 45 46  1  0  0  0
 36 38  1  0  0  0
 36 39  1  0  0  0
M  END
> <minimizedAffinity>
14.72783

> <CNNscore>
0.5111653209

> <CNNaffinity>
7.1306085587

> <CNN_VS>
3.6449198723

> <CNNaffinity_variance>
1.4397308826

$$$$
[H]N=C(N([H])[H])N([H])C([H])([H])C([H])([H])C([H])([H])[C@@]([H])(C(=O)N([H])[C@]([H])(C(=O)N([H])[H])C([H])([H])c1c([H])nc([H])n1[H])N([H])C(=O)[C@@]([H])(N([H])C(=O)c1c([H])c([H])c(S(=O)(=O)N([H])[H])c([H])c1[H])C([H])([H])c1c([H])nc([H])n1[H]


 57 59  0  0  0  0  0  0  0  0999 V2000
   27.0945    8.4078   54.9154 C   0  0  0  0  0  0  0  0  0  0  0  0
   24.8157    7.5426   54.1941 C   0  0  0  0  0  0  0  0  0  0  0  0
   25.2781    6.4450   53.7714 O   0  0  0  0  0  0  0  0  0  0  0  0
   25.6301    8.5431   54.7619 N   0  0  0  0  0  0  0  0  0  0  0  0
   25.2201    9.4232   55.0970 H   0  0  0  0  0  0  0  0  0  0  0  0
   23.3619    7.7785   54.0854 C   0  0  0  0  0  0  0  0  0  0  0  0
   21.9076    9.7941   53.8877 C   0  0  0  0  0  0  0  0  0  0  0  0
   21.1996    9.3428   54.8115 O   0  0  0  0  0  0  0  0  0  0  0  0
   23.0370    9.0459   53.4602 N   0  0  0  0  0  0  0  0  0  0  0  0
   23.6058    9.4446   52.6935 H   0  0  0  0  0  0  0  0  0  0  0  0
   20.9471   13.4808   51.9492 C   0  0  0  0  0  0  0  0  0  0  0  0
   20.6868   13.3131   53.2932 C   0  0  0  0  0  0  0  0  0  0  0  0
   20.9955   12.1210   53.9347 C   0  0  0  0  0  0  0  0  0  0  0  0
   21.5695   11.0556   53.2767 C   0  0  0  0  0  0  0  0  0  0  0  0
   21.8302   11.2301   51.9206 C   0  0  0  0  0  0  0  0  0  0  0  0
   21.5212   12.4100   51.3008 C   0  0  0  0  0  0  0  0  0  0  0  0
   21.9848   15.9908   51.0915 N   0  0  0  0  0  0  0  0  0  0  0  0
   20.5664   14.9690   51.1071 S   0  0  0  0  0  0  0  0  0  0  0  0
   19.4826   15.7427   51.7921 O   0  0  0  0  0  0  0  0  0  0  0  0
   20.1653   14.6548   49.6923 O   0  0  0  0  0  0  0  0  0  0  0  0
   21.9724   16.4999   52.0181 H   0  0  0  0  0  0  0  0  0  0  0  0
   22.8101   15.3283   51.1668 H   0  0  0  0  0  0  0  0  0  0  0  0
   22.5818    6.6629   53.4849 C   0  0  0  0  0  0  0  0  0  0  0  0
   21.3627    7.0275   52.7482 C   0  0  0  0  0  0  0  0  0  0  0  0
   21.3859    7.6473   51.4853 C   0  0  0  0  0  0  0  0  0  0  0  0
   20.1223    7.8680   51.0973 N   0  0  0  0  0  0  0  0  0  0  0  0
   19.2913    7.4278   52.0343 C   0  0  0  0  0  0  0  0  0  0  0  0
   20.0589    6.9242   53.0228 N   0  0  0  0  0  0  0  0  0  0  0  0
   19.6610    6.5168   53.8970 H   0  0  0  0  0  0  0  0  0  0  0  0
   27.3506    9.0914   56.2511 C   0  0  0  0  0  0  0  0  0  0  0  0
   26.3895    9.7364   56.7884 O   0  0  0  0  0  0  0  0  0  0  0  0
   28.5795    9.0392   56.9044 N   0  0  0  0  0  0  0  0  0  0  0  0
   29.3391    8.4562   56.4266 H   0  0  0  0  0  0  0  0  0  0  0  0
   28.8959    9.6665   58.1302 C   0  0  0  0  0  0  0  0  0  0  0  0
   28.5581    8.8167   59.2695 C   0  0  0  0  0  0  0  0  0  0  0  0
   29.5118    8.4119   60.2488 N   0  0  0  0  0  0  0  0  0  0  0  0
   27.3522    8.4205   59.3903 O   0  0  0  0  0  0  0  0  0  0  0  0
   29.1693    8.0879   61.1814 H   0  0  0  0  0  0  0  0  0  0  0  0
   30.5298    8.4190   60.0920 H   0  0  0  0  0  0  0  0  0  0  0  0
   28.3745   11.0635   58.3583 C   0  0  0  0  0  0  0  0  0  0  0  0
   28.8998   11.6983   59.5741 C   0  0  0  0  0  0  0  0  0  0  0  0
   28.3769   12.6697   60.4107 C   0  0  0  0  0  0  0  0  0  0  0  0
   29.2197   12.9457   61.4166 N   0  0  0  0  0  0  0  0  0  0  0  0
   30.2817   12.1451   61.2162 C   0  0  0  0  0  0  0  0  0  0  0  0
   30.0949   11.3938   60.1113 N   0  0  0  0  0  0  0  0  0  0  0  0
   30.8063   10.6935   59.7683 H   0  0  0  0  0  0  0  0  0  0  0  0
   27.6415    9.2352   53.7742 C   0  0  0  0  0  0  0  0  0  0  0  0
   27.4471    8.6901   52.4121 C   0  0  0  0  0  0  0  0  0  0  0  0
   27.7992    9.7281   51.3640 C   0  0  0  0  0  0  0  0  0  0  0  0
   28.0654    9.1102   50.0725 N   0  0  0  0  0  0  0  0  0  0  0  0
   27.9919    8.0849   49.9142 H   0  0  0  0  0  0  0  0  0  0  0  0
   28.4466    9.9052   48.9431 C   0  0  0  0  0  0  0  0  0  0  0  0
   28.6126    9.3014   47.6497 N   0  0  0  0  0  0  0  0  0  0  0  0
   28.6524   11.1724   49.0383 N   0  0  0  0  0  0  0  0  0  0  0  0
   28.9833    8.3350   47.5755 H   0  0  0  0  0  0  0  0  0  0  0  0
   28.3475    9.8713   46.8203 H   0  0  0  0  0  0  0  0  0  0  0  0
   28.9256   11.7705   48.2527 H   0  0  0  0  0  0  0  0  0  0  0  0
 17 18  1  0  0  0
 18 19  2  0  0  0
 18 20  2  0  0  0
 18 11  1  0  0  0
 11 12  2  0  0  0
 12 13  1  0  0  0
 13 14  2  0  0  0
 14 15  1  0  0  0
 15 16  2  0  0  0
 14  7  1  0  0  0
  7  8  2  0  0  0
  7  9  1  0  0  0
  9  6  1  0  0  0
  6 23  1  0  0  0
 23 24  1  0  0  0
 24 25  2  0  0  0
 25 26  1  0  0  0
 26 27  2  0  0  0
 27 28  1  0  0  0
  6  2  1  0  0  0
  2  3  2  0  0  0
  2  4  1  0  0  0
  4  1  1  0  0  0
  1 47  1  0  0  0
 47 48  1  0  0  0
 48 49  1  0  0  0
 49 50  1  0  0  0
 50 52  1  0  0  0
 52 53  1  0  0  0
 52 54  2  0  0  0
  1 30  1  0  0  0
 30 31  2  0  0  0
 30 32  1  0  0  0
 32 34  1  0  0  0
 34 40  1  0  0  0
 40 41  1  0  0  0
 41 42  2  0  0  0
 42 43  1  0  0  0
 43 44  2  0  0  0
 44 45  1  0  0  0
 34 35  1  0  0  0
 35 36  1  0  0  0
 35 37  2  0  0  0
 16 11  1  0  0  0
 28 24  1  0  0  0
 45 41  1  0  0  0
 17 21  1  0  0  0
 17 22  1  0  0  0
  9 10  1  0  0  0
 28 29  1  0  0  0
  4  5  1  0  0  0
 50 51  1  0  0  0
 53 55  1  0  0  0
 53 56  1  0  0  0
 54 57  1  0  0  0
 32 33  1  0  0  0
 45 46  1  0  0  0
 36 38  1  0  0  0
 36 39  1  0  0  0
M  END
> <minimizedAffinity>
14.16768

> <CNNscore>
0.4823918641

> <CNNaffinity>
7.0786561966

> <CNN_VS>
3.4146862030

> <CNNaffinity_variance>
1.2339622974

$$$$
[H]N=C(N([H])[H])N([H])C([H])([H])C([H])([H])C([H])([H])[C@@]([H])(C(=O)N([H])[C@]([H])(C(=O)N([H])[H])C([H])([H])c1c([H])nc([H])n1[H])N([H])C(=O)[C@@]([H])(N([H])C(=O)c1c([H])c([H])c(S(=O)(=O)N([H])[H])c([H])c1[H])C([H])([H])c1c([H])nc([H])n1[H]


 57 59  0  0  0  0  0  0  0  0999 V2000
   21.2160    7.8989   51.5634 C   0  0  0  0  0  0  0  0  0  0  0  0
   23.4863    7.8155   52.7038 C   0  0  0  0  0  0  0  0  0  0  0  0
   23.7617    9.0158   52.4195 O   0  0  0  0  0  0  0  0  0  0  0  0
   22.2747    7.2028   52.3256 N   0  0  0  0  0  0  0  0  0  0  0  0
   22.0831    6.2250   52.5752 H   0  0  0  0  0  0  0  0  0  0  0  0
   24.4798    7.0300   53.4634 C   0  0  0  0  0  0  0  0  0  0  0  0
   26.4824    8.0699   54.5240 C   0  0  0  0  0  0  0  0  0  0  0  0
   27.1689    7.6695   53.5613 O   0  0  0  0  0  0  0  0  0  0  0  0
   25.0919    7.7797   54.5432 N   0  0  0  0  0  0  0  0  0  0  0  0
   24.5479    8.1246   55.3528 H   0  0  0  0  0  0  0  0  0  0  0  0
   28.2243   10.2405   57.7684 C   0  0  0  0  0  0  0  0  0  0  0  0
   28.9009   10.1139   56.5733 C   0  0  0  0  0  0  0  0  0  0  0  0
   28.3452    9.4128   55.5116 C   0  0  0  0  0  0  0  0  0  0  0  0
   27.1074    8.8133   55.5897 C   0  0  0  0  0  0  0  0  0  0  0  0
   26.4289    8.9442   56.7979 C   0  0  0  0  0  0  0  0  0  0  0  0
   26.9878    9.6379   57.8362 C   0  0  0  0  0  0  0  0  0  0  0  0
   28.2752   12.7473   59.1196 N   0  0  0  0  0  0  0  0  0  0  0  0
   28.8973   11.1137   59.1299 S   0  0  0  0  0  0  0  0  0  0  0  0
   30.3891   11.2177   59.0510 O   0  0  0  0  0  0  0  0  0  0  0  0
   28.4911   10.4358   60.4093 O   0  0  0  0  0  0  0  0  0  0  0  0
   28.9013   13.2804   58.4550 H   0  0  0  0  0  0  0  0  0  0  0  0
   27.3438   12.6910   58.6146 H   0  0  0  0  0  0  0  0  0  0  0  0
   24.0125    5.6959   53.9275 C   0  0  0  0  0  0  0  0  0  0  0  0
   23.1794    5.6695   55.1388 C   0  0  0  0  0  0  0  0  0  0  0  0
   23.4035    4.7792   56.2049 C   0  0  0  0  0  0  0  0  0  0  0  0
   22.4657    4.9901   57.1386 N   0  0  0  0  0  0  0  0  0  0  0  0
   21.6546    5.9609   56.7358 C   0  0  0  0  0  0  0  0  0  0  0  0
   22.1016    6.3579   55.5264 N   0  0  0  0  0  0  0  0  0  0  0  0
   21.6379    7.1089   54.9701 H   0  0  0  0  0  0  0  0  0  0  0  0
   21.0842    9.2181   52.3114 C   0  0  0  0  0  0  0  0  0  0  0  0
   20.5831    9.1943   53.4848 O   0  0  0  0  0  0  0  0  0  0  0  0
   21.4872   10.4372   51.7720 N   0  0  0  0  0  0  0  0  0  0  0  0
   21.9323   10.3946   50.7997 H   0  0  0  0  0  0  0  0  0  0  0  0
   21.3742   11.6997   52.3962 C   0  0  0  0  0  0  0  0  0  0  0  0
   21.4741   12.7874   51.4260 C   0  0  0  0  0  0  0  0  0  0  0  0
   20.7691   14.0191   51.5617 N   0  0  0  0  0  0  0  0  0  0  0  0
   22.2286   12.6236   50.4112 O   0  0  0  0  0  0  0  0  0  0  0  0
   21.1104   14.8553   51.0361 H   0  0  0  0  0  0  0  0  0  0  0  0
   19.9338   14.1370   52.1530 H   0  0  0  0  0  0  0  0  0  0  0  0
   22.2690   11.9807   53.5776 C   0  0  0  0  0  0  0  0  0  0  0  0
   22.1722   10.9750   54.6437 C   0  0  0  0  0  0  0  0  0  0  0  0
   23.1314   10.2058   55.2801 C   0  0  0  0  0  0  0  0  0  0  0  0
   22.5767    9.4116   56.2074 N   0  0  0  0  0  0  0  0  0  0  0  0
   21.2595    9.6792   56.1582 C   0  0  0  0  0  0  0  0  0  0  0  0
   21.0110   10.6174   55.2210 N   0  0  0  0  0  0  0  0  0  0  0  0
   20.0404   10.9776   55.0150 H   0  0  0  0  0  0  0  0  0  0  0  0
   19.9988    7.0302   51.7865 C   0  0  0  0  0  0  0  0  0  0  0  0
   19.8415    6.4499   53.1388 C   0  0  0  0  0  0  0  0  0  0  0  0
   20.2266    4.9831   53.1408 C   0  0  0  0  0  0  0  0  0  0  0  0
   19.0522    4.1252   53.0681 N   0  0  0  0  0  0  0  0  0  0  0  0
   18.7509    3.6583   52.1889 H   0  0  0  0  0  0  0  0  0  0  0  0
   18.2470    3.8831   54.2282 C   0  0  0  0  0  0  0  0  0  0  0  0
   16.8780    4.3179   54.2688 N   0  0  0  0  0  0  0  0  0  0  0  0
   18.7086    3.2755   55.2651 N   0  0  0  0  0  0  0  0  0  0  0  0
   16.6021    5.1978   53.7929 H   0  0  0  0  0  0  0  0  0  0  0  0
   16.2027    3.7182   54.7858 H   0  0  0  0  0  0  0  0  0  0  0  0
   18.1619    3.0858   56.1104 H   0  0  0  0  0  0  0  0  0  0  0  0
 17 18  1  0  0  0
 18 19  2  0  0  0
 18 20  2  0  0  0
 18 11  1  0  0  0
 11 12  2  0  0  0
 12 13  1  0  0  0
 13 14  2  0  0  0
 14 15  1  0  0  0
 15 16  2  0  0  0
 14  7  1  0  0  0
  7  8  2  0  0  0
  7  9  1  0  0  0
  9  6  1  0  0  0
  6 23  1  0  0  0
 23 24  1  0  0  0
 24 25  2  0  0  0
 25 26  1  0  0  0
 26 27  2  0  0  0
 27 28  1  0  0  0
  6  2  1  0  0  0
  2  3  2  0  0  0
  2  4  1  0  0  0
  4  1  1  0  0  0
  1 47  1  0  0  0
 47 48  1  0  0  0
 48 49  1  0  0  0
 49 50  1  0  0  0
 50 52  1  0  0  0
 52 53  1  0  0  0
 52 54  2  0  0  0
  1 30  1  0  0  0
 30 31  2  0  0  0
 30 32  1  0  0  0
 32 34  1  0  0  0
 34 40  1  0  0  0
 40 41  1  0  0  0
 41 42  2  0  0  0
 42 43  1  0  0  0
 43 44  2  0  0  0
 44 45  1  0  0  0
 34 35  1  0  0  0
 35 36  1  0  0  0
 35 37  2  0  0  0
 16 11  1  0  0  0
 28 24  1  0  0  0
 45 41  1  0  0  0
 17 21  1  0  0  0
 17 22  1  0  0  0
  9 10  1  0  0  0
 28 29  1  0  0  0
  4  5  1  0  0  0
 50 51  1  0  0  0
 53 55  1  0  0  0
 53 56  1  0  0  0
 54 57  1  0  0  0
 32 33  1  0  0  0
 45 46  1  0  0  0
 36 38  1  0  0  0
 36 39  1  0  0  0
M  END
> <minimizedAffinity>
19.55335

> <CNNscore>
0.4410838485

> <CNNaffinity>
7.1294350624

> <CNN_VS>
3.1446785927

> <CNNaffinity_variance>
1.3249022961

$$$$
[H]N=C(N([H])[H])N([H])C([H])([H])C([H])([H])C([H])([H])[C@@]([H])(C(=O)N([H])[C@]([H])(C(=O)N([H])[H])C([H])([H])c1c([H])nc([H])n1[H])N([H])C(=O)[C@@]([H])(N([H])C(=O)c1c([H])c([H])c(S(=O)(=O)N([H])[H])c([H])c1[H])C([H])([H])c1c([H])nc([H])n1[H]


 57 59  0  0  0  0  0  0  0  0999 V2000
   22.1903    7.8873   51.4701 C   0  0  0  0  0  0  0  0  0  0  0  0
   24.2545    7.8246   52.9522 C   0  0  0  0  0  0  0  0  0  0  0  0
   24.6709    8.9500   52.5556 O   0  0  0  0  0  0  0  0  0  0  0  0
   23.0627    7.2429   52.4752 N   0  0  0  0  0  0  0  0  0  0  0  0
   22.7531    6.3267   52.8210 H   0  0  0  0  0  0  0  0  0  0  0  0
   25.0553    7.0958   53.9566 C   0  0  0  0  0  0  0  0  0  0  0  0
   26.9123    8.2128   55.1897 C   0  0  0  0  0  0  0  0  0  0  0  0
   27.7191    7.7052   54.3836 O   0  0  0  0  0  0  0  0  0  0  0  0
   25.5259    7.9452   55.0335 N   0  0  0  0  0  0  0  0  0  0  0  0
   24.8806    8.3797   55.7154 H   0  0  0  0  0  0  0  0  0  0  0  0
   28.3860   10.5893   58.4226 C   0  0  0  0  0  0  0  0  0  0  0  0
   27.9305   11.1910   57.2682 C   0  0  0  0  0  0  0  0  0  0  0  0
   27.4480   10.4302   56.2117 C   0  0  0  0  0  0  0  0  0  0  0  0
   27.3976    9.0543   56.2552 C   0  0  0  0  0  0  0  0  0  0  0  0
   27.8583    8.4522   57.4224 C   0  0  0  0  0  0  0  0  0  0  0  0
   28.3311    9.2136   58.4561 C   0  0  0  0  0  0  0  0  0  0  0  0
   28.8375   13.2207   59.4150 N   0  0  0  0  0  0  0  0  0  0  0  0
   29.0057   11.5178   59.7728 S   0  0  0  0  0  0  0  0  0  0  0  0
   30.4630   11.2664   60.0080 O   0  0  0  0  0  0  0  0  0  0  0  0
   28.2159   11.1902   61.0098 O   0  0  0  0  0  0  0  0  0  0  0  0
   29.6885   13.4704   58.8393 H   0  0  0  0  0  0  0  0  0  0  0  0
   28.0292   13.2864   58.7308 H   0  0  0  0  0  0  0  0  0  0  0  0
   24.4327    5.8507   54.4818 C   0  0  0  0  0  0  0  0  0  0  0  0
   23.2520    6.0120   55.3432 C   0  0  0  0  0  0  0  0  0  0  0  0
   22.8990    5.0864   56.3423 C   0  0  0  0  0  0  0  0  0  0  0  0
   21.7691    5.5050   56.9288 N   0  0  0  0  0  0  0  0  0  0  0  0
   21.3767    6.6418   56.3665 C   0  0  0  0  0  0  0  0  0  0  0  0
   22.2846    6.9313   55.4115 N   0  0  0  0  0  0  0  0  0  0  0  0
   22.2143    7.7741   54.8005 H   0  0  0  0  0  0  0  0  0  0  0  0
   21.8433    9.2118   52.1352 C   0  0  0  0  0  0  0  0  0  0  0  0
   21.2085   10.0795   51.4478 O   0  0  0  0  0  0  0  0  0  0  0  0
   22.1858    9.5099   53.4518 N   0  0  0  0  0  0  0  0  0  0  0  0
   22.6862    8.7337   53.9925 H   0  0  0  0  0  0  0  0  0  0  0  0
   21.9187   10.7228   54.1254 C   0  0  0  0  0  0  0  0  0  0  0  0
   21.7910   10.5181   55.5663 C   0  0  0  0  0  0  0  0  0  0  0  0
   20.5798   10.7500   56.2815 N   0  0  0  0  0  0  0  0  0  0  0  0
   22.8136   10.1128   56.2112 O   0  0  0  0  0  0  0  0  0  0  0  0
   20.4514   10.2975   57.2146 H   0  0  0  0  0  0  0  0  0  0  0  0
   19.8140   11.3432   55.9310 H   0  0  0  0  0  0  0  0  0  0  0  0
   20.7741   11.5669   53.6226 C   0  0  0  0  0  0  0  0  0  0  0  0
   21.1610   12.5238   52.5777 C   0  0  0  0  0  0  0  0  0  0  0  0
   20.6921   13.7873   52.2603 C   0  0  0  0  0  0  0  0  0  0  0  0
   21.3534   14.2988   51.2118 N   0  0  0  0  0  0  0  0  0  0  0  0
   22.2456   13.3546   50.8633 C   0  0  0  0  0  0  0  0  0  0  0  0
   22.1346   12.2867   51.6802 N   0  0  0  0  0  0  0  0  0  0  0  0
   22.7413   11.4280   51.5854 H   0  0  0  0  0  0  0  0  0  0  0  0
   20.9838    6.9772   51.4224 C   0  0  0  0  0  0  0  0  0  0  0  0
   19.8134    7.3909   52.2280 C   0  0  0  0  0  0  0  0  0  0  0  0
   19.6797    6.5229   53.4644 C   0  0  0  0  0  0  0  0  0  0  0  0
   20.2271    5.1921   53.2412 N   0  0  0  0  0  0  0  0  0  0  0  0
   21.2216    5.0294   52.9838 H   0  0  0  0  0  0  0  0  0  0  0  0
   19.4021    4.0279   53.3702 C   0  0  0  0  0  0  0  0  0  0  0  0
   19.8334    2.7660   52.8350 N   0  0  0  0  0  0  0  0  0  0  0  0
   18.2591    4.0631   53.9617 N   0  0  0  0  0  0  0  0  0  0  0  0
   20.3908    2.7405   51.9600 H   0  0  0  0  0  0  0  0  0  0  0  0
   19.5633    1.9086   53.3593 H   0  0  0  0  0  0  0  0  0  0  0  0
   17.6442    3.2511   54.0719 H   0  0  0  0  0  0  0  0  0  0  0  0
 17 18  1  0  0  0
 18 19  2  0  0  0
 18 20  2  0  0  0
 18 11  1  0  0  0
 11 12  2  0  0  0
 12 13  1  0  0  0
 13 14  2  0  0  0
 14 15  1  0  0  0
 15 16  2  0  0  0
 14  7  1  0  0  0
  7  8  2  0  0  0
  7  9  1  0  0  0
  9  6  1  0  0  0
  6 23  1  0  0  0
 23 24  1  0  0  0
 24 25  2  0  0  0
 25 26  1  0  0  0
 26 27  2  0  0  0
 27 28  1  0  0  0
  6  2  1  0  0  0
  2  3  2  0  0  0
  2  4  1  0  0  0
  4  1  1  0  0  0
  1 47  1  0  0  0
 47 48  1  0  0  0
 48 49  1  0  0  0
 49 50  1  0  0  0
 50 52  1  0  0  0
 52 53  1  0  0  0
 52 54  2  0  0  0
  1 30  1  0  0  0
 30 31  2  0  0  0
 30 32  1  0  0  0
 32 34  1  0  0  0
 34 40  1  0  0  0
 40 41  1  0  0  0
 41 42  2  0  0  0
 42 43  1  0  0  0
 43 44  2  0  0  0
 44 45  1  0  0  0
 34 35  1  0  0  0
 35 36  1  0  0  0
 35 37  2  0  0  0
 16 11  1  0  0  0
 28 24  1  0  0  0
 45 41  1  0  0  0
 17 21  1  0  0  0
 17 22  1  0  0  0
  9 10  1  0  0  0
 28 29  1  0  0  0
  4  5  1  0  0  0
 50 51  1  0  0  0
 53 55  1  0  0  0
 53 56  1  0  0  0
 54 57  1  0  0  0
 32 33  1  0  0  0
 45 46  1  0  0  0
 36 38  1  0  0  0
 36 39  1  0  0  0
M  END
> <minimizedAffinity>
21.14365

> <CNNscore>
0.4251130223

> <CNNaffinity>
6.9874410629

> <CNN_VS>
2.9704520702

> <CNNaffinity_variance>
0.7011414170

$$$$
[H]N=C(N([H])[H])N([H])C([H])([H])C([H])([H])C([H])([H])[C@@]([H])(C(=O)N([H])[C@]([H])(C(=O)N([H])[H])C([H])([H])c1c([H])nc([H])n1[H])N([H])C(=O)[C@@]([H])(N([H])C(=O)c1c([H])c([H])c(S(=O)(=O)N([H])[H])c([H])c1[H])C([H])([H])c1c([H])nc([H])n1[H]


 57 59  0  0  0  0  0  0  0  0999 V2000
   27.1152    8.5175   55.2254 C   0  0  0  0  0  0  0  0  0  0  0  0
   24.8533    7.6393   54.4677 C   0  0  0  0  0  0  0  0  0  0  0  0
   25.3172    6.5166   54.1189 O   0  0  0  0  0  0  0  0  0  0  0  0
   25.6589    8.6595   55.0123 N   0  0  0  0  0  0  0  0  0  0  0  0
   25.2479    9.5599   55.2867 H   0  0  0  0  0  0  0  0  0  0  0  0
   23.4072    7.8840   54.2945 C   0  0  0  0  0  0  0  0  0  0  0  0
   21.9465    9.8483   53.8206 C   0  0  0  0  0  0  0  0  0  0  0  0
   21.1651    9.4496   54.7088 O   0  0  0  0  0  0  0  0  0  0  0  0
   23.1209    9.0958   53.5513 N   0  0  0  0  0  0  0  0  0  0  0  0
   23.7503    9.4503   52.8107 H   0  0  0  0  0  0  0  0  0  0  0  0
   21.0145   13.4870   51.7802 C   0  0  0  0  0  0  0  0  0  0  0  0
   21.5652   12.4256   51.0931 C   0  0  0  0  0  0  0  0  0  0  0  0
   21.8710   11.2379   51.7441 C   0  0  0  0  0  0  0  0  0  0  0  0
   21.6459   11.0549   53.0907 C   0  0  0  0  0  0  0  0  0  0  0  0
   21.0899   12.1291   53.7793 C   0  0  0  0  0  0  0  0  0  0  0  0
   20.7932   13.2938   53.1258 C   0  0  0  0  0  0  0  0  0  0  0  0
   19.3035   15.7629   51.8523 N   0  0  0  0  0  0  0  0  0  0  0  0
   20.6210   15.0012   50.9919 S   0  0  0  0  0  0  0  0  0  0  0  0
   20.1584   14.7990   49.5822 O   0  0  0  0  0  0  0  0  0  0  0  0
   21.8213   15.9066   51.0198 O   0  0  0  0  0  0  0  0  0  0  0  0
   18.4245   15.3209   51.4649 H   0  0  0  0  0  0  0  0  0  0  0  0
   19.3661   15.3958   52.8458 H   0  0  0  0  0  0  0  0  0  0  0  0
   22.6273    6.7304   53.7704 C   0  0  0  0  0  0  0  0  0  0  0  0
   21.4944    7.0426   52.8866 C   0  0  0  0  0  0  0  0  0  0  0  0
   21.6487    7.6499   51.6269 C   0  0  0  0  0  0  0  0  0  0  0  0
   20.4345    7.8202   51.0859 N   0  0  0  0  0  0  0  0  0  0  0  0
   19.5120    7.3592   51.9220 C   0  0  0  0  0  0  0  0  0  0  0  0
   20.1715    6.8942   53.0032 N   0  0  0  0  0  0  0  0  0  0  0  0
   19.6850    6.4813   53.8288 H   0  0  0  0  0  0  0  0  0  0  0  0
   27.3291    9.2523   56.5413 C   0  0  0  0  0  0  0  0  0  0  0  0
   26.3031    9.7121   57.1448 O   0  0  0  0  0  0  0  0  0  0  0  0
   28.5876    9.4382   57.1081 N   0  0  0  0  0  0  0  0  0  0  0  0
   29.4087    9.0022   56.5780 H   0  0  0  0  0  0  0  0  0  0  0  0
   28.8638   10.1277   58.3099 C   0  0  0  0  0  0  0  0  0  0  0  0
   28.7422    9.2494   59.4711 C   0  0  0  0  0  0  0  0  0  0  0  0
   29.1670    7.8886   59.4660 N   0  0  0  0  0  0  0  0  0  0  0  0
   28.2316    9.7264   60.5377 O   0  0  0  0  0  0  0  0  0  0  0  0
   29.3516    7.4152   60.3792 H   0  0  0  0  0  0  0  0  0  0  0  0
   29.3047    7.3364   58.6074 H   0  0  0  0  0  0  0  0  0  0  0  0
   28.1267   11.4193   58.5628 C   0  0  0  0  0  0  0  0  0  0  0  0
   28.6422   12.1782   59.7098 C   0  0  0  0  0  0  0  0  0  0  0  0
   28.0896   13.1941   60.4711 C   0  0  0  0  0  0  0  0  0  0  0  0
   28.9351   13.5916   61.4331 N   0  0  0  0  0  0  0  0  0  0  0  0
   30.0287   12.8236   61.2805 C   0  0  0  0  0  0  0  0  0  0  0  0
   29.8582   11.9729   60.2472 N   0  0  0  0  0  0  0  0  0  0  0  0
   30.5949   11.2773   59.9511 H   0  0  0  0  0  0  0  0  0  0  0  0
   27.7124    9.2932   54.0731 C   0  0  0  0  0  0  0  0  0  0  0  0
   27.4708    8.7509   52.7175 C   0  0  0  0  0  0  0  0  0  0  0  0
   28.1088    9.6361   51.6644 C   0  0  0  0  0  0  0  0  0  0  0  0
   27.6208    9.3122   50.3312 N   0  0  0  0  0  0  0  0  0  0  0  0
   26.7563    8.7573   50.1686 H   0  0  0  0  0  0  0  0  0  0  0  0
   28.3252    9.7540   49.1643 C   0  0  0  0  0  0  0  0  0  0  0  0
   28.6280   11.1464   48.9794 N   0  0  0  0  0  0  0  0  0  0  0  0
   28.7101    8.9353   48.2484 N   0  0  0  0  0  0  0  0  0  0  0  0
   27.9627   11.8680   49.3164 H   0  0  0  0  0  0  0  0  0  0  0  0
   29.5239   11.3803   48.5042 H   0  0  0  0  0  0  0  0  0  0  0  0
   29.2150    9.2161   47.4024 H   0  0  0  0  0  0  0  0  0  0  0  0
 17 18  1  0  0  0
 18 19  2  0  0  0
 18 20  2  0  0  0
 18 11  1  0  0  0
 11 12  2  0  0  0
 12 13  1  0  0  0
 13 14  2  0  0  0
 14 15  1  0  0  0
 15 16  2  0  0  0
 14  7  1  0  0  0
  7  8  2  0  0  0
  7  9  1  0  0  0
  9  6  1  0  0  0
  6 23  1  0  0  0
 23 24  1  0  0  0
 24 25  2  0  0  0
 25 26  1  0  0  0
 26 27  2  0  0  0
 27 28  1  0  0  0
  6  2  1  0  0  0
  2  3  2  0  0  0
  2  4  1  0  0  0
  4  1  1  0  0  0
  1 47  1  0  0  0
 47 48  1  0  0  0
 48 49  1  0  0  0
 49 50  1  0  0  0
 50 52  1  0  0  0
 52 53  1  0  0  0
 52 54  2  0  0  0
  1 30  1  0  0  0
 30 31  2  0  0  0
 30 32  1  0  0  0
 32 34  1  0  0  0
 34 40  1  0  0  0
 40 41  1  0  0  0
 41 42  2  0  0  0
 42 43  1  0  0  0
 43 44  2  0  0  0
 44 45  1  0  0  0
 34 35  1  0  0  0
 35 36  1  0  0  0
 35 37  2  0  0  0
 16 11  1  0  0  0
 28 24  1  0  0  0
 45 41  1  0  0  0
 17 21  1  0  0  0
 17 22  1  0  0  0
  9 10  1  0  0  0
 28 29  1  0  0  0
  4  5  1  0  0  0
 50 51  1  0  0  0
 53 55  1  0  0  0
 53 56  1  0  0  0
 54 57  1  0  0  0
 32 33  1  0  0  0
 45 46  1  0  0  0
 36 38  1  0  0  0
 36 39  1  0  0  0
M  END
> <minimizedAffinity>
12.15008

> <CNNscore>
0.4224313498

> <CNNaffinity>
7.0623064041

> <CNN_VS>
2.9833395481

> <CNNaffinity_variance>
1.1761367321

$$$$
[H]N=C(N([H])[H])N([H])C([H])([H])C([H])([H])C([H])([H])[C@@]([H])(C(=O)N([H])[C@]([H])(C(=O)N([H])[H])C([H])([H])c1c([H])nc([H])n1[H])N([H])C(=O)[C@@]([H])(N([H])C(=O)c1c([H])c([H])c(S(=O)(=O)N([H])[H])c([H])c1[H])C([H])([H])c1c([H])nc([H])n1[H]


 57 59  0  0  0  0  0  0  0  0999 V2000
   22.3190    7.0888   52.5336 C   0  0  0  0  0  0  0  0  0  0  0  0
   24.4091    7.5022   53.9200 C   0  0  0  0  0  0  0  0  0  0  0  0
   23.8952    7.0394   54.9778 O   0  0  0  0  0  0  0  0  0  0  0  0
   23.7112    7.5596   52.6969 N   0  0  0  0  0  0  0  0  0  0  0  0
   24.1607    7.9408   51.8558 H   0  0  0  0  0  0  0  0  0  0  0  0
   25.7980    8.0012   53.9763 C   0  0  0  0  0  0  0  0  0  0  0  0
   27.3243    9.2548   55.4980 C   0  0  0  0  0  0  0  0  0  0  0  0
   27.9520    9.6564   54.4964 O   0  0  0  0  0  0  0  0  0  0  0  0
   26.2047    8.4010   55.3095 N   0  0  0  0  0  0  0  0  0  0  0  0
   25.7032    8.0845   56.1573 H   0  0  0  0  0  0  0  0  0  0  0  0
   28.5649   10.5972   59.3620 C   0  0  0  0  0  0  0  0  0  0  0  0
   28.3055    9.2610   59.1400 C   0  0  0  0  0  0  0  0  0  0  0  0
   27.9034    8.8122   57.8891 C   0  0  0  0  0  0  0  0  0  0  0  0
   27.7430    9.6615   56.8165 C   0  0  0  0  0  0  0  0  0  0  0  0
   28.0061   11.0088   57.0459 C   0  0  0  0  0  0  0  0  0  0  0  0
   28.4018   11.4378   58.2833 C   0  0  0  0  0  0  0  0  0  0  0  0
   30.1392   12.5613   60.6949 N   0  0  0  0  0  0  0  0  0  0  0  0
   29.0691   11.1987   60.9282 S   0  0  0  0  0  0  0  0  0  0  0  0
   29.8359   10.1738   61.7053 O   0  0  0  0  0  0  0  0  0  0  0  0
   27.8614   11.6435   61.7059 O   0  0  0  0  0  0  0  0  0  0  0  0
   31.0964   12.1408   60.5367 H   0  0  0  0  0  0  0  0  0  0  0  0
   29.8732   12.9704   59.7527 H   0  0  0  0  0  0  0  0  0  0  0  0
   26.8146    7.1194   53.3417 C   0  0  0  0  0  0  0  0  0  0  0  0
   28.2116    7.3113   53.7583 C   0  0  0  0  0  0  0  0  0  0  0  0
   29.2827    6.5819   53.2104 C   0  0  0  0  0  0  0  0  0  0  0  0
   30.4143    6.9712   53.8137 N   0  0  0  0  0  0  0  0  0  0  0  0
   30.1335    7.9051   54.7145 C   0  0  0  0  0  0  0  0  0  0  0  0
   28.7989    8.0964   54.6663 N   0  0  0  0  0  0  0  0  0  0  0  0
   28.3016    8.7751   55.2834 H   0  0  0  0  0  0  0  0  0  0  0  0
   21.5111    8.3530   52.7911 C   0  0  0  0  0  0  0  0  0  0  0  0
   20.4527    8.2545   53.4972 O   0  0  0  0  0  0  0  0  0  0  0  0
   21.8791    9.6006   52.2934 N   0  0  0  0  0  0  0  0  0  0  0  0
   22.7931    9.6317   51.7376 H   0  0  0  0  0  0  0  0  0  0  0  0
   21.1683   10.8086   52.4713 C   0  0  0  0  0  0  0  0  0  0  0  0
   21.4507   11.7590   51.3983 C   0  0  0  0  0  0  0  0  0  0  0  0
   22.1857   12.9640   51.5988 N   0  0  0  0  0  0  0  0  0  0  0  0
   21.0177   11.4946   50.2285 O   0  0  0  0  0  0  0  0  0  0  0  0
   22.6234   13.4303   50.7724 H   0  0  0  0  0  0  0  0  0  0  0  0
   22.3134   13.4088   52.5191 H   0  0  0  0  0  0  0  0  0  0  0  0
   21.2779   11.4964   53.8094 C   0  0  0  0  0  0  0  0  0  0  0  0
   21.9079   10.6704   54.8477 C   0  0  0  0  0  0  0  0  0  0  0  0
   23.2196   10.5670   55.2786 C   0  0  0  0  0  0  0  0  0  0  0  0
   23.3334    9.6703   56.2692 N   0  0  0  0  0  0  0  0  0  0  0  0
   22.0876    9.2034   56.4668 C   0  0  0  0  0  0  0  0  0  0  0  0
   21.2276    9.8006   55.6160 N   0  0  0  0  0  0  0  0  0  0  0  0
   20.1949    9.5825   55.5992 H   0  0  0  0  0  0  0  0  0  0  0  0
   22.1503    6.1026   53.6672 C   0  0  0  0  0  0  0  0  0  0  0  0
   20.7636    5.8415   54.1133 C   0  0  0  0  0  0  0  0  0  0  0  0
   20.0491    4.9281   53.1360 C   0  0  0  0  0  0  0  0  0  0  0  0
   19.0600    4.0985   53.8098 N   0  0  0  0  0  0  0  0  0  0  0  0
   19.2684    3.1364   54.1456 H   0  0  0  0  0  0  0  0  0  0  0  0
   17.7321    4.5830   54.0436 C   0  0  0  0  0  0  0  0  0  0  0  0
   17.4139    5.9682   53.8317 N   0  0  0  0  0  0  0  0  0  0  0  0
   16.7843    3.8102   54.4460 N   0  0  0  0  0  0  0  0  0  0  0  0
   18.1243    6.6972   54.0334 H   0  0  0  0  0  0  0  0  0  0  0  0
   16.4613    6.1892   53.4755 H   0  0  0  0  0  0  0  0  0  0  0  0
   15.8248    4.1225   54.6229 H   0  0  0  0  0  0  0  0  0  0  0  0
 17 18  1  0  0  0
 18 19  2  0  0  0
 18 20  2  0  0  0
 18 11  1  0  0  0
 11 12  2  0  0  0
 12 13  1  0  0  0
 13 14  2  0  0  0
 14 15  1  0  0  0
 15 16  2  0  0  0
 14  7  1  0  0  0
  7  8  2  0  0  0
  7  9  1  0  0  0
  9  6  1  0  0  0
  6 23  1  0  0  0
 23 24  1  0  0  0
 24 25  2  0  0  0
 25 26  1  0  0  0
 26 27  2  0  0  0
 27 28  1  0  0  0
  6  2  1  0  0  0
  2  3  2  0  0  0
  2  4  1  0  0  0
  4  1  1  0  0  0
  1 47  1  0  0  0
 47 48  1  0  0  0
 48 49  1  0  0  0
 49 50  1  0  0  0
 50 52  1  0  0  0
 52 53  1  0  0  0
 52 54  2  0  0  0
  1 30  1  0  0  0
 30 31  2  0  0  0
 30 32  1  0  0  0
 32 34  1  0  0  0
 34 40  1  0  0  0
 40 41  1  0  0  0
 41 42  2  0  0  0
 42 43  1  0  0  0
 43 44  2  0  0  0
 44 45  1  0  0  0
 34 35  1  0  0  0
 35 36  1  0  0  0
 35 37  2  0  0  0
 16 11  1  0  0  0
 28 24  1  0  0  0
 45 41  1  0  0  0
 17 21  1  0  0  0
 17 22  1  0  0  0
  9 10  1  0  0  0
 28 29  1  0  0  0
  4  5  1  0  0  0
 50 51  1  0  0  0
 53 55  1  0  0  0
 53 56  1  0  0  0
 54 57  1  0  0  0
 32 33  1  0  0  0
 45 46  1  0  0  0
 36 38  1  0  0  0
 36 39  1  0  0  0
M  END
> <minimizedAffinity>
20.06851

> <CNNscore>
0.3833042383

> <CNNaffinity>
7.0267076492

> <CNN_VS>
2.6933667660

> <CNNaffinity_variance>
1.2514752150

$$$$
[H]N=C(N([H])[H])N([H])C([H])([H])C([H])([H])C([H])([H])[C@@]([H])(C(=O)N([H])[C@]([H])(C(=O)N([H])[H])C([H])([H])c1c([H])nc([H])n1[H])N([H])C(=O)[C@@]([H])(N([H])C(=O)c1c([H])c([H])c(S(=O)(=O)N([H])[H])c([H])c1[H])C([H])([H])c1c([H])nc([H])n1[H]


 57 59  0  0  0  0  0  0  0  0999 V2000
   27.1479    8.8602   56.4182 C   0  0  0  0  0  0  0  0  0  0  0  0
   24.6697    8.6528   55.8919 C   0  0  0  0  0  0  0  0  0  0  0  0
   24.8044    7.5359   55.3161 O   0  0  0  0  0  0  0  0  0  0  0  0
   25.7554    9.3561   56.4515 N   0  0  0  0  0  0  0  0  0  0  0  0
   25.6092   10.2615   56.9140 H   0  0  0  0  0  0  0  0  0  0  0  0
   23.3164    9.2380   55.9777 C   0  0  0  0  0  0  0  0  0  0  0  0
   21.7553   10.7574   54.7649 C   0  0  0  0  0  0  0  0  0  0  0  0
   20.8287   10.3449   55.4926 O   0  0  0  0  0  0  0  0  0  0  0  0
   23.0624   10.2348   54.9557 N   0  0  0  0  0  0  0  0  0  0  0  0
   23.8107   10.5955   54.3390 H   0  0  0  0  0  0  0  0  0  0  0  0
   20.8753   13.7684   51.8613 C   0  0  0  0  0  0  0  0  0  0  0  0
   21.7183   12.7234   51.5461 C   0  0  0  0  0  0  0  0  0  0  0  0
   22.0108   11.7384   52.4799 C   0  0  0  0  0  0  0  0  0  0  0  0
   21.4848   11.7483   53.7531 C   0  0  0  0  0  0  0  0  0  0  0  0
   20.6346   12.8050   54.0658 C   0  0  0  0  0  0  0  0  0  0  0  0
   20.3546   13.7690   53.1362 C   0  0  0  0  0  0  0  0  0  0  0  0
   19.0981   15.9189   51.2875 N   0  0  0  0  0  0  0  0  0  0  0  0
   20.4884   15.0306   50.7096 S   0  0  0  0  0  0  0  0  0  0  0  0
   20.1213   14.4761   49.3680 O   0  0  0  0  0  0  0  0  0  0  0  0
   21.6580   15.9671   50.5821 O   0  0  0  0  0  0  0  0  0  0  0  0
   18.2583   15.3594   50.9719 H   0  0  0  0  0  0  0  0  0  0  0  0
   19.1088   15.8042   52.3422 H   0  0  0  0  0  0  0  0  0  0  0  0
   22.2042    8.2533   56.0619 C   0  0  0  0  0  0  0  0  0  0  0  0
   21.7565    7.6489   54.7985 C   0  0  0  0  0  0  0  0  0  0  0  0
   22.0866    6.3356   54.4169 C   0  0  0  0  0  0  0  0  0  0  0  0
   21.5507    6.0959   53.2122 N   0  0  0  0  0  0  0  0  0  0  0  0
   20.8978    7.1754   52.7988 C   0  0  0  0  0  0  0  0  0  0  0  0
   21.0338    8.1020   53.7698 N   0  0  0  0  0  0  0  0  0  0  0  0
   20.6242    9.0591   53.7005 H   0  0  0  0  0  0  0  0  0  0  0  0
   27.8123    9.6681   57.5242 C   0  0  0  0  0  0  0  0  0  0  0  0
   27.8468   10.9377   57.4010 O   0  0  0  0  0  0  0  0  0  0  0  0
   28.3761    9.0821   58.6548 N   0  0  0  0  0  0  0  0  0  0  0  0
   28.2884    8.0178   58.7235 H   0  0  0  0  0  0  0  0  0  0  0  0
   29.0279    9.7642   59.7065 C   0  0  0  0  0  0  0  0  0  0  0  0
   29.7484    8.8399   60.5788 C   0  0  0  0  0  0  0  0  0  0  0  0
   29.7330    7.4259   60.3973 N   0  0  0  0  0  0  0  0  0  0  0  0
   30.4217    9.3246   61.5471 O   0  0  0  0  0  0  0  0  0  0  0  0
   30.4933    6.8544   60.8301 H   0  0  0  0  0  0  0  0  0  0  0  0
   29.0100    6.9268   59.8595 H   0  0  0  0  0  0  0  0  0  0  0  0
   28.2083   10.7210   60.5362 C   0  0  0  0  0  0  0  0  0  0  0  0
   28.8024   12.0591   60.6530 C   0  0  0  0  0  0  0  0  0  0  0  0
   28.4239   13.2878   60.1392 C   0  0  0  0  0  0  0  0  0  0  0  0
   29.2784   14.2515   60.5123 N   0  0  0  0  0  0  0  0  0  0  0  0
   30.2029   13.6303   61.2663 C   0  0  0  0  0  0  0  0  0  0  0  0
   29.9218   12.3136   61.3543 N   0  0  0  0  0  0  0  0  0  0  0  0
   30.5193   11.6361   61.9004 H   0  0  0  0  0  0  0  0  0  0  0  0
   27.6417    9.3015   55.0590 C   0  0  0  0  0  0  0  0  0  0  0  0
   28.2359    8.2526   54.2006 C   0  0  0  0  0  0  0  0  0  0  0  0
   27.1544    7.4872   53.4629 C   0  0  0  0  0  0  0  0  0  0  0  0
   26.0577    8.3614   53.0712 N   0  0  0  0  0  0  0  0  0  0  0  0
   26.1721    9.3884   52.9537 H   0  0  0  0  0  0  0  0  0  0  0  0
   24.7489    7.8324   52.8257 C   0  0  0  0  0  0  0  0  0  0  0  0
   24.5119    6.4165   52.8876 N   0  0  0  0  0  0  0  0  0  0  0  0
   23.7475    8.5910   52.5448 N   0  0  0  0  0  0  0  0  0  0  0  0
   25.2513    5.7559   52.5812 H   0  0  0  0  0  0  0  0  0  0  0  0
   23.5863    6.1035   53.2461 H   0  0  0  0  0  0  0  0  0  0  0  0
   22.7996    8.2472   52.3638 H   0  0  0  0  0  0  0  0  0  0  0  0
 17 18  1  0  0  0
 18 19  2  0  0  0
 18 20  2  0  0  0
 18 11  1  0  0  0
 11 12  2  0  0  0
 12 13  1  0  0  0
 13 14  2  0  0  0
 14 15  1  0  0  0
 15 16  2  0  0  0
 14  7  1  0  0  0
  7  8  2  0  0  0
  7  9  1  0  0  0
  9  6  1  0  0  0
  6 23  1  0  0  0
 23 24  1  0  0  0
 24 25  2  0  0  0
 25 26  1  0  0  0
 26 27  2  0  0  0
 27 28  1  0  0  0
  6  2  1  0  0  0
  2  3  2  0  0  0
  2  4  1  0  0  0
  4  1  1  0  0  0
  1 47  1  0  0  0
 47 48  1  0  0  0
 48 49  1  0  0  0
 49 50  1  0  0  0
 50 52  1  0  0  0
 52 53  1  0  0  0
 52 54  2  0  0  0
  1 30  1  0  0  0
 30 31  2  0  0  0
 30 32  1  0  0  0
 32 34  1  0  0  0
 34 40  1  0  0  0
 40 41  1  0  0  0
 41 42  2  0  0  0
 42 43  1  0  0  0
 43 44  2  0  0  0
 44 45  1  0  0  0
 34 35  1  0  0  0
 35 36  1  0  0  0
 35 37  2  0  0  0
 16 11  1  0  0  0
 28 24  1  0  0  0
 45 41  1  0  0  0
 17 21  1  0  0  0
 17 22  1  0  0  0
  9 10  1  0  0  0
 28 29  1  0  0  0
  4  5  1  0  0  0
 50 51  1  0  0  0
 53 55  1  0  0  0
 53 56  1  0  0  0
 54 57  1  0  0  0
 32 33  1  0  0  0
 45 46  1  0  0  0
 36 38  1  0  0  0
 36 39  1  0  0  0
M  END
> <minimizedAffinity>
14.51945

> <CNNscore>
0.3799920082

> <CNNaffinity>
6.9858641624

> <CNN_VS>
2.6545724869

> <CNNaffinity_variance>
0.7342976332

$$$$
[H]N=C(N([H])[H])N([H])C([H])([H])C([H])([H])C([H])([H])[C@@]([H])(C(=O)N([H])[C@]([H])(C(=O)N([H])[H])C([H])([H])c1c([H])nc([H])n1[H])N([H])C(=O)[C@@]([H])(N([H])C(=O)c1c([H])c([H])c(S(=O)(=O)N([H])[H])c([H])c1[H])C([H])([H])c1c([H])nc([H])n1[H]


 57 59  0  0  0  0  0  0  0  0999 V2000
   21.6304    8.2285   51.6947 C   0  0  0  0  0  0  0  0  0  0  0  0
   23.8305    8.1517   52.9656 C   0  0  0  0  0  0  0  0  0  0  0  0
   24.0871    9.3708   52.7533 O   0  0  0  0  0  0  0  0  0  0  0  0
   22.6619    7.5255   52.4874 N   0  0  0  0  0  0  0  0  0  0  0  0
   22.4845    6.5324   52.6802 H   0  0  0  0  0  0  0  0  0  0  0  0
   24.7998    7.3578   53.7477 C   0  0  0  0  0  0  0  0  0  0  0  0
   26.7230    8.2389   55.0673 C   0  0  0  0  0  0  0  0  0  0  0  0
   27.4963    7.7631   54.2106 O   0  0  0  0  0  0  0  0  0  0  0  0
   25.3227    8.0710   54.8968 N   0  0  0  0  0  0  0  0  0  0  0  0
   24.7060    8.4764   55.6218 H   0  0  0  0  0  0  0  0  0  0  0  0
   28.2744   10.4544   58.3774 C   0  0  0  0  0  0  0  0  0  0  0  0
   28.3034    9.0756   58.3884 C   0  0  0  0  0  0  0  0  0  0  0  0
   27.8040    8.3446   57.3187 C   0  0  0  0  0  0  0  0  0  0  0  0
   27.2601    8.9444   56.2043 C   0  0  0  0  0  0  0  0  0  0  0  0
   27.2334   10.3360   56.1983 C   0  0  0  0  0  0  0  0  0  0  0  0
   27.7289   11.0443   57.2588 C   0  0  0  0  0  0  0  0  0  0  0  0
   28.3080   10.7274   61.2123 N   0  0  0  0  0  0  0  0  0  0  0  0
   28.8911   11.4080   59.7114 S   0  0  0  0  0  0  0  0  0  0  0  0
   28.4087   12.8247   59.6617 O   0  0  0  0  0  0  0  0  0  0  0  0
   30.3943   11.3706   59.7003 O   0  0  0  0  0  0  0  0  0  0  0  0
   27.3440   11.1395   61.3499 H   0  0  0  0  0  0  0  0  0  0  0  0
   28.1283    9.7023   61.0059 H   0  0  0  0  0  0  0  0  0  0  0  0
   24.3459    5.9905   54.1195 C   0  0  0  0  0  0  0  0  0  0  0  0
   23.3439    5.8930   55.1912 C   0  0  0  0  0  0  0  0  0  0  0  0
   22.3974    6.9011   55.4507 C   0  0  0  0  0  0  0  0  0  0  0  0
   21.6503    6.5230   56.4970 N   0  0  0  0  0  0  0  0  0  0  0  0
   22.0605    5.3346   56.9236 C   0  0  0  0  0  0  0  0  0  0  0  0
   23.0836    4.9711   56.1229 N   0  0  0  0  0  0  0  0  0  0  0  0
   23.6050    4.0753   56.2420 H   0  0  0  0  0  0  0  0  0  0  0  0
   21.6530    9.6286   52.2917 C   0  0  0  0  0  0  0  0  0  0  0  0
   21.4065    9.7530   53.5376 O   0  0  0  0  0  0  0  0  0  0  0  0
   21.9317   10.7672   51.5398 N   0  0  0  0  0  0  0  0  0  0  0  0
   22.1652   10.6016   50.5087 H   0  0  0  0  0  0  0  0  0  0  0  0
   21.9471   12.0961   52.0193 C   0  0  0  0  0  0  0  0  0  0  0  0
   21.2337   12.2155   53.2887 C   0  0  0  0  0  0  0  0  0  0  0  0
   21.6663   11.5779   54.4881 N   0  0  0  0  0  0  0  0  0  0  0  0
   20.1745   12.9247   53.3212 O   0  0  0  0  0  0  0  0  0  0  0  0
   21.3206   11.9415   55.4047 H   0  0  0  0  0  0  0  0  0  0  0  0
   22.3063   10.7709   54.5072 H   0  0  0  0  0  0  0  0  0  0  0  0
   21.5049   13.1873   51.0763 C   0  0  0  0  0  0  0  0  0  0  0  0
   20.6701   14.2147   51.7126 C   0  0  0  0  0  0  0  0  0  0  0  0
   20.0736   14.2803   52.9603 C   0  0  0  0  0  0  0  0  0  0  0  0
   19.3954   15.4271   53.1119 N   0  0  0  0  0  0  0  0  0  0  0  0
   19.5632   16.0914   51.9545 C   0  0  0  0  0  0  0  0  0  0  0  0
   20.3280   15.3680   51.1107 N   0  0  0  0  0  0  0  0  0  0  0  0
   20.5864   15.7022   50.1433 H   0  0  0  0  0  0  0  0  0  0  0  0
   20.3549    7.5062   52.0656 C   0  0  0  0  0  0  0  0  0  0  0  0
   20.3883    6.7057   53.3099 C   0  0  0  0  0  0  0  0  0  0  0  0
   19.9554    5.2775   53.0403 C   0  0  0  0  0  0  0  0  0  0  0  0
   19.0986    4.7721   54.1037 N   0  0  0  0  0  0  0  0  0  0  0  0
   19.1776    5.0936   55.0897 H   0  0  0  0  0  0  0  0  0  0  0  0
   18.0902    3.7916   53.8305 C   0  0  0  0  0  0  0  0  0  0  0  0
   16.7910    3.8942   54.4357 N   0  0  0  0  0  0  0  0  0  0  0  0
   18.3025    2.7947   53.0440 N   0  0  0  0  0  0  0  0  0  0  0  0
   16.6982    4.2757   55.3963 H   0  0  0  0  0  0  0  0  0  0  0  0
   15.9763    3.5746   53.8724 H   0  0  0  0  0  0  0  0  0  0  0  0
   17.6054    2.0762   52.8265 H   0  0  0  0  0  0  0  0  0  0  0  0
 17 18  1  0  0  0
 18 19  2  0  0  0
 18 20  2  0  0  0
 18 11  1  0  0  0
 11 12  2  0  0  0
 12 13  1  0  0  0
 13 14  2  0  0  0
 14 15  1  0  0  0
 15 16  2  0  0  0
 14  7  1  0  0  0
  7  8  2  0  0  0
  7  9  1  0  0  0
  9  6  1  0  0  0
  6 23  1  0  0  0
 23 24  1  0  0  0
 24 25  2  0  0  0
 25 26  1  0  0  0
 26 27  2  0  0  0
 27 28  1  0  0  0
  6  2  1  0  0  0
  2  3  2  0  0  0
  2  4  1  0  0  0
  4  1  1  0  0  0
  1 47  1  0  0  0
 47 48  1  0  0  0
 48 49  1  0  0  0
 49 50  1  0  0  0
 50 52  1  0  0  0
 52 53  1  0  0  0
 52 54  2  0  0  0
  1 30  1  0  0  0
 30 31  2  0  0  0
 30 32  1  0  0  0
 32 34  1  0  0  0
 34 40  1  0  0  0
 40 41  1  0  0  0
 41 42  2  0  0  0
 42 43  1  0  0  0
 43 44  2  0  0  0
 44 45  1  0  0  0
 34 35  1  0  0  0
 35 36  1  0  0  0
 35 37  2  0  0  0
 16 11  1  0  0  0
 28 24  1  0  0  0
 45 41  1  0  0  0
 17 21  1  0  0  0
 17 22  1  0  0  0
  9 10  1  0  0  0
 28 29  1  0  0  0
  4  5  1  0  0  0
 50 51  1  0  0  0
 53 55  1  0  0  0
 53 56  1  0  0  0
 54 57  1  0  0  0
 32 33  1  0  0  0
 45 46  1  0  0  0
 36 38  1  0  0  0
 36 39  1  0  0  0
M  END
> <minimizedAffinity>
22.39965

> <CNNscore>
0.3593560457

> <CNNaffinity>
6.6484556198

> <CNN_VS>
2.3891627789

> <CNNaffinity_variance>
1.2655007839

$$$$
[H]O[C@@]1(C(=O)C([H])=C([H])[H])C([H])([H])C([H])([H])[C@]2([H])[C@]1(C([H])([H])[H])C([H])([H])C([H])([H])[C@]1([H])c3c([H])c([H])c([N+](=O)[O-])c([H])c3C([H])([H])C([H])([H])[C@]12[H]


 27 30  0  0  0  0  0  0  0  0999 V2000
   27.4460    7.8268   57.5920 C   0  0  0  0  0  0  0  0  0  0  0  0
   27.1510    9.2549   57.1959 C   0  0  0  0  0  0  0  0  0  0  0  0
   25.8099    9.6941   57.6336 C   0  0  0  0  0  0  0  0  0  0  0  0
   24.7614    9.9098   56.6291 C   0  0  0  0  0  0  0  0  0  0  0  0
   24.9847    9.4838   55.2260 C   0  0  0  0  0  0  0  0  0  0  0  0
   26.2483    8.6224   55.0506 C   0  0  0  0  0  0  0  0  0  0  0  0
   26.4311    8.4087   53.5612 C   0  0  0  0  0  0  0  0  0  0  0  0
   25.3171    7.5118   53.0867 C   0  0  0  0  0  0  0  0  0  0  0  0
   23.9780    7.9762   53.5634 C   0  0  0  0  0  0  0  0  0  0  0  0
   22.8658    7.4262   52.9402 C   0  0  0  0  0  0  0  0  0  0  0  0
   21.5972    7.7873   53.3050 C   0  0  0  0  0  0  0  0  0  0  0  0
   21.4318    8.7131   54.3086 C   0  0  0  0  0  0  0  0  0  0  0  0
   22.5573    9.2677   54.9370 C   0  0  0  0  0  0  0  0  0  0  0  0
   23.8223    8.8981   54.5629 C   0  0  0  0  0  0  0  0  0  0  0  0
   27.2979    9.4298   55.6777 C   0  0  0  0  0  0  0  0  0  0  0  0
   28.7072    9.0659   55.4898 C   0  0  0  0  0  0  0  0  0  0  0  0
   29.3481    9.9881   56.5438 C   0  0  0  0  0  0  0  0  0  0  0  0
   28.3058   10.0964   57.6561 C   0  0  0  0  0  0  0  0  0  0  0  0
   28.9235    9.5407   58.7947 O   0  0  0  0  0  0  0  0  0  0  0  0
   28.2930    9.4038   59.5239 H   0  0  0  0  0  0  0  0  0  0  0  0
   20.4321    7.2301   52.6728 N   0  0  0  0  0  0  0  0  0  0  0  0
   19.7418    6.2765   53.3570 O   0  0  0  0  0  0  0  0  0  0  0  0
   20.0687    7.6037   51.5462 O   0  0  0  0  0  0  0  0  0  0  0  0
   27.9535   11.4983   57.9566 C   0  0  0  0  0  0  0  0  0  0  0  0
   27.2976   12.2222   57.1625 O   0  0  0  0  0  0  0  0  0  0  0  0
   28.3646   12.1132   59.2216 C   0  0  0  0  0  0  0  0  0  0  0  0
   28.2327   13.3965   59.4531 C   0  0  0  0  0  0  0  0  0  0  0  0
  2  1  1  0  0  0
  2  3  1  0  0  0
  3  4  1  0  0  0
  4  5  1  0  0  0
  5  6  1  0  0  0
  6  7  1  0  0  0
  7  8  1  0  0  0
  8  9  1  0  0  0
  9 10  2  0  0  0
 10 11  1  0  0  0
 11 12  2  0  0  0
 12 13  1  0  0  0
 13 14  2  0  0  0
 11 21  1  0  0  0
 21 22  1  0  0  0
 21 23  2  0  0  0
  6 15  1  0  0  0
 15 16  1  0  0  0
 16 17  1  0  0  0
 17 18  1  0  0  0
 18 19  1  0  0  0
 18 24  1  0  0  0
 24 25  2  0  0  0
 24 26  1  0  0  0
 26 27  2  0  0  0
 15  2  1  0  0  0
 18  2  1  0  0  0
 14  5  1  0  0  0
 14  9  1  0  0  0
 19 20  1  0  0  0
M  CHG 1  21   1
M  CHG 1  22  -1
M  END
> <minimizedAffinity>
23.88617

> <CNNscore>
0.5275174379

> <CNNaffinity>
6.1489610672

> <CNN_VS>
3.2436842918

> <CNNaffinity_variance>
0.5895339251

$$$$
[H]O[C@@]1(C(=O)C([H])=C([H])[H])C([H])([H])C([H])([H])[C@]2([H])[C@]1(C([H])([H])[H])C([H])([H])C([H])([H])[C@]1([H])c3c([H])c([H])c([N+](=O)[O-])c([H])c3C([H])([H])C([H])([H])[C@]12[H]


 27 30  0  0  0  0  0  0  0  0999 V2000
   23.3671    8.3930   51.8331 C   0  0  0  0  0  0  0  0  0  0  0  0
   23.7160    7.6845   53.1213 C   0  0  0  0  0  0  0  0  0  0  0  0
   23.7618    6.2165   52.9610 C   0  0  0  0  0  0  0  0  0  0  0  0
   22.7155    5.3934   53.5798 C   0  0  0  0  0  0  0  0  0  0  0  0
   21.5184    6.0415   54.1686 C   0  0  0  0  0  0  0  0  0  0  0  0
   21.4152    7.5396   53.8301 C   0  0  0  0  0  0  0  0  0  0  0  0
   20.2505    8.0912   54.6281 C   0  0  0  0  0  0  0  0  0  0  0  0
   18.9851    7.5063   54.0560 C   0  0  0  0  0  0  0  0  0  0  0  0
   19.0744    6.0229   53.8909 C   0  0  0  0  0  0  0  0  0  0  0  0
   17.8826    5.3435   53.6766 C   0  0  0  0  0  0  0  0  0  0  0  0
   17.8597    3.9849   53.5143 C   0  0  0  0  0  0  0  0  0  0  0  0
   19.0449    3.2888   53.5660 C   0  0  0  0  0  0  0  0  0  0  0  0
   20.2482    3.9775   53.7826 C   0  0  0  0  0  0  0  0  0  0  0  0
   20.2581    5.3379   53.9438 C   0  0  0  0  0  0  0  0  0  0  0  0
   22.7230    8.0673   54.2279 C   0  0  0  0  0  0  0  0  0  0  0  0
   22.9318    9.5181   54.3009 C   0  0  0  0  0  0  0  0  0  0  0  0
   24.4643    9.5446   54.4518 C   0  0  0  0  0  0  0  0  0  0  0  0
   24.9569    8.3296   53.6669 C   0  0  0  0  0  0  0  0  0  0  0  0
   25.7565    8.8583   52.6336 O   0  0  0  0  0  0  0  0  0  0  0  0
   25.9891    8.1857   51.9691 H   0  0  0  0  0  0  0  0  0  0  0  0
   16.6369    3.2619   53.2914 N   0  0  0  0  0  0  0  0  0  0  0  0
   15.5043    3.7511   53.8674 O   0  0  0  0  0  0  0  0  0  0  0  0
   16.6138    2.2311   52.6003 O   0  0  0  0  0  0  0  0  0  0  0  0
   25.7942    7.4348   54.4903 C   0  0  0  0  0  0  0  0  0  0  0  0
   25.3101    6.5605   55.2559 O   0  0  0  0  0  0  0  0  0  0  0  0
   27.2556    7.5344   54.4452 C   0  0  0  0  0  0  0  0  0  0  0  0
   27.9020    8.5775   54.9055 C   0  0  0  0  0  0  0  0  0  0  0  0
  2  1  1  0  0  0
  2  3  1  0  0  0
  3  4  1  0  0  0
  4  5  1  0  0  0
  5  6  1  0  0  0
  6  7  1  0  0  0
  7  8  1  0  0  0
  8  9  1  0  0  0
  9 10  2  0  0  0
 10 11  1  0  0  0
 11 12  2  0  0  0
 12 13  1  0  0  0
 13 14  2  0  0  0
 11 21  1  0  0  0
 21 22  1  0  0  0
 21 23  2  0  0  0
  6 15  1  0  0  0
 15 16  1  0  0  0
 16 17  1  0  0  0
 17 18  1  0  0  0
 18 19  1  0  0  0
 18 24  1  0  0  0
 24 25  2  0  0  0
 24 26  1  0  0  0
 26 27  2  0  0  0
 15  2  1  0  0  0
 18  2  1  0  0  0
 14  5  1  0  0  0
 14  9  1  0  0  0
 19 20  1  0  0  0
M  CHG 1  21   1
M  CHG 1  22  -1
M  END
> <minimizedAffinity>
30.83624

> <CNNscore>
0.4951673746

> <CNNaffinity>
6.3514490128

> <CNN_VS>
3.1450302601

> <CNNaffinity_variance>
0.8734551668

$$$$
[H]O[C@@]1(C(=O)C([H])=C([H])[H])C([H])([H])C([H])([H])[C@]2([H])[C@]1(C([H])([H])[H])C([H])([H])C([H])([H])[C@]1([H])c3c([H])c([H])c([N+](=O)[O-])c([H])c3C([H])([H])C([H])([H])[C@]12[H]


 27 30  0  0  0  0  0  0  0  0999 V2000
   21.5378    6.0809   54.3448 C   0  0  0  0  0  0  0  0  0  0  0  0
   21.8615    7.2445   53.4367 C   0  0  0  0  0  0  0  0  0  0  0  0
   23.1936    7.1155   52.8107 C   0  0  0  0  0  0  0  0  0  0  0  0
   24.2747    8.0153   53.2309 C   0  0  0  0  0  0  0  0  0  0  0  0
   24.0895    8.8891   54.4149 C   0  0  0  0  0  0  0  0  0  0  0  0
   22.8219    8.5527   55.2209 C   0  0  0  0  0  0  0  0  0  0  0  0
   22.6823    9.6215   56.2865 C   0  0  0  0  0  0  0  0  0  0  0  0
   23.7998    9.4283   57.2787 C   0  0  0  0  0  0  0  0  0  0  0  0
   25.1289    9.2834   56.6092 C   0  0  0  0  0  0  0  0  0  0  0  0
   26.2532    9.4171   57.4130 C   0  0  0  0  0  0  0  0  0  0  0  0
   27.5142    9.3019   56.8939 C   0  0  0  0  0  0  0  0  0  0  0  0
   27.6596    9.0490   55.5498 C   0  0  0  0  0  0  0  0  0  0  0  0
   26.5220    8.9143   54.7394 C   0  0  0  0  0  0  0  0  0  0  0  0
   25.2648    9.0317   55.2708 C   0  0  0  0  0  0  0  0  0  0  0  0
   21.7631    8.5682   54.2082 C   0  0  0  0  0  0  0  0  0  0  0  0
   20.3560    8.5447   54.6248 C   0  0  0  0  0  0  0  0  0  0  0  0
   19.6940    8.2747   53.2606 C   0  0  0  0  0  0  0  0  0  0  0  0
   20.7030    7.4173   52.4977 C   0  0  0  0  0  0  0  0  0  0  0  0
   20.0444    6.1929   52.2654 O   0  0  0  0  0  0  0  0  0  0  0  0
   20.6507    5.5078   51.9321 H   0  0  0  0  0  0  0  0  0  0  0  0
   28.6915    9.4368   57.7084 N   0  0  0  0  0  0  0  0  0  0  0  0
   29.0461   10.6928   58.0965 O   0  0  0  0  0  0  0  0  0  0  0  0
   29.3597    8.4464   58.0452 O   0  0  0  0  0  0  0  0  0  0  0  0
   21.0623    8.0062   51.1925 C   0  0  0  0  0  0  0  0  0  0  0  0
   21.4310    7.3121   50.2091 O   0  0  0  0  0  0  0  0  0  0  0  0
   21.0014    9.4563   50.9892 C   0  0  0  0  0  0  0  0  0  0  0  0
   21.5890   10.3032   51.7987 C   0  0  0  0  0  0  0  0  0  0  0  0
  2  1  1  0  0  0
  2  3  1  0  0  0
  3  4  1  0  0  0
  4  5  1  0  0  0
  5  6  1  0  0  0
  6  7  1  0  0  0
  7  8  1  0  0  0
  8  9  1  0  0  0
  9 10  2  0  0  0
 10 11  1  0  0  0
 11 12  2  0  0  0
 12 13  1  0  0  0
 13 14  2  0  0  0
 11 21  1  0  0  0
 21 22  1  0  0  0
 21 23  2  0  0  0
  6 15  1  0  0  0
 15 16  1  0  0  0
 16 17  1  0  0  0
 17 18  1  0  0  0
 18 19  1  0  0  0
 18 24  1  0  0  0
 24 25  2  0  0  0
 24 26  1  0  0  0
 26 27  2  0  0  0
 15  2  1  0  0  0
 18  2  1  0  0  0
 14  5  1  0  0  0
 14  9  1  0  0  0
 19 20  1  0  0  0
M  CHG 1  21   1
M  CHG 1  22  -1
M  END
> <minimizedAffinity>
21.97979

> <CNNscore>
0.4871159494

> <CNNaffinity>
6.1870698929

> <CNN_VS>
3.0138204098

> <CNNaffinity_variance>
0.6138466001

$$$$
[H]O[C@@]1(C(=O)C([H])=C([H])[H])C([H])([H])C([H])([H])[C@]2([H])[C@]1(C([H])([H])[H])C([H])([H])C([H])([H])[C@]1([H])c3c([H])c([H])c([N+](=O)[O-])c([H])c3C([H])([H])C([H])([H])[C@]12[H]


 27 30  0  0  0  0  0  0  0  0999 V2000
   27.2896   10.1543   53.9316 C   0  0  0  0  0  0  0  0  0  0  0  0
   27.1443    9.2685   55.1471 C   0  0  0  0  0  0  0  0  0  0  0  0
   27.0338    7.8389   54.7910 C   0  0  0  0  0  0  0  0  0  0  0  0
   25.7496    7.1509   54.9714 C   0  0  0  0  0  0  0  0  0  0  0  0
   24.5328    7.9333   55.2986 C   0  0  0  0  0  0  0  0  0  0  0  0
   24.7396    9.4532   55.1693 C   0  0  0  0  0  0  0  0  0  0  0  0
   23.4788   10.1140   55.6900 C   0  0  0  0  0  0  0  0  0  0  0  0
   22.3698    9.8187   54.7136 C   0  0  0  0  0  0  0  0  0  0  0  0
   22.2998    8.3669   54.3626 C   0  0  0  0  0  0  0  0  0  0  0  0
   21.1423    7.9298   53.7325 C   0  0  0  0  0  0  0  0  0  0  0  0
   20.9825    6.6194   53.3718 C   0  0  0  0  0  0  0  0  0  0  0  0
   21.9932    5.7269   53.6430 C   0  0  0  0  0  0  0  0  0  0  0  0
   23.1621    6.1709   54.2799 C   0  0  0  0  0  0  0  0  0  0  0  0
   23.3103    7.4853   54.6361 C   0  0  0  0  0  0  0  0  0  0  0  0
   25.9321    9.7028   55.9833 C   0  0  0  0  0  0  0  0  0  0  0  0
   26.3067   11.0804   56.3235 C   0  0  0  0  0  0  0  0  0  0  0  0
   27.7158   10.8254   56.8906 C   0  0  0  0  0  0  0  0  0  0  0  0
   28.2462    9.6297   56.1006 C   0  0  0  0  0  0  0  0  0  0  0  0
   29.3786   10.1144   55.4153 O   0  0  0  0  0  0  0  0  0  0  0  0
   29.7018    9.4829   54.7484 H   0  0  0  0  0  0  0  0  0  0  0  0
   19.7922    6.1459   52.7186 N   0  0  0  0  0  0  0  0  0  0  0  0
   19.2048    5.0243   53.2195 O   0  0  0  0  0  0  0  0  0  0  0  0
   19.3175    6.7366   51.7355 O   0  0  0  0  0  0  0  0  0  0  0  0
   28.6740    8.5243   56.9806 C   0  0  0  0  0  0  0  0  0  0  0  0
   29.3781    7.5627   56.5751 O   0  0  0  0  0  0  0  0  0  0  0  0
   28.2847    8.5057   58.3933 C   0  0  0  0  0  0  0  0  0  0  0  0
   28.8413    9.2891   59.2845 C   0  0  0  0  0  0  0  0  0  0  0  0
  2  1  1  0  0  0
  2  3  1  0  0  0
  3  4  1  0  0  0
  4  5  1  0  0  0
  5  6  1  0  0  0
  6  7  1  0  0  0
  7  8  1  0  0  0
  8  9  1  0  0  0
  9 10  2  0  0  0
 10 11  1  0  0  0
 11 12  2  0  0  0
 12 13  1  0  0  0
 13 14  2  0  0  0
 11 21  1  0  0  0
 21 22  1  0  0  0
 21 23  2  0  0  0
  6 15  1  0  0  0
 15 16  1  0  0  0
 16 17  1  0  0  0
 17 18  1  0  0  0
 18 19  1  0  0  0
 18 24  1  0  0  0
 24 25  2  0  0  0
 24 26  1  0  0  0
 26 27  2  0  0  0
 15  2  1  0  0  0
 18  2  1  0  0  0
 14  5  1  0  0  0
 14  9  1  0  0  0
 19 20  1  0  0  0
M  CHG 1  21   1
M  CHG 1  22  -1
M  END
> <minimizedAffinity>
36.49910

> <CNNscore>
0.4376728237

> <CNNaffinity>
6.0809316635

> <CNN_VS>
2.6614584923

> <CNNaffinity_variance>
0.8093288541

$$$$
[H]O[C@@]1(C(=O)C([H])=C([H])[H])C([H])([H])C([H])([H])[C@]2([H])[C@]1(C([H])([H])[H])C([H])([H])C([H])([H])[C@]1([H])c3c([H])c([H])c([N+](=O)[O-])c([H])c3C([H])([H])C([H])([H])[C@]12[H]


 27 30  0  0  0  0  0  0  0  0999 V2000
   20.0951    8.3264   54.5065 C   0  0  0  0  0  0  0  0  0  0  0  0
   20.5657    6.9851   53.9939 C   0  0  0  0  0  0  0  0  0  0  0  0
   21.3788    6.2566   54.9894 C   0  0  0  0  0  0  0  0  0  0  0  0
   22.8193    6.0930   54.7590 C   0  0  0  0  0  0  0  0  0  0  0  0
   23.4792    6.8341   53.6566 C   0  0  0  0  0  0  0  0  0  0  0  0
   22.5723    7.9026   53.0199 C   0  0  0  0  0  0  0  0  0  0  0  0
   23.3159    8.4506   51.8182 C   0  0  0  0  0  0  0  0  0  0  0  0
   24.4944    9.2386   52.3286 C   0  0  0  0  0  0  0  0  0  0  0  0
   25.2827    8.4779   53.3465 C   0  0  0  0  0  0  0  0  0  0  0  0
   26.5479    8.9629   53.6495 C   0  0  0  0  0  0  0  0  0  0  0  0
   27.3467    8.3366   54.5673 C   0  0  0  0  0  0  0  0  0  0  0  0
   26.8780    7.2064   55.1957 C   0  0  0  0  0  0  0  0  0  0  0  0
   25.5990    6.7180   54.8878 C   0  0  0  0  0  0  0  0  0  0  0  0
   24.8087    7.3539   53.9671 C   0  0  0  0  0  0  0  0  0  0  0  0
   21.3544    7.1586   52.6882 C   0  0  0  0  0  0  0  0  0  0  0  0
   20.3372    7.7728   51.8270 C   0  0  0  0  0  0  0  0  0  0  0  0
   19.1918    6.7635   52.0309 C   0  0  0  0  0  0  0  0  0  0  0  0
   19.3630    6.2599   53.4634 C   0  0  0  0  0  0  0  0  0  0  0  0
   18.1886    6.6549   54.1353 O   0  0  0  0  0  0  0  0  0  0  0  0
   18.2588    6.5337   55.0988 H   0  0  0  0  0  0  0  0  0  0  0  0
   28.6598    8.8220   54.8958 N   0  0  0  0  0  0  0  0  0  0  0  0
   29.0849    9.9549   54.2715 O   0  0  0  0  0  0  0  0  0  0  0  0
   29.3790    8.2313   55.7171 O   0  0  0  0  0  0  0  0  0  0  0  0
   19.4634    4.7885   53.5299 C   0  0  0  0  0  0  0  0  0  0  0  0
   20.3859    4.1415   52.9683 O   0  0  0  0  0  0  0  0  0  0  0  0
   18.4682    4.0083   54.2704 C   0  0  0  0  0  0  0  0  0  0  0  0
   17.1860    4.0771   54.0076 C   0  0  0  0  0  0  0  0  0  0  0  0
  2  1  1  0  0  0
  2  3  1  0  0  0
  3  4  1  0  0  0
  4  5  1  0  0  0
  5  6  1  0  0  0
  6  7  1  0  0  0
  7  8  1  0  0  0
  8  9  1  0  0  0
  9 10  2  0  0  0
 10 11  1  0  0  0
 11 12  2  0  0  0
 12 13  1  0  0  0
 13 14  2  0  0  0
 11 21  1  0  0  0
 21 22  1  0  0  0
 21 23  2  0  0  0
  6 15  1  0  0  0
 15 16  1  0  0  0
 16 17  1  0  0  0
 17 18  1  0  0  0
 18 19  1  0  0  0
 18 24  1  0  0  0
 24 25  2  0  0  0
 24 26  1  0  0  0
 26 27  2  0  0  0
 15  2  1  0  0  0
 18  2  1  0  0  0
 14  5  1  0  0  0
 14  9  1  0  0  0
 19 20  1  0  0  0
M  CHG 1  21   1
M  CHG 1  22  -1
M  END
> <minimizedAffinity>
31.35431

> <CNNscore>
0.3814846575

> <CNNaffinity>
6.0354394913

> <CNN_VS>
2.3024275303

> <CNNaffinity_variance>
0.6402982473

$$$$
[H]O[C@@]1(C(=O)C([H])=C([H])[H])C([H])([H])C([H])([H])[C@]2([H])[C@]1(C([H])([H])[H])C([H])([H])C([H])([H])[C@]1([H])c3c([H])c([H])c([N+](=O)[O-])c([H])c3C([H])([H])C([H])([H])[C@]12[H]


 27 30  0  0  0  0  0  0  0  0999 V2000
   21.3423    7.0344   55.3140 C   0  0  0  0  0  0  0  0  0  0  0  0
   22.0949    7.4620   54.0755 C   0  0  0  0  0  0  0  0  0  0  0  0
   23.3617    6.7213   53.9036 C   0  0  0  0  0  0  0  0  0  0  0  0
   24.6362    7.4228   54.1004 C   0  0  0  0  0  0  0  0  0  0  0  0
   24.6448    8.7907   54.6736 C   0  0  0  0  0  0  0  0  0  0  0  0
   23.2750    9.2215   55.2282 C   0  0  0  0  0  0  0  0  0  0  0  0
   23.3989   10.6802   55.6208 C   0  0  0  0  0  0  0  0  0  0  0  0
   24.3105   10.7568   56.8181 C   0  0  0  0  0  0  0  0  0  0  0  0
   25.5730    9.9816   56.6156 C   0  0  0  0  0  0  0  0  0  0  0  0
   26.6112   10.2321   57.5029 C   0  0  0  0  0  0  0  0  0  0  0  0
   27.8066    9.5739   57.4001 C   0  0  0  0  0  0  0  0  0  0  0  0
   27.9725    8.6491   56.3957 C   0  0  0  0  0  0  0  0  0  0  0  0
   26.9219    8.3975   55.5001 C   0  0  0  0  0  0  0  0  0  0  0  0
   25.7298    9.0629   55.6133 C   0  0  0  0  0  0  0  0  0  0  0  0
   22.3634    8.9733   54.1082 C   0  0  0  0  0  0  0  0  0  0  0  0
   20.9941    9.4993   54.1530 C   0  0  0  0  0  0  0  0  0  0  0  0
   20.3941    8.7421   52.9534 C   0  0  0  0  0  0  0  0  0  0  0  0
   21.1337    7.4052   52.9237 C   0  0  0  0  0  0  0  0  0  0  0  0
   20.1386    6.4293   53.1342 O   0  0  0  0  0  0  0  0  0  0  0  0
   20.5183    5.5485   53.3016 H   0  0  0  0  0  0  0  0  0  0  0  0
   28.8945    9.8182   58.3082 N   0  0  0  0  0  0  0  0  0  0  0  0
   29.3787    8.7556   59.0084 O   0  0  0  0  0  0  0  0  0  0  0  0
   29.3744   10.9543   58.4489 O   0  0  0  0  0  0  0  0  0  0  0  0
   21.7681    7.1469   51.6159 C   0  0  0  0  0  0  0  0  0  0  0  0
   21.2492    7.4991   50.5244 O   0  0  0  0  0  0  0  0  0  0  0  0
   23.0571    6.4539   51.5390 C   0  0  0  0  0  0  0  0  0  0  0  0
   23.4517    5.6032   52.4547 C   0  0  0  0  0  0  0  0  0  0  0  0
  2  1  1  0  0  0
  2  3  1  0  0  0
  3  4  1  0  0  0
  4  5  1  0  0  0
  5  6  1  0  0  0
  6  7  1  0  0  0
  7  8  1  0  0  0
  8  9  1  0  0  0
  9 10  2  0  0  0
 10 11  1  0  0  0
 11 12  2  0  0  0
 12 13  1  0  0  0
 13 14  2  0  0  0
 11 21  1  0  0  0
 21 22  1  0  0  0
 21 23  2  0  0  0
  6 15  1  0  0  0
 15 16  1  0  0  0
 16 17  1  0  0  0
 17 18  1  0  0  0
 18 19  1  0  0  0
 18 24  1  0  0  0
 24 25  2  0  0  0
 24 26  1  0  0  0
 26 27  2  0  0  0
 15  2  1  0  0  0
 18  2  1  0  0  0
 14  5  1  0  0  0
 14  9  1  0  0  0
 19 20  1  0  0  0
M  CHG 1  21   1
M  CHG 1  22  -1
M  END
> <minimizedAffinity>
24.43021

> <CNNscore>
0.3753490150

> <CNNaffinity>
5.9426088333

> <CNN_VS>
2.2305524349

> <CNNaffinity_variance>
1.0187565088

$$$$
[H]O[C@@]1(C(=O)C([H])=C([H])[H])C([H])([H])C([H])([H])[C@]2([H])[C@]1(C([H])([H])[H])C([H])([H])C([H])([H])[C@]1([H])c3c([H])c([H])c([N+](=O)[O-])c([H])c3C([H])([H])C([H])([H])[C@]12[H]


 27 30  0  0  0  0  0  0  0  0999 V2000
   23.4142    8.5862   55.9065 C   0  0  0  0  0  0  0  0  0  0  0  0
   24.0785    8.3616   54.5680 C   0  0  0  0  0  0  0  0  0  0  0  0
   23.9198    9.5168   53.6607 C   0  0  0  0  0  0  0  0  0  0  0  0
   23.0447    9.3944   52.4884 C   0  0  0  0  0  0  0  0  0  0  0  0
   22.1693    8.2061   52.3418 C   0  0  0  0  0  0  0  0  0  0  0  0
   22.1188    7.3336   53.6089 C   0  0  0  0  0  0  0  0  0  0  0  0
   21.3303    6.0887   53.2540 C   0  0  0  0  0  0  0  0  0  0  0  0
   19.8958    6.4991   53.0440 C   0  0  0  0  0  0  0  0  0  0  0  0
   19.7749    7.6811   52.1361 C   0  0  0  0  0  0  0  0  0  0  0  0
   18.5134    7.9500   51.6221 C   0  0  0  0  0  0  0  0  0  0  0  0
   18.3007    9.0090   50.7819 C   0  0  0  0  0  0  0  0  0  0  0  0
   19.3629    9.8158   50.4464 C   0  0  0  0  0  0  0  0  0  0  0  0
   20.6369    9.5421   50.9671 C   0  0  0  0  0  0  0  0  0  0  0  0
   20.8373    8.4789   51.8074 C   0  0  0  0  0  0  0  0  0  0  0  0
   23.5322    7.0881   53.9071 C   0  0  0  0  0  0  0  0  0  0  0  0
   23.9015    6.0759   54.9036 C   0  0  0  0  0  0  0  0  0  0  0  0
   25.3970    6.4096   55.0591 C   0  0  0  0  0  0  0  0  0  0  0  0
   25.4878    7.9183   54.8348 C   0  0  0  0  0  0  0  0  0  0  0  0
   25.9686    8.4431   56.0514 O   0  0  0  0  0  0  0  0  0  0  0  0
   25.9082    9.4145   56.0812 H   0  0  0  0  0  0  0  0  0  0  0  0
   17.0027    9.3051   50.2385 N   0  0  0  0  0  0  0  0  0  0  0  0
   16.9015   10.3734   49.4005 O   0  0  0  0  0  0  0  0  0  0  0  0
   16.0117    8.6135   50.5221 O   0  0  0  0  0  0  0  0  0  0  0  0
   26.4461    8.2676   53.7674 C   0  0  0  0  0  0  0  0  0  0  0  0
   26.0887    8.5346   52.5902 O   0  0  0  0  0  0  0  0  0  0  0  0
   27.8839    8.3173   54.0465 C   0  0  0  0  0  0  0  0  0  0  0  0
   28.3943    9.1085   54.9582 C   0  0  0  0  0  0  0  0  0  0  0  0
  2  1  1  0  0  0
  2  3  1  0  0  0
  3  4  1  0  0  0
  4  5  1  0  0  0
  5  6  1  0  0  0
  6  7  1  0  0  0
  7  8  1  0  0  0
  8  9  1  0  0  0
  9 10  2  0  0  0
 10 11  1  0  0  0
 11 12  2  0  0  0
 12 13  1  0  0  0
 13 14  2  0  0  0
 11 21  1  0  0  0
 21 22  1  0  0  0
 21 23  2  0  0  0
  6 15  1  0  0  0
 15 16  1  0  0  0
 16 17  1  0  0  0
 17 18  1  0  0  0
 18 19  1  0  0  0
 18 24  1  0  0  0
 24 25  2  0  0  0
 24 26  1  0  0  0
 26 27  2  0  0  0
 15  2  1  0  0  0
 18  2  1  0  0  0
 14  5  1  0  0  0
 14  9  1  0  0  0
 19 20  1  0  0  0
M  CHG 1  21   1
M  CHG 1  22  -1
M  END
> <minimizedAffinity>
40.71122

> <CNNscore>
0.3739733100

> <CNNaffinity>
5.9526586533

> <CNN_VS>
2.2261354923

> <CNNaffinity_variance>
0.8460302353

$$$$
[H]O[C@@]1(C(=O)C([H])=C([H])[H])C([H])([H])C([H])([H])[C@]2([H])[C@]1(C([H])([H])[H])C([H])([H])C([H])([H])[C@]1([H])c3c([H])c([H])c([N+](=O)[O-])c([H])c3C([H])([H])C([H])([H])[C@]12[H]


 27 30  0  0  0  0  0  0  0  0999 V2000
   24.9538    6.2451   52.5962 C   0  0  0  0  0  0  0  0  0  0  0  0
   24.4225    7.0319   53.7718 C   0  0  0  0  0  0  0  0  0  0  0  0
   24.0202    6.1611   54.8955 C   0  0  0  0  0  0  0  0  0  0  0  0
   22.5950    6.0126   55.2145 C   0  0  0  0  0  0  0  0  0  0  0  0
   21.5711    6.5543   54.2883 C   0  0  0  0  0  0  0  0  0  0  0  0
   22.1581    7.0138   52.9415 C   0  0  0  0  0  0  0  0  0  0  0  0
   21.0344    7.6872   52.1792 C   0  0  0  0  0  0  0  0  0  0  0  0
   20.0405    6.6226   51.7926 C   0  0  0  0  0  0  0  0  0  0  0  0
   19.6709    5.7500   52.9492 C   0  0  0  0  0  0  0  0  0  0  0  0
   18.5458    4.9507   52.7966 C   0  0  0  0  0  0  0  0  0  0  0  0
   18.1259    4.1182   53.7983 C   0  0  0  0  0  0  0  0  0  0  0  0
   18.8386    4.0800   54.9740 C   0  0  0  0  0  0  0  0  0  0  0  0
   19.9753    4.8886   55.1260 C   0  0  0  0  0  0  0  0  0  0  0  0
   20.3858    5.7181   54.1159 C   0  0  0  0  0  0  0  0  0  0  0  0
   23.2445    7.9146   53.3356 C   0  0  0  0  0  0  0  0  0  0  0  0
   23.8897    8.7630   52.3269 C   0  0  0  0  0  0  0  0  0  0  0  0
   25.0967    9.2557   53.1470 C   0  0  0  0  0  0  0  0  0  0  0  0
   25.4289    8.0996   54.0894 C   0  0  0  0  0  0  0  0  0  0  0  0
   26.7323    7.6977   53.7337 O   0  0  0  0  0  0  0  0  0  0  0  0
   26.9853    6.8578   54.1565 H   0  0  0  0  0  0  0  0  0  0  0  0
   16.9639    3.2824   53.6610 N   0  0  0  0  0  0  0  0  0  0  0  0
   17.0339    2.2500   52.7761 O   0  0  0  0  0  0  0  0  0  0  0  0
   15.9358    3.4934   54.3238 O   0  0  0  0  0  0  0  0  0  0  0  0
   25.4424    8.5191   55.5048 C   0  0  0  0  0  0  0  0  0  0  0  0
   26.4921    8.5433   56.1993 O   0  0  0  0  0  0  0  0  0  0  0  0
   24.2034    8.9330   56.1692 C   0  0  0  0  0  0  0  0  0  0  0  0
   23.4728    9.9297   55.7327 C   0  0  0  0  0  0  0  0  0  0  0  0
  2  1  1  0  0  0
  2  3  1  0  0  0
  3  4  1  0  0  0
  4  5  1  0  0  0
  5  6  1  0  0  0
  6  7  1  0  0  0
  7  8  1  0  0  0
  8  9  1  0  0  0
  9 10  2  0  0  0
 10 11  1  0  0  0
 11 12  2  0  0  0
 12 13  1  0  0  0
 13 14  2  0  0  0
 11 21  1  0  0  0
 21 22  1  0  0  0
 21 23  2  0  0  0
  6 15  1  0  0  0
 15 16  1  0  0  0
 16 17  1  0  0  0
 17 18  1  0  0  0
 18 19  1  0  0  0
 18 24  1  0  0  0
 24 25  2  0  0  0
 24 26  1  0  0  0
 26 27  2  0  0  0
 15  2  1  0  0  0
 18  2  1  0  0  0
 14  5  1  0  0  0
 14  9  1  0  0  0
 19 20  1  0  0  0
M  CHG 1  21   1
M  CHG 1  22  -1
M  END
> <minimizedAffinity>
40.22450

> <CNNscore>
0.3368303776

> <CNNaffinity>
5.9922742844

> <CNN_VS>
2.0183799267

> <CNNaffinity_variance>
0.7181307077

$$$$
[H]O[C@@]1(C(=O)C([H])=C([H])[H])C([H])([H])C([H])([H])[C@]2([H])[C@]1(C([H])([H])[H])C([H])([H])C([H])([H])[C@]1([H])c3c([H])c([H])c([N+](=O)[O-])c([H])c3C([H])([H])C([H])([H])[C@]12[H]


 27 30  0  0  0  0  0  0  0  0999 V2000
   27.5337    6.6632   53.4747 C   0  0  0  0  0  0  0  0  0  0  0  0
   27.0022    7.6450   54.4930 C   0  0  0  0  0  0  0  0  0  0  0  0
   26.2938    6.9753   55.6032 C   0  0  0  0  0  0  0  0  0  0  0  0
   24.8358    7.1096   55.7098 C   0  0  0  0  0  0  0  0  0  0  0  0
   24.0683    7.7248   54.5997 C   0  0  0  0  0  0  0  0  0  0  0  0
   24.9103    7.9369   53.3286 C   0  0  0  0  0  0  0  0  0  0  0  0
   24.0477    8.7149   52.3549 C   0  0  0  0  0  0  0  0  0  0  0  0
   22.9353    7.8057   51.9005 C   0  0  0  0  0  0  0  0  0  0  0  0
   22.2537    7.1319   53.0483 C   0  0  0  0  0  0  0  0  0  0  0  0
   21.0311    6.5291   52.7846 C   0  0  0  0  0  0  0  0  0  0  0  0
   20.3295    5.8876   53.7690 C   0  0  0  0  0  0  0  0  0  0  0  0
   20.8540    5.8450   55.0398 C   0  0  0  0  0  0  0  0  0  0  0  0
   22.0898    6.4549   55.3039 C   0  0  0  0  0  0  0  0  0  0  0  0
   22.7828    7.0942   54.3100 C   0  0  0  0  0  0  0  0  0  0  0  0
   26.0810    8.6703   53.8169 C   0  0  0  0  0  0  0  0  0  0  0  0
   27.0058    9.2875   52.8589 C   0  0  0  0  0  0  0  0  0  0  0  0
   28.1591    9.6431   53.8156 C   0  0  0  0  0  0  0  0  0  0  0  0
   28.1368    8.5481   54.8812 C   0  0  0  0  0  0  0  0  0  0  0  0
   29.3785    7.8919   54.7607 O   0  0  0  0  0  0  0  0  0  0  0  0
   29.4097    7.0679   55.2785 H   0  0  0  0  0  0  0  0  0  0  0  0
   19.0619    5.2569   53.5175 N   0  0  0  0  0  0  0  0  0  0  0  0
   19.0703    3.9304   53.2108 O   0  0  0  0  0  0  0  0  0  0  0  0
   18.0000    5.8968   53.5775 O   0  0  0  0  0  0  0  0  0  0  0  0
   28.0337    9.0996   56.2467 C   0  0  0  0  0  0  0  0  0  0  0  0
   28.6360    8.5987   57.2322 O   0  0  0  0  0  0  0  0  0  0  0  0
   27.2058   10.2795   56.5112 C   0  0  0  0  0  0  0  0  0  0  0  0
   25.8969   10.2456   56.4511 C   0  0  0  0  0  0  0  0  0  0  0  0
  2  1  1  0  0  0
  2  3  1  0  0  0
  3  4  1  0  0  0
  4  5  1  0  0  0
  5  6  1  0  0  0
  6  7  1  0  0  0
  7  8  1  0  0  0
  8  9  1  0  0  0
  9 10  2  0  0  0
 10 11  1  0  0  0
 11 12  2  0  0  0
 12 13  1  0  0  0
 13 14  2  0  0  0
 11 21  1  0  0  0
 21 22  1  0  0  0
 21 23  2  0  0  0
  6 15  1  0  0  0
 15 16  1  0  0  0
 16 17  1  0  0  0
 17 18  1  0  0  0
 18 19  1  0  0  0
 18 24  1  0  0  0
 24 25  2  0  0  0
 24 26  1  0  0  0
 26 27  2  0  0  0
 15  2  1  0  0  0
 18  2  1  0  0  0
 14  5  1  0  0  0
 14  9  1  0  0  0
 19 20  1  0  0  0
M  CHG 1  21   1
M  CHG 1  22  -1
M  END
> <minimizedAffinity>
40.41315

> <CNNscore>
0.3225133121

> <CNNaffinity>
5.7086415291

> <CNN_VS>
1.8411128521

> <CNNaffinity_variance>
0.3951624036

$$$$
[H]OC(=O)c1c(C([H])([H])[H])nc(-c2c([H])c([H])c(OC([H])(C([H])([H])[H])C([H])([H])[H])c(C#N)c2[H])n1[H]


 23 24  0  0  0  0  0  0  0  0999 V2000
   26.9862    9.4335   56.2266 C   0  0  0  0  0  0  0  0  0  0  0  0
   25.6868    9.8178   56.6380 C   0  0  0  0  0  0  0  0  0  0  0  0
   24.5547    9.4151   55.9892 C   0  0  0  0  0  0  0  0  0  0  0  0
   24.6641    8.6075   54.8960 C   0  0  0  0  0  0  0  0  0  0  0  0
   25.9131    8.2217   54.4783 C   0  0  0  0  0  0  0  0  0  0  0  0
   27.0856    8.6190   55.1231 C   0  0  0  0  0  0  0  0  0  0  0  0
   23.4876    8.1490   54.1671 C   0  0  0  0  0  0  0  0  0  0  0  0
   22.8048    7.0174   54.3698 N   0  0  0  0  0  0  0  0  0  0  0  0
   21.7741    6.9393   53.4974 C   0  0  0  0  0  0  0  0  0  0  0  0
   20.7882    5.8381   53.4048 C   0  0  0  0  0  0  0  0  0  0  0  0
   21.8231    8.0767   52.7196 C   0  0  0  0  0  0  0  0  0  0  0  0
   22.8758    8.7881   53.1540 N   0  0  0  0  0  0  0  0  0  0  0  0
   23.1557    9.6924   52.7529 H   0  0  0  0  0  0  0  0  0  0  0  0
   20.8927    8.4014   51.6467 C   0  0  0  0  0  0  0  0  0  0  0  0
   20.0202    7.4597   51.1211 O   0  0  0  0  0  0  0  0  0  0  0  0
   20.8529    9.5590   51.1595 O   0  0  0  0  0  0  0  0  0  0  0  0
   19.1129    7.2668   51.5374 H   0  0  0  0  0  0  0  0  0  0  0  0
   28.3623    8.1550   54.6010 C   0  0  0  0  0  0  0  0  0  0  0  0
   29.3790    7.7762   54.2146 N   0  0  0  0  0  0  0  0  0  0  0  0
   28.0041    9.8889   56.9375 O   0  0  0  0  0  0  0  0  0  0  0  0
   28.6456   11.1642   58.8805 C   0  0  0  0  0  0  0  0  0  0  0  0
   28.7386    9.8667   58.0346 C   0  0  0  0  0  0  0  0  0  0  0  0
   28.2547    8.7674   59.0225 C   0  0  0  0  0  0  0  0  0  0  0  0
 21 22  1  0  0  0
 22 23  1  0  0  0
 22 20  1  0  0  0
 20  1  1  0  0  0
  1  2  2  0  0  0
  2  3  1  0  0  0
  3  4  2  0  0  0
  4  5  1  0  0  0
  5  6  2  0  0  0
  6 18  1  0  0  0
 18 19  3  0  0  0
  4  7  1  0  0  0
  7  8  2  0  0  0
  8  9  1  0  0  0
  9 10  1  0  0  0
  9 11  2  0  0  0
 11 12  1  0  0  0
 11 14  1  0  0  0
 14 15  1  0  0  0
 14 16  2  0  0  0
  6  1  1  0  0  0
 12  7  1  0  0  0
 12 13  1  0  0  0
 15 17  1  0  0  0
M  END
> <minimizedAffinity>
3.75853

> <CNNscore>
0.6789804101

> <CNNaffinity>
5.6336750984

> <CNN_VS>
3.8251550198

> <CNNaffinity_variance>
0.3936817944

$$$$
[H]OC(=O)c1c(C([H])([H])[H])nc(-c2c([H])c([H])c(OC([H])(C([H])([H])[H])C([H])([H])[H])c(C#N)c2[H])n1[H]


 23 24  0  0  0  0  0  0  0  0999 V2000
   21.7770    8.3549   54.1235 C   0  0  0  0  0  0  0  0  0  0  0  0
   22.2399    9.6151   54.5740 C   0  0  0  0  0  0  0  0  0  0  0  0
   23.5138    9.8199   55.0213 C   0  0  0  0  0  0  0  0  0  0  0  0
   24.3899    8.7752   55.0407 C   0  0  0  0  0  0  0  0  0  0  0  0
   23.9641    7.5441   54.6089 C   0  0  0  0  0  0  0  0  0  0  0  0
   22.6682    7.3079   54.1472 C   0  0  0  0  0  0  0  0  0  0  0  0
   25.7609    8.9396   55.5086 C   0  0  0  0  0  0  0  0  0  0  0  0
   26.8813    8.6983   54.8200 N   0  0  0  0  0  0  0  0  0  0  0  0
   27.9611    8.9682   55.5886 C   0  0  0  0  0  0  0  0  0  0  0  0
   29.3791    8.8270   55.1854 C   0  0  0  0  0  0  0  0  0  0  0  0
   27.4842    9.3964   56.8095 C   0  0  0  0  0  0  0  0  0  0  0  0
   26.1446    9.3664   56.7250 N   0  0  0  0  0  0  0  0  0  0  0  0
   25.5199    9.6367   57.4956 H   0  0  0  0  0  0  0  0  0  0  0  0
   28.3106    9.7938   57.9415 C   0  0  0  0  0  0  0  0  0  0  0  0
   28.6858    8.8942   58.9285 O   0  0  0  0  0  0  0  0  0  0  0  0
   28.7127   10.9785   58.0586 O   0  0  0  0  0  0  0  0  0  0  0  0
   29.5033    8.2965   58.8375 H   0  0  0  0  0  0  0  0  0  0  0  0
   22.3152    5.9651   53.7109 C   0  0  0  0  0  0  0  0  0  0  0  0
   22.0423    4.8924   53.3930 N   0  0  0  0  0  0  0  0  0  0  0  0
   20.5214    8.2838   53.7144 O   0  0  0  0  0  0  0  0  0  0  0  0
   20.1271    7.8626   51.3734 C   0  0  0  0  0  0  0  0  0  0  0  0
   19.6209    7.8734   52.8400 C   0  0  0  0  0  0  0  0  0  0  0  0
   19.2227    6.3901   53.0854 C   0  0  0  0  0  0  0  0  0  0  0  0
 21 22  1  0  0  0
 22 23  1  0  0  0
 22 20  1  0  0  0
 20  1  1  0  0  0
  1  2  2  0  0  0
  2  3  1  0  0  0
  3  4  2  0  0  0
  4  5  1  0  0  0
  5  6  2  0  0  0
  6 18  1  0  0  0
 18 19  3  0  0  0
  4  7  1  0  0  0
  7  8  2  0  0  0
  8  9  1  0  0  0
  9 10  1  0  0  0
  9 11  2  0  0  0
 11 12  1  0  0  0
 11 14  1  0  0  0
 14 15  1  0  0  0
 14 16  2  0  0  0
  6  1  1  0  0  0
 12  7  1  0  0  0
 12 13  1  0  0  0
 15 17  1  0  0  0
M  END
> <minimizedAffinity>
7.44872

> <CNNscore>
0.6069245338

> <CNNaffinity>
5.5329141617

> <CNN_VS>
3.3580613136

> <CNNaffinity_variance>
0.1550544202

$$$$
[H]OC(=O)c1c(C([H])([H])[H])nc(-c2c([H])c([H])c(OC([H])(C([H])([H])[H])C([H])([H])[H])c(C#N)c2[H])n1[H]


 23 24  0  0  0  0  0  0  0  0999 V2000
   25.7655    9.2763   55.6923 C   0  0  0  0  0  0  0  0  0  0  0  0
   24.4627    9.7172   56.0293 C   0  0  0  0  0  0  0  0  0  0  0  0
   23.3343    9.1930   55.4665 C   0  0  0  0  0  0  0  0  0  0  0  0
   23.4509    8.2010   54.5382 C   0  0  0  0  0  0  0  0  0  0  0  0
   24.7034    7.7571   54.1953 C   0  0  0  0  0  0  0  0  0  0  0  0
   25.8723    8.2756   54.7551 C   0  0  0  0  0  0  0  0  0  0  0  0
   22.2786    7.6070   53.9069 C   0  0  0  0  0  0  0  0  0  0  0  0
   21.4833    8.1716   52.9924 N   0  0  0  0  0  0  0  0  0  0  0  0
   20.4993    7.3113   52.6441 C   0  0  0  0  0  0  0  0  0  0  0  0
   19.4217    7.5668   51.6610 C   0  0  0  0  0  0  0  0  0  0  0  0
   20.6970    6.1613   53.3787 C   0  0  0  0  0  0  0  0  0  0  0  0
   21.7858    6.3763   54.1343 N   0  0  0  0  0  0  0  0  0  0  0  0
   22.1706    5.6824   54.7881 H   0  0  0  0  0  0  0  0  0  0  0  0
   19.8614    4.9696   53.3146 C   0  0  0  0  0  0  0  0  0  0  0  0
   18.5087    5.0039   53.6198 O   0  0  0  0  0  0  0  0  0  0  0  0
   20.3480    3.8615   52.9765 O   0  0  0  0  0  0  0  0  0  0  0  0
   17.8022    5.2551   52.9332 H   0  0  0  0  0  0  0  0  0  0  0  0
   27.1532    7.7361   54.3237 C   0  0  0  0  0  0  0  0  0  0  0  0
   28.1747    7.3060   54.0110 N   0  0  0  0  0  0  0  0  0  0  0  0
   26.7792    9.8626   56.3067 O   0  0  0  0  0  0  0  0  0  0  0  0
   28.2794    9.0556   58.0129 C   0  0  0  0  0  0  0  0  0  0  0  0
   28.0379    9.8561   56.7059 C   0  0  0  0  0  0  0  0  0  0  0  0
   28.9582    9.1377   55.6784 C   0  0  0  0  0  0  0  0  0  0  0  0
 21 22  1  0  0  0
 22 23  1  0  0  0
 22 20  1  0  0  0
 20  1  1  0  0  0
  1  2  2  0  0  0
  2  3  1  0  0  0
  3  4  2  0  0  0
  4  5  1  0  0  0
  5  6  2  0  0  0
  6 18  1  0  0  0
 18 19  3  0  0  0
  4  7  1  0  0  0
  7  8  2  0  0  0
  8  9  1  0  0  0
  9 10  1  0  0  0
  9 11  2  0  0  0
 11 12  1  0  0  0
 11 14  1  0  0  0
 14 15  1  0  0  0
 14 16  2  0  0  0
  6  1  1  0  0  0
 12  7  1  0  0  0
 12 13  1  0  0  0
 15 17  1  0  0  0
M  END
> <minimizedAffinity>
10.32156

> <CNNscore>
0.5491349101

> <CNNaffinity>
5.7450494766

> <CNN_VS>
3.1548073292

> <CNNaffinity_variance>
0.3354555964

$$$$
[H]OC(=O)c1c(C([H])([H])[H])nc(-c2c([H])c([H])c(OC([H])(C([H])([H])[H])C([H])([H])[H])c(C#N)c2[H])n1[H]


 23 24  0  0  0  0  0  0  0  0999 V2000
   23.7565    5.8265   53.1631 C   0  0  0  0  0  0  0  0  0  0  0  0
   22.3945    6.0385   52.8389 C   0  0  0  0  0  0  0  0  0  0  0  0
   21.8148    7.2749   52.8461 C   0  0  0  0  0  0  0  0  0  0  0  0
   22.5676    8.3625   53.1776 C   0  0  0  0  0  0  0  0  0  0  0  0
   23.8904    8.1819   53.4956 C   0  0  0  0  0  0  0  0  0  0  0  0
   24.5070    6.9297   53.4960 C   0  0  0  0  0  0  0  0  0  0  0  0
   21.9982    9.7044   53.2007 C   0  0  0  0  0  0  0  0  0  0  0  0
   21.2560   10.2478   54.1711 N   0  0  0  0  0  0  0  0  0  0  0  0
   20.9111   11.5115   53.8338 C   0  0  0  0  0  0  0  0  0  0  0  0
   20.0928   12.4411   54.6459 C   0  0  0  0  0  0  0  0  0  0  0  0
   21.4669   11.7596   52.5966 C   0  0  0  0  0  0  0  0  0  0  0  0
   22.1196   10.6408   52.2428 N   0  0  0  0  0  0  0  0  0  0  0  0
   22.6334   10.5376   51.3583 H   0  0  0  0  0  0  0  0  0  0  0  0
   21.3436   13.0076   51.8553 C   0  0  0  0  0  0  0  0  0  0  0  0
   22.1881   13.3219   50.8006 O   0  0  0  0  0  0  0  0  0  0  0  0
   20.4573   13.8469   52.1536 O   0  0  0  0  0  0  0  0  0  0  0  0
   22.0110   13.0081   49.8499 H   0  0  0  0  0  0  0  0  0  0  0  0
   25.9165    6.8444   53.8483 C   0  0  0  0  0  0  0  0  0  0  0  0
   27.0266    6.7946   54.1507 N   0  0  0  0  0  0  0  0  0  0  0  0
   24.2009    4.5816   53.1200 O   0  0  0  0  0  0  0  0  0  0  0  0
   24.7745    2.2409   53.1916 C   0  0  0  0  0  0  0  0  0  0  0  0
   25.1963    3.7220   53.0020 C   0  0  0  0  0  0  0  0  0  0  0  0
   25.7947    3.7361   51.5666 C   0  0  0  0  0  0  0  0  0  0  0  0
 21 22  1  0  0  0
 22 23  1  0  0  0
 22 20  1  0  0  0
 20  1  1  0  0  0
  1  2  2  0  0  0
  2  3  1  0  0  0
  3  4  2  0  0  0
  4  5  1  0  0  0
  5  6  2  0  0  0
  6 18  1  0  0  0
 18 19  3  0  0  0
  4  7  1  0  0  0
  7  8  2  0  0  0
  8  9  1  0  0  0
  9 10  1  0  0  0
  9 11  2  0  0  0
 11 12  1  0  0  0
 11 14  1  0  0  0
 14 15  1  0  0  0
 14 16  2  0  0  0
  6  1  1  0  0  0
 12  7  1  0  0  0
 12 13  1  0  0  0
 15 17  1  0  0  0
M  END
> <minimizedAffinity>
31.59495

> <CNNscore>
0.5172257423

> <CNNaffinity>
5.1074881554

> <CNN_VS>
2.6417243481

> <CNNaffinity_variance>
0.1937141716

$$$$
[H]OC(=O)c1c(C([H])([H])[H])nc(-c2c([H])c([H])c(OC([H])(C([H])([H])[H])C([H])([H])[H])c(C#N)c2[H])n1[H]


 23 24  0  0  0  0  0  0  0  0999 V2000
   23.2296    6.5175   54.8239 C   0  0  0  0  0  0  0  0  0  0  0  0
   21.8527    6.6481   54.5200 C   0  0  0  0  0  0  0  0  0  0  0  0
   21.3573    7.6581   53.7458 C   0  0  0  0  0  0  0  0  0  0  0  0
   22.2134    8.5888   53.2358 C   0  0  0  0  0  0  0  0  0  0  0  0
   23.5526    8.4831   53.5166 C   0  0  0  0  0  0  0  0  0  0  0  0
   24.0846    7.4612   54.3048 C   0  0  0  0  0  0  0  0  0  0  0  0
   21.7369    9.6870   52.4036 C   0  0  0  0  0  0  0  0  0  0  0  0
   20.9350    9.6003   51.3372 N   0  0  0  0  0  0  0  0  0  0  0  0
   20.7137   10.8330   50.8263 C   0  0  0  0  0  0  0  0  0  0  0  0
   19.8792   11.1535   49.6456 C   0  0  0  0  0  0  0  0  0  0  0  0
   21.4122   11.7226   51.6149 C   0  0  0  0  0  0  0  0  0  0  0  0
   22.0215   10.9920   52.5624 N   0  0  0  0  0  0  0  0  0  0  0  0
   22.6174   11.3957   53.2966 H   0  0  0  0  0  0  0  0  0  0  0  0
   21.4523   13.1658   51.4202 C   0  0  0  0  0  0  0  0  0  0  0  0
   22.6144   13.8244   51.0461 O   0  0  0  0  0  0  0  0  0  0  0  0
   20.4219   13.8652   51.5876 O   0  0  0  0  0  0  0  0  0  0  0  0
   22.8981   13.9175   50.0742 H   0  0  0  0  0  0  0  0  0  0  0  0
   25.5200    7.4377   54.5437 C   0  0  0  0  0  0  0  0  0  0  0  0
   26.6564    7.3905   54.7240 N   0  0  0  0  0  0  0  0  0  0  0  0
   23.5859    5.4960   55.5845 O   0  0  0  0  0  0  0  0  0  0  0  0
   22.2287    4.8376   57.4654 C   0  0  0  0  0  0  0  0  0  0  0  0
   23.6091    4.8932   56.7591 C   0  0  0  0  0  0  0  0  0  0  0  0
   23.9949    3.3928   56.6224 C   0  0  0  0  0  0  0  0  0  0  0  0
 21 22  1  0  0  0
 22 23  1  0  0  0
 22 20  1  0  0  0
 20  1  1  0  0  0
  1  2  2  0  0  0
  2  3  1  0  0  0
  3  4  2  0  0  0
  4  5  1  0  0  0
  5  6  2  0  0  0
  6 18  1  0  0  0
 18 19  3  0  0  0
  4  7  1  0  0  0
  7  8  2  0  0  0
  8  9  1  0  0  0
  9 10  1  0  0  0
  9 11  2  0  0  0
 11 12  1  0  0  0
 11 14  1  0  0  0
 14 15  1  0  0  0
 14 16  2  0  0  0
  6  1  1  0  0  0
 12  7  1  0  0  0
 12 13  1  0  0  0
 15 17  1  0  0  0
M  END
> <minimizedAffinity>
23.78755

> <CNNscore>
0.5161236525

> <CNNaffinity>
5.1622576714

> <CNN_VS>
2.6643633842

> <CNNaffinity_variance>
0.1817838848

$$$$
[H]OC(=O)c1c(C([H])([H])[H])nc(-c2c([H])c([H])c(OC([H])(C([H])([H])[H])C([H])([H])[H])c(C#N)c2[H])n1[H]


 23 24  0  0  0  0  0  0  0  0999 V2000
   22.0773    7.7996   52.5910 C   0  0  0  0  0  0  0  0  0  0  0  0
   22.7746    9.0267   52.4759 C   0  0  0  0  0  0  0  0  0  0  0  0
   23.9604    9.2673   53.1089 C   0  0  0  0  0  0  0  0  0  0  0  0
   24.5096    8.2932   53.8892 C   0  0  0  0  0  0  0  0  0  0  0  0
   23.8521    7.0953   54.0161 C   0  0  0  0  0  0  0  0  0  0  0  0
   22.6395    6.8238   53.3802 C   0  0  0  0  0  0  0  0  0  0  0  0
   25.7732    8.4984   54.5868 C   0  0  0  0  0  0  0  0  0  0  0  0
   26.9919    8.1422   54.1675 N   0  0  0  0  0  0  0  0  0  0  0  0
   27.9176    8.4997   55.0867 C   0  0  0  0  0  0  0  0  0  0  0  0
   29.3785    8.2779   54.9886 C   0  0  0  0  0  0  0  0  0  0  0  0
   27.2378    9.1051   56.1224 C   0  0  0  0  0  0  0  0  0  0  0  0
   25.9384    9.0868   55.7850 N   0  0  0  0  0  0  0  0  0  0  0  0
   25.1918    9.4746   56.3760 H   0  0  0  0  0  0  0  0  0  0  0  0
   27.8518    9.6447   57.3282 C   0  0  0  0  0  0  0  0  0  0  0  0
   28.3001   10.9555   57.4007 O   0  0  0  0  0  0  0  0  0  0  0  0
   27.9953    8.9293   58.3512 O   0  0  0  0  0  0  0  0  0  0  0  0
   27.6857   11.7277   57.6457 H   0  0  0  0  0  0  0  0  0  0  0  0
   22.0221    5.5210   53.5791 C   0  0  0  0  0  0  0  0  0  0  0  0
   21.5572    4.4773   53.7235 N   0  0  0  0  0  0  0  0  0  0  0  0
   20.9378    7.6880   51.9290 O   0  0  0  0  0  0  0  0  0  0  0  0
   19.0055    7.0930   53.2424 C   0  0  0  0  0  0  0  0  0  0  0  0
   19.6872    7.2701   51.8598 C   0  0  0  0  0  0  0  0  0  0  0  0
   18.7765    8.3117   51.1496 C   0  0  0  0  0  0  0  0  0  0  0  0
 21 22  1  0  0  0
 22 23  1  0  0  0
 22 20  1  0  0  0
 20  1  1  0  0  0
  1  2  2  0  0  0
  2  3  1  0  0  0
  3  4  2  0  0  0
  4  5  1  0  0  0
  5  6  2  0  0  0
  6 18  1  0  0  0
 18 19  3  0  0  0
  4  7  1  0  0  0
  7  8  2  0  0  0
  8  9  1  0  0  0
  9 10  1  0  0  0
  9 11  2  0  0  0
 11 12  1  0  0  0
 11 14  1  0  0  0
 14 15  1  0  0  0
 14 16  2  0  0  0
  6  1  1  0  0  0
 12  7  1  0  0  0
 12 13  1  0  0  0
 15 17  1  0  0  0
M  END
> <minimizedAffinity>
11.90299

> <CNNscore>
0.4970348775

> <CNNaffinity>
5.4461212158

> <CNN_VS>
2.7069122791

> <CNNaffinity_variance>
0.1406423748

$$$$
[H]OC(=O)c1c(C([H])([H])[H])nc(-c2c([H])c([H])c(OC([H])(C([H])([H])[H])C([H])([H])[H])c(C#N)c2[H])n1[H]


 23 24  0  0  0  0  0  0  0  0999 V2000
   22.0956    7.1324   53.5901 C   0  0  0  0  0  0  0  0  0  0  0  0
   23.3100    6.5251   53.1881 C   0  0  0  0  0  0  0  0  0  0  0  0
   24.5319    6.9542   53.6211 C   0  0  0  0  0  0  0  0  0  0  0  0
   24.6019    8.0124   54.4783 C   0  0  0  0  0  0  0  0  0  0  0  0
   23.4381    8.6173   54.8821 C   0  0  0  0  0  0  0  0  0  0  0  0
   22.1770    8.1987   54.4547 C   0  0  0  0  0  0  0  0  0  0  0  0
   25.8806    8.5103   54.9708 C   0  0  0  0  0  0  0  0  0  0  0  0
   27.0107    8.6581   54.2716 N   0  0  0  0  0  0  0  0  0  0  0  0
   27.9860    9.1472   55.0712 C   0  0  0  0  0  0  0  0  0  0  0  0
   29.3790    9.4475   54.6679 C   0  0  0  0  0  0  0  0  0  0  0  0
   27.4313    9.3089   56.3231 C   0  0  0  0  0  0  0  0  0  0  0  0
   26.1522    8.9125   56.2253 N   0  0  0  0  0  0  0  0  0  0  0  0
   25.4914    8.9237   57.0128 H   0  0  0  0  0  0  0  0  0  0  0  0
   28.1344    9.8149   57.4944 C   0  0  0  0  0  0  0  0  0  0  0  0
   28.5910    8.9727   58.4976 O   0  0  0  0  0  0  0  0  0  0  0  0
   28.3505   11.0451   57.6320 O   0  0  0  0  0  0  0  0  0  0  0  0
   29.4914    8.5033   58.4458 H   0  0  0  0  0  0  0  0  0  0  0  0
   21.0028    8.9075   54.9414 C   0  0  0  0  0  0  0  0  0  0  0  0
   20.0864    9.4702   55.3535 N   0  0  0  0  0  0  0  0  0  0  0  0
   20.9761    6.6252   53.1017 O   0  0  0  0  0  0  0  0  0  0  0  0
   18.6047    7.0581   53.0533 C   0  0  0  0  0  0  0  0  0  0  0  0
   19.9236    6.7190   52.3097 C   0  0  0  0  0  0  0  0  0  0  0  0
   20.0713    7.8943   51.3020 C   0  0  0  0  0  0  0  0  0  0  0  0
 21 22  1  0  0  0
 22 23  1  0  0  0
 22 20  1  0  0  0
 20  1  1  0  0  0
  1  2  2  0  0  0
  2  3  1  0  0  0
  3  4  2  0  0  0
  4  5  1  0  0  0
  5  6  2  0  0  0
  6 18  1  0  0  0
 18 19  3  0  0  0
  4  7  1  0  0  0
  7  8  2  0  0  0
  8  9  1  0  0  0
  9 10  1  0  0  0
  9 11  2  0  0  0
 11 12  1  0  0  0
 11 14  1  0  0  0
 14 15  1  0  0  0
 14 16  2  0  0  0
  6  1  1  0  0  0
 12  7  1  0  0  0
 12 13  1  0  0  0
 15 17  1  0  0  0
M  END
> <minimizedAffinity>
5.65498

> <CNNscore>
0.4874078929

> <CNNaffinity>
5.4396996498

> <CNN_VS>
2.6513526440

> <CNNaffinity_variance>
0.0765269250

$$$$
[H]OC(=O)c1c(C([H])([H])[H])nc(-c2c([H])c([H])c(OC([H])(C([H])([H])[H])C([H])([H])[H])c(C#N)c2[H])n1[H]


 23 24  0  0  0  0  0  0  0  0999 V2000
   23.6173    4.9851   56.0053 C   0  0  0  0  0  0  0  0  0  0  0  0
   24.2468    5.3114   54.7796 C   0  0  0  0  0  0  0  0  0  0  0  0
   23.7465    6.2419   53.9143 C   0  0  0  0  0  0  0  0  0  0  0  0
   22.5913    6.8937   54.2306 C   0  0  0  0  0  0  0  0  0  0  0  0
   21.9630    6.5943   55.4134 C   0  0  0  0  0  0  0  0  0  0  0  0
   22.4529    5.6480   56.3150 C   0  0  0  0  0  0  0  0  0  0  0  0
   22.0145    7.8957   53.3424 C   0  0  0  0  0  0  0  0  0  0  0  0
   21.1492    7.6855   52.3451 N   0  0  0  0  0  0  0  0  0  0  0  0
   20.8420    8.8592   51.7471 C   0  0  0  0  0  0  0  0  0  0  0  0
   19.9191    9.0431   50.6036 C   0  0  0  0  0  0  0  0  0  0  0  0
   21.5516    9.8403   52.4069 C   0  0  0  0  0  0  0  0  0  0  0  0
   22.2523    9.2193   53.3692 N   0  0  0  0  0  0  0  0  0  0  0  0
   22.8770    9.7081   54.0234 H   0  0  0  0  0  0  0  0  0  0  0  0
   21.5165   11.2611   52.0872 C   0  0  0  0  0  0  0  0  0  0  0  0
   21.5365   11.7202   50.7784 O   0  0  0  0  0  0  0  0  0  0  0  0
   21.4666   12.1237   52.9997 O   0  0  0  0  0  0  0  0  0  0  0  0
   20.6913   11.8095   50.2203 H   0  0  0  0  0  0  0  0  0  0  0  0
   21.7117    5.4030   57.5432 C   0  0  0  0  0  0  0  0  0  0  0  0
   21.1501    5.1985   58.5276 N   0  0  0  0  0  0  0  0  0  0  0  0
   24.1999    4.0666   56.7577 O   0  0  0  0  0  0  0  0  0  0  0  0
   24.2473    3.4223   59.0805 C   0  0  0  0  0  0  0  0  0  0  0  0
   24.1189    3.0387   57.5826 C   0  0  0  0  0  0  0  0  0  0  0  0
   22.7214    2.3599   57.5120 C   0  0  0  0  0  0  0  0  0  0  0  0
 21 22  1  0  0  0
 22 23  1  0  0  0
 22 20  1  0  0  0
 20  1  1  0  0  0
  1  2  2  0  0  0
  2  3  1  0  0  0
  3  4  2  0  0  0
  4  5  1  0  0  0
  5  6  2  0  0  0
  6 18  1  0  0  0
 18 19  3  0  0  0
  4  7  1  0  0  0
  7  8  2  0  0  0
  8  9  1  0  0  0
  9 10  1  0  0  0
  9 11  2  0  0  0
 11 12  1  0  0  0
 11 14  1  0  0  0
 14 15  1  0  0  0
 14 16  2  0  0  0
  6  1  1  0  0  0
 12  7  1  0  0  0
 12 13  1  0  0  0
 15 17  1  0  0  0
M  END
> <minimizedAffinity>
24.21940

> <CNNscore>
0.4785524309

> <CNNaffinity>
5.2087440491

> <CNN_VS>
2.4926571846

> <CNNaffinity_variance>
0.3362689018

$$$$
[H]OC(=O)c1c(C([H])([H])[H])nc(-c2c([H])c([H])c(OC([H])(C([H])([H])[H])C([H])([H])[H])c(C#N)c2[H])n1[H]


 23 24  0  0  0  0  0  0  0  0999 V2000
   21.4269   10.3570   52.6091 C   0  0  0  0  0  0  0  0  0  0  0  0
   21.8729    9.4405   51.6261 C   0  0  0  0  0  0  0  0  0  0  0  0
   22.4344    8.2352   51.9371 C   0  0  0  0  0  0  0  0  0  0  0  0
   22.5783    7.8847   53.2470 C   0  0  0  0  0  0  0  0  0  0  0  0
   22.1534    8.7567   54.2178 C   0  0  0  0  0  0  0  0  0  0  0  0
   21.5766    9.9941   53.9271 C   0  0  0  0  0  0  0  0  0  0  0  0
   23.1712    6.6101   53.6336 C   0  0  0  0  0  0  0  0  0  0  0  0
   23.2334    6.0910   54.8642 N   0  0  0  0  0  0  0  0  0  0  0  0
   23.8581    4.8918   54.8269 C   0  0  0  0  0  0  0  0  0  0  0  0
   24.1215    4.0064   55.9844 C   0  0  0  0  0  0  0  0  0  0  0  0
   24.1975    4.6601   53.5107 C   0  0  0  0  0  0  0  0  0  0  0  0
   23.7651    5.7237   52.8146 N   0  0  0  0  0  0  0  0  0  0  0  0
   23.8828    5.8245   51.7983 H   0  0  0  0  0  0  0  0  0  0  0  0
   24.8899    3.4770   53.0176 C   0  0  0  0  0  0  0  0  0  0  0  0
   24.3766    2.2000   53.1909 O   0  0  0  0  0  0  0  0  0  0  0  0
   25.9867    3.5801   52.4130 O   0  0  0  0  0  0  0  0  0  0  0  0
   23.7043    1.7919   52.5466 H   0  0  0  0  0  0  0  0  0  0  0  0
   21.1585   10.8470   55.0296 C   0  0  0  0  0  0  0  0  0  0  0  0
   20.8018   11.5069   55.9035 N   0  0  0  0  0  0  0  0  0  0  0  0
   20.9001   11.4923   52.1816 O   0  0  0  0  0  0  0  0  0  0  0  0
   20.5200   13.8731   52.1783 C   0  0  0  0  0  0  0  0  0  0  0  0
   20.9723   12.5841   51.4425 C   0  0  0  0  0  0  0  0  0  0  0  0
   22.4402   12.9050   51.0412 C   0  0  0  0  0  0  0  0  0  0  0  0
 21 22  1  0  0  0
 22 23  1  0  0  0
 22 20  1  0  0  0
 20  1  1  0  0  0
  1  2  2  0  0  0
  2  3  1  0  0  0
  3  4  2  0  0  0
  4  5  1  0  0  0
  5  6  2  0  0  0
  6 18  1  0  0  0
 18 19  3  0  0  0
  4  7  1  0  0  0
  7  8  2  0  0  0
  8  9  1  0  0  0
  9 10  1  0  0  0
  9 11  2  0  0  0
 11 12  1  0  0  0
 11 14  1  0  0  0
 14 15  1  0  0  0
 14 16  2  0  0  0
  6  1  1  0  0  0
 12  7  1  0  0  0
 12 13  1  0  0  0
 15 17  1  0  0  0
M  END
> <minimizedAffinity>
29.96841

> <CNNscore>
0.4632290602

> <CNNaffinity>
5.2873377800

> <CNN_VS>
2.4492485523

> <CNNaffinity_variance>
0.5742824674

$$$$
[H]c1nc(C(=O)N([H])c2nnc(C(F)(F)F)o2)c([H])c(N([H])C([H])([H])c2c([H])c([H])c(Cl)c([H])c2[H])c1S(=O)(=O)C1([H])C([H])([H])C([H])([H])C([H])([H])C1([H])[H]


 37 40  0  0  0  0  0  0  0  0999 V2000
   26.8093    8.8450   54.9534 C   0  0  0  0  0  0  0  0  0  0  0  0
   26.8671    8.9765   53.5901 C   0  0  0  0  0  0  0  0  0  0  0  0
   27.9675    9.4546   52.8763 C   0  0  0  0  0  0  0  0  0  0  0  0
   29.0196    9.7933   53.6152 N   0  0  0  0  0  0  0  0  0  0  0  0
   29.0411    9.6767   54.9899 C   0  0  0  0  0  0  0  0  0  0  0  0
   27.9259    9.1954   55.6708 C   0  0  0  0  0  0  0  0  0  0  0  0
   27.8941    9.5198   51.4327 C   0  0  0  0  0  0  0  0  0  0  0  0
   26.8781    8.7400   50.9475 O   0  0  0  0  0  0  0  0  0  0  0  0
   28.5524   10.1398   50.5099 N   0  0  0  0  0  0  0  0  0  0  0  0
   29.3982   10.8257   50.3818 H   0  0  0  0  0  0  0  0  0  0  0  0
   28.6433    9.4141   49.1673 C   0  0  0  0  0  0  0  0  0  0  0  0
   29.2366    8.1623   49.2305 N   0  0  0  0  0  0  0  0  0  0  0  0
   29.2468    7.7107   47.9744 N   0  0  0  0  0  0  0  0  0  0  0  0
   28.6816    8.6531   47.1855 C   0  0  0  0  0  0  0  0  0  0  0  0
   28.3517    9.6527   48.0309 O   0  0  0  0  0  0  0  0  0  0  0  0
   28.5046    8.5885   45.7169 C   0  0  0  0  0  0  0  0  0  0  0  0
   29.1855    9.5937   45.1368 F   0  0  0  0  0  0  0  0  0  0  0  0
   29.0803    7.3702   45.3229 F   0  0  0  0  0  0  0  0  0  0  0  0
   27.1452    8.5883   45.4002 F   0  0  0  0  0  0  0  0  0  0  0  0
   27.9899    9.0722   57.4256 S   0  0  0  0  0  0  0  0  0  0  0  0
   28.9320    7.9293   57.7968 O   0  0  0  0  0  0  0  0  0  0  0  0
   26.6281    8.7696   57.9085 O   0  0  0  0  0  0  0  0  0  0  0  0
   28.6842   10.5239   58.0667 C   0  0  0  0  0  0  0  0  0  0  0  0
   27.6577   11.6825   58.1345 C   0  0  0  0  0  0  0  0  0  0  0  0
   28.2786   12.6893   59.0573 C   0  0  0  0  0  0  0  0  0  0  0  0
   29.4883   11.9824   59.6532 C   0  0  0  0  0  0  0  0  0  0  0  0
   29.1038   10.5100   59.5112 C   0  0  0  0  0  0  0  0  0  0  0  0
   25.6773    8.2944   55.6120 N   0  0  0  0  0  0  0  0  0  0  0  0
   25.6760    7.3555   56.0274 H   0  0  0  0  0  0  0  0  0  0  0  0
   24.4942    9.1463   55.6844 C   0  0  0  0  0  0  0  0  0  0  0  0
   20.4007    7.7690   51.6037 Cl  0  0  0  0  0  0  0  0  0  0  0  0
   21.5886    8.1908   52.8070 C   0  0  0  0  0  0  0  0  0  0  0  0
   22.7086    7.4077   52.8761 C   0  0  0  0  0  0  0  0  0  0  0  0
   23.6744    7.7279   53.8273 C   0  0  0  0  0  0  0  0  0  0  0  0
   23.4896    8.7961   54.6687 C   0  0  0  0  0  0  0  0  0  0  0  0
   22.3605    9.5763   54.5858 C   0  0  0  0  0  0  0  0  0  0  0  0
   21.3893    9.2591   53.6306 C   0  0  0  0  0  0  0  0  0  0  0  0
 31 32  1  0  0  0
 32 33  2  0  0  0
 33 34  1  0  0  0
 34 35  2  0  0  0
 35 30  1  0  0  0
 30 28  1  0  0  0
 28  1  1  0  0  0
  1  2  2  0  0  0
  2  3  1  0  0  0
  3  4  2  0  0  0
  4  5  1  0  0  0
  5  6  2  0  0  0
  6 20  1  0  0  0
 20 21  2  0  0  0
 20 22  2  0  0  0
 20 23  1  0  0  0
 23 24  1  0  0  0
 24 25  1  0  0  0
 25 26  1  0  0  0
 26 27  1  0  0  0
  3  7  1  0  0  0
  7  8  2  0  0  0
  7  9  1  0  0  0
  9 11  1  0  0  0
 11 12  2  0  0  0
 12 13  1  0  0  0
 13 14  2  0  0  0
 14 15  1  0  0  0
 14 16  1  0  0  0
 16 17  1  0  0  0
 16 18  1  0  0  0
 16 19  1  0  0  0
 35 36  1  0  0  0
 36 37  2  0  0  0
 37 32  1  0  0  0
  6  1  1  0  0  0
 27 23  1  0  0  0
 15 11  1  0  0  0
 28 29  1  0  0  0
  9 10  1  0  0  0
M  END
> <minimizedAffinity>
23.07723

> <CNNscore>
0.6786886454

> <CNNaffinity>
6.6657953262

> <CNN_VS>
4.5239996910

> <CNNaffinity_variance>
0.3566925526

$$$$
[H]c1nc(C(=O)N([H])c2nnc(C(F)(F)F)o2)c([H])c(N([H])C([H])([H])c2c([H])c([H])c(Cl)c([H])c2[H])c1S(=O)(=O)C1([H])C([H])([H])C([H])([H])C([H])([H])C1([H])[H]


 37 40  0  0  0  0  0  0  0  0999 V2000
   26.5720    8.3976   53.5905 C   0  0  0  0  0  0  0  0  0  0  0  0
   25.3058    8.0080   53.2381 C   0  0  0  0  0  0  0  0  0  0  0  0
   24.2067    7.9793   54.0984 C   0  0  0  0  0  0  0  0  0  0  0  0
   24.4514    8.3716   55.3450 N   0  0  0  0  0  0  0  0  0  0  0  0
   25.6956    8.7899   55.7704 C   0  0  0  0  0  0  0  0  0  0  0  0
   26.7707    8.8066   54.8856 C   0  0  0  0  0  0  0  0  0  0  0  0
   22.9206    7.5637   53.5818 C   0  0  0  0  0  0  0  0  0  0  0  0
   21.9009    8.2959   54.1293 O   0  0  0  0  0  0  0  0  0  0  0  0
   22.5189    6.6783   52.7309 N   0  0  0  0  0  0  0  0  0  0  0  0
   22.9070    5.8911   52.0737 H   0  0  0  0  0  0  0  0  0  0  0  0
   21.1361    6.0856   53.0029 C   0  0  0  0  0  0  0  0  0  0  0  0
   20.0927    6.9936   52.9032 N   0  0  0  0  0  0  0  0  0  0  0  0
   18.9903    6.3011   53.1979 N   0  0  0  0  0  0  0  0  0  0  0  0
   19.3550    5.0259   53.4645 C   0  0  0  0  0  0  0  0  0  0  0  0
   20.6966    5.0161   53.3134 O   0  0  0  0  0  0  0  0  0  0  0  0
   18.4615    3.9142   53.8618 C   0  0  0  0  0  0  0  0  0  0  0  0
   18.5666    2.9117   52.9704 F   0  0  0  0  0  0  0  0  0  0  0  0
   18.9477    3.4664   55.1003 F   0  0  0  0  0  0  0  0  0  0  0  0
   17.1555    4.3830   54.0130 F   0  0  0  0  0  0  0  0  0  0  0  0
   28.3440    9.3366   55.4706 S   0  0  0  0  0  0  0  0  0  0  0  0
   28.8057   10.5160   54.6177 O   0  0  0  0  0  0  0  0  0  0  0  0
   29.2876    8.2121   55.3150 O   0  0  0  0  0  0  0  0  0  0  0  0
   28.1730    9.9249   57.0909 C   0  0  0  0  0  0  0  0  0  0  0  0
   28.5366    8.8491   58.1450 C   0  0  0  0  0  0  0  0  0  0  0  0
   28.7299    9.6143   59.4207 C   0  0  0  0  0  0  0  0  0  0  0  0
   28.7073   11.0795   59.0073 C   0  0  0  0  0  0  0  0  0  0  0  0
   29.1189   11.0061   57.5372 C   0  0  0  0  0  0  0  0  0  0  0  0
   27.6332    8.4597   52.6479 N   0  0  0  0  0  0  0  0  0  0  0  0
   28.2974    7.6899   52.5047 H   0  0  0  0  0  0  0  0  0  0  0  0
   27.7320    9.6884   51.8663 C   0  0  0  0  0  0  0  0  0  0  0  0
   29.0414    8.6934   46.1565 Cl  0  0  0  0  0  0  0  0  0  0  0  0
   28.6525    9.0071   47.8261 C   0  0  0  0  0  0  0  0  0  0  0  0
   28.7942    7.9665   48.7035 C   0  0  0  0  0  0  0  0  0  0  0  0
   28.4935    8.1942   50.0442 C   0  0  0  0  0  0  0  0  0  0  0  0
   28.0612    9.4298   50.4563 C   0  0  0  0  0  0  0  0  0  0  0  0
   27.9267   10.4671   49.5641 C   0  0  0  0  0  0  0  0  0  0  0  0
   28.2296   10.2430   48.2172 C   0  0  0  0  0  0  0  0  0  0  0  0
 31 32  1  0  0  0
 32 33  2  0  0  0
 33 34  1  0  0  0
 34 35  2  0  0  0
 35 30  1  0  0  0
 30 28  1  0  0  0
 28  1  1  0  0  0
  1  2  2  0  0  0
  2  3  1  0  0  0
  3  4  2  0  0  0
  4  5  1  0  0  0
  5  6  2  0  0  0
  6 20  1  0  0  0
 20 21  2  0  0  0
 20 22  2  0  0  0
 20 23  1  0  0  0
 23 24  1  0  0  0
 24 25  1  0  0  0
 25 26  1  0  0  0
 26 27  1  0  0  0
  3  7  1  0  0  0
  7  8  2  0  0  0
  7  9  1  0  0  0
  9 11  1  0  0  0
 11 12  2  0  0  0
 12 13  1  0  0  0
 13 14  2  0  0  0
 14 15  1  0  0  0
 14 16  1  0  0  0
 16 17  1  0  0  0
 16 18  1  0  0  0
 16 19  1  0  0  0
 35 36  1  0  0  0
 36 37  2  0  0  0
 37 32  1  0  0  0
  6  1  1  0  0  0
 27 23  1  0  0  0
 15 11  1  0  0  0
 28 29  1  0  0  0
  9 10  1  0  0  0
M  END
> <minimizedAffinity>
24.49411

> <CNNscore>
0.5704279542

> <CNNaffinity>
6.8953719139

> <CNN_VS>
3.9333128929

> <CNNaffinity_variance>
0.2883357704

$$$$
[H]c1nc(C(=O)N([H])c2nnc(C(F)(F)F)o2)c([H])c(N([H])C([H])([H])c2c([H])c([H])c(Cl)c([H])c2[H])c1S(=O)(=O)C1([H])C([H])([H])C([H])([H])C([H])([H])C1([H])[H]


 37 40  0  0  0  0  0  0  0  0999 V2000
   24.2947    7.8893   55.2946 C   0  0  0  0  0  0  0  0  0  0  0  0
   25.2355    8.6699   55.9148 C   0  0  0  0  0  0  0  0  0  0  0  0
   26.5730    8.7740   55.5282 C   0  0  0  0  0  0  0  0  0  0  0  0
   26.9161    8.0457   54.4700 N   0  0  0  0  0  0  0  0  0  0  0  0
   26.0227    7.2469   53.7861 C   0  0  0  0  0  0  0  0  0  0  0  0
   24.6951    7.1665   54.1985 C   0  0  0  0  0  0  0  0  0  0  0  0
   27.4511    9.6562   56.2660 C   0  0  0  0  0  0  0  0  0  0  0  0
   28.2361    8.9596   57.1460 O   0  0  0  0  0  0  0  0  0  0  0  0
   27.6665   10.9300   56.2814 N   0  0  0  0  0  0  0  0  0  0  0  0
   27.3202   11.8580   55.8111 H   0  0  0  0  0  0  0  0  0  0  0  0
   28.1004   11.5067   57.6292 C   0  0  0  0  0  0  0  0  0  0  0  0
   28.6269   10.5738   58.5098 N   0  0  0  0  0  0  0  0  0  0  0  0
   28.9154   11.2570   59.6197 N   0  0  0  0  0  0  0  0  0  0  0  0
   28.5764   12.5507   59.4157 C   0  0  0  0  0  0  0  0  0  0  0  0
   28.0861   12.5806   58.1581 O   0  0  0  0  0  0  0  0  0  0  0  0
   28.6988   13.6617   60.3867 C   0  0  0  0  0  0  0  0  0  0  0  0
   29.8005   13.4833   61.1384 F   0  0  0  0  0  0  0  0  0  0  0  0
   28.8669   14.8203   59.6119 F   0  0  0  0  0  0  0  0  0  0  0  0
   27.5284   13.7676   61.1398 F   0  0  0  0  0  0  0  0  0  0  0  0
   23.5898    6.1275   53.3056 S   0  0  0  0  0  0  0  0  0  0  0  0
   23.2459    4.9228   54.1784 O   0  0  0  0  0  0  0  0  0  0  0  0
   24.2823    5.6735   52.0835 O   0  0  0  0  0  0  0  0  0  0  0  0
   22.1108    6.9857   53.0284 C   0  0  0  0  0  0  0  0  0  0  0  0
   21.8963    7.3118   51.5289 C   0  0  0  0  0  0  0  0  0  0  0  0
   20.4426    7.6660   51.4194 C   0  0  0  0  0  0  0  0  0  0  0  0
   19.8473    7.3056   52.7736 C   0  0  0  0  0  0  0  0  0  0  0  0
   20.8252    6.2480   53.2846 C   0  0  0  0  0  0  0  0  0  0  0  0
   22.9345    7.8760   55.7046 N   0  0  0  0  0  0  0  0  0  0  0  0
   22.4011    7.0091   55.8384 H   0  0  0  0  0  0  0  0  0  0  0  0
   22.3193    9.1778   55.9444 C   0  0  0  0  0  0  0  0  0  0  0  0
   21.3265   12.1202   50.8786 Cl  0  0  0  0  0  0  0  0  0  0  0  0
   21.6279   11.2405   52.3525 C   0  0  0  0  0  0  0  0  0  0  0  0
   21.1671   11.7977   53.5143 C   0  0  0  0  0  0  0  0  0  0  0  0
   21.3923   11.1108   54.7048 C   0  0  0  0  0  0  0  0  0  0  0  0
   22.0654    9.9149   54.6972 C   0  0  0  0  0  0  0  0  0  0  0  0
   22.5200    9.3654   53.5218 C   0  0  0  0  0  0  0  0  0  0  0  0
   22.2940   10.0511   52.3239 C   0  0  0  0  0  0  0  0  0  0  0  0
 31 32  1  0  0  0
 32 33  2  0  0  0
 33 34  1  0  0  0
 34 35  2  0  0  0
 35 30  1  0  0  0
 30 28  1  0  0  0
 28  1  1  0  0  0
  1  2  2  0  0  0
  2  3  1  0  0  0
  3  4  2  0  0  0
  4  5  1  0  0  0
  5  6  2  0  0  0
  6 20  1  0  0  0
 20 21  2  0  0  0
 20 22  2  0  0  0
 20 23  1  0  0  0
 23 24  1  0  0  0
 24 25  1  0  0  0
 25 26  1  0  0  0
 26 27  1  0  0  0
  3  7  1  0  0  0
  7  8  2  0  0  0
  7  9  1  0  0  0
  9 11  1  0  0  0
 11 12  2  0  0  0
 12 13  1  0  0  0
 13 14  2  0  0  0
 14 15  1  0  0  0
 14 16  1  0  0  0
 16 17  1  0  0  0
 16 18  1  0  0  0
 16 19  1  0  0  0
 35 36  1  0  0  0
 36 37  2  0  0  0
 37 32  1  0  0  0
  6  1  1  0  0  0
 27 23  1  0  0  0
 15 11  1  0  0  0
 28 29  1  0  0  0
  9 10  1  0  0  0
M  END
> <minimizedAffinity>
10.85178

> <CNNscore>
0.5108978152

> <CNNaffinity>
6.7007308006

> <CNN_VS>
3.4233887196

> <CNNaffinity_variance>
0.1005257741

$$$$
[H]c1nc(C(=O)N([H])c2nnc(C(F)(F)F)o2)c([H])c(N([H])C([H])([H])c2c([H])c([H])c(Cl)c([H])c2[H])c1S(=O)(=O)C1([H])C([H])([H])C([H])([H])C([H])([H])C1([H])[H]


 37 40  0  0  0  0  0  0  0  0999 V2000
   23.7179    7.9240   54.4329 C   0  0  0  0  0  0  0  0  0  0  0  0
   22.5299    7.2855   54.1875 C   0  0  0  0  0  0  0  0  0  0  0  0
   22.3923    6.0931   53.4747 C   0  0  0  0  0  0  0  0  0  0  0  0
   23.5268    5.5695   53.0203 N   0  0  0  0  0  0  0  0  0  0  0  0
   24.7610    6.1466   53.2384 C   0  0  0  0  0  0  0  0  0  0  0  0
   24.8625    7.3366   53.9543 C   0  0  0  0  0  0  0  0  0  0  0  0
   21.0735    5.5207   53.3106 C   0  0  0  0  0  0  0  0  0  0  0  0
   20.1019    6.4854   53.3419 O   0  0  0  0  0  0  0  0  0  0  0  0
   20.6087    4.3277   53.1377 N   0  0  0  0  0  0  0  0  0  0  0  0
   20.9435    3.2868   53.0563 H   0  0  0  0  0  0  0  0  0  0  0  0
   19.2177    4.0740   53.7193 C   0  0  0  0  0  0  0  0  0  0  0  0
   19.2194    3.5367   54.9977 N   0  0  0  0  0  0  0  0  0  0  0  0
   17.9334    3.3659   55.3124 N   0  0  0  0  0  0  0  0  0  0  0  0
   17.1863    3.7842   54.2651 C   0  0  0  0  0  0  0  0  0  0  0  0
   18.0864    4.1960   53.3468 O   0  0  0  0  0  0  0  0  0  0  0  0
   15.7095    3.7563   54.1638 C   0  0  0  0  0  0  0  0  0  0  0  0
   15.1770    3.6051   55.3903 F   0  0  0  0  0  0  0  0  0  0  0  0
   15.3435    5.0176   53.6679 F   0  0  0  0  0  0  0  0  0  0  0  0
   15.3121    2.7658   53.2642 F   0  0  0  0  0  0  0  0  0  0  0  0
   26.4544    8.0461   54.2013 S   0  0  0  0  0  0  0  0  0  0  0  0
   26.5653    9.2996   53.3363 O   0  0  0  0  0  0  0  0  0  0  0  0
   27.4628    7.0568   53.7731 O   0  0  0  0  0  0  0  0  0  0  0  0
   26.5921    8.5596   55.8499 C   0  0  0  0  0  0  0  0  0  0  0  0
   28.0687    8.6768   56.3044 C   0  0  0  0  0  0  0  0  0  0  0  0
   28.0179    9.4954   57.5605 C   0  0  0  0  0  0  0  0  0  0  0  0
   26.5846   10.0028   57.6410 C   0  0  0  0  0  0  0  0  0  0  0  0
   26.1438    9.9575   56.1783 C   0  0  0  0  0  0  0  0  0  0  0  0
   23.7925    9.1057   55.2180 N   0  0  0  0  0  0  0  0  0  0  0  0
   24.6566    9.4162   55.6774 H   0  0  0  0  0  0  0  0  0  0  0  0
   22.5622    9.8825   55.3348 C   0  0  0  0  0  0  0  0  0  0  0  0
   20.7778   12.0418   50.0946 Cl  0  0  0  0  0  0  0  0  0  0  0  0
   21.2963   11.3873   51.6243 C   0  0  0  0  0  0  0  0  0  0  0  0
   21.7174   12.2803   52.5719 C   0  0  0  0  0  0  0  0  0  0  0  0
   22.1325   11.7811   53.8041 C   0  0  0  0  0  0  0  0  0  0  0  0
   22.1212   10.4298   54.0427 C   0  0  0  0  0  0  0  0  0  0  0  0
   21.6924    9.5444   53.0823 C   0  0  0  0  0  0  0  0  0  0  0  0
   21.2729   10.0419   51.8443 C   0  0  0  0  0  0  0  0  0  0  0  0
 31 32  1  0  0  0
 32 33  2  0  0  0
 33 34  1  0  0  0
 34 35  2  0  0  0
 35 30  1  0  0  0
 30 28  1  0  0  0
 28  1  1  0  0  0
  1  2  2  0  0  0
  2  3  1  0  0  0
  3  4  2  0  0  0
  4  5  1  0  0  0
  5  6  2  0  0  0
  6 20  1  0  0  0
 20 21  2  0  0  0
 20 22  2  0  0  0
 20 23  1  0  0  0
 23 24  1  0  0  0
 24 25  1  0  0  0
 25 26  1  0  0  0
 26 27  1  0  0  0
  3  7  1  0  0  0
  7  8  2  0  0  0
  7  9  1  0  0  0
  9 11  1  0  0  0
 11 12  2  0  0  0
 12 13  1  0  0  0
 13 14  2  0  0  0
 14 15  1  0  0  0
 14 16  1  0  0  0
 16 17  1  0  0  0
 16 18  1  0  0  0
 16 19  1  0  0  0
 35 36  1  0  0  0
 36 37  2  0  0  0
 37 32  1  0  0  0
  6  1  1  0  0  0
 27 23  1  0  0  0
 15 11  1  0  0  0
 28 29  1  0  0  0
  9 10  1  0  0  0
M  END
> <minimizedAffinity>
24.10061

> <CNNscore>
0.4574837089

> <CNNaffinity>
6.7427139282

> <CNN_VS>
3.0846817493

> <CNNaffinity_variance>
0.4048565030

$$$$
[H]c1nc(C(=O)N([H])c2nnc(C(F)(F)F)o2)c([H])c(N([H])C([H])([H])c2c([H])c([H])c(Cl)c([H])c2[H])c1S(=O)(=O)C1([H])C([H])([H])C([H])([H])C([H])([H])C1([H])[H]


 37 40  0  0  0  0  0  0  0  0999 V2000
   24.4590    6.9247   54.9548 C   0  0  0  0  0  0  0  0  0  0  0  0
   25.4044    7.5432   55.7313 C   0  0  0  0  0  0  0  0  0  0  0  0
   26.3669    8.4389   55.2621 C   0  0  0  0  0  0  0  0  0  0  0  0
   26.3245    8.6850   53.9562 N   0  0  0  0  0  0  0  0  0  0  0  0
   25.3947    8.1113   53.1135 C   0  0  0  0  0  0  0  0  0  0  0  0
   24.4477    7.2219   53.6148 C   0  0  0  0  0  0  0  0  0  0  0  0
   27.2917    9.0331   56.2031 C   0  0  0  0  0  0  0  0  0  0  0  0
   27.3595    8.3087   57.3634 O   0  0  0  0  0  0  0  0  0  0  0  0
   28.0613   10.0708   56.1987 N   0  0  0  0  0  0  0  0  0  0  0  0
   28.3455   10.9176   55.5628 H   0  0  0  0  0  0  0  0  0  0  0  0
   28.2925   10.7231   57.5620 C   0  0  0  0  0  0  0  0  0  0  0  0
   28.6325    9.8362   58.5724 N   0  0  0  0  0  0  0  0  0  0  0  0
   28.7631   10.5830   59.6710 N   0  0  0  0  0  0  0  0  0  0  0  0
   28.5121   11.8694   59.3357 C   0  0  0  0  0  0  0  0  0  0  0  0
   28.2341   11.8297   58.0151 O   0  0  0  0  0  0  0  0  0  0  0  0
   28.5181   13.0384   60.2442 C   0  0  0  0  0  0  0  0  0  0  0  0
   27.3913   13.0427   60.9798 F   0  0  0  0  0  0  0  0  0  0  0  0
   29.6127   12.8422   61.1010 F   0  0  0  0  0  0  0  0  0  0  0  0
   28.7020   14.2114   59.5104 F   0  0  0  0  0  0  0  0  0  0  0  0
   23.2860    6.5033   52.5046 S   0  0  0  0  0  0  0  0  0  0  0  0
   22.2689    5.7057   53.3175 O   0  0  0  0  0  0  0  0  0  0  0  0
   24.0224    5.5956   51.6031 O   0  0  0  0  0  0  0  0  0  0  0  0
   22.4114    7.7688   51.7083 C   0  0  0  0  0  0  0  0  0  0  0  0
   20.8836    7.5105   51.7039 C   0  0  0  0  0  0  0  0  0  0  0  0
   20.2728    8.8381   51.3651 C   0  0  0  0  0  0  0  0  0  0  0  0
   21.4276    9.8286   51.4249 C   0  0  0  0  0  0  0  0  0  0  0  0
   22.4087    9.1240   52.3613 C   0  0  0  0  0  0  0  0  0  0  0  0
   23.4694    6.0683   55.5078 N   0  0  0  0  0  0  0  0  0  0  0  0
   23.4967    5.0469   55.4071 H   0  0  0  0  0  0  0  0  0  0  0  0
   22.3953    6.7184   56.2523 C   0  0  0  0  0  0  0  0  0  0  0  0
   21.0544   12.0843   54.0808 Cl  0  0  0  0  0  0  0  0  0  0  0  0
   21.4278   10.5025   54.7097 C   0  0  0  0  0  0  0  0  0  0  0  0
   22.6118   10.3643   55.3818 C   0  0  0  0  0  0  0  0  0  0  0  0
   22.9300    9.1103   55.8975 C   0  0  0  0  0  0  0  0  0  0  0  0
   22.0742    8.0521   55.7215 C   0  0  0  0  0  0  0  0  0  0  0  0
   20.8862    8.2064   55.0467 C   0  0  0  0  0  0  0  0  0  0  0  0
   20.5621    9.4646   54.5291 C   0  0  0  0  0  0  0  0  0  0  0  0
 31 32  1  0  0  0
 32 33  2  0  0  0
 33 34  1  0  0  0
 34 35  2  0  0  0
 35 30  1  0  0  0
 30 28  1  0  0  0
 28  1  1  0  0  0
  1  2  2  0  0  0
  2  3  1  0  0  0
  3  4  2  0  0  0
  4  5  1  0  0  0
  5  6  2  0  0  0
  6 20  1  0  0  0
 20 21  2  0  0  0
 20 22  2  0  0  0
 20 23  1  0  0  0
 23 24  1  0  0  0
 24 25  1  0  0  0
 25 26  1  0  0  0
 26 27  1  0  0  0
  3  7  1  0  0  0
  7  8  2  0  0  0
  7  9  1  0  0  0
  9 11  1  0  0  0
 11 12  2  0  0  0
 12 13  1  0  0  0
 13 14  2  0  0  0
 14 15  1  0  0  0
 14 16  1  0  0  0
 16 17  1  0  0  0
 16 18  1  0  0  0
 16 19  1  0  0  0
 35 36  1  0  0  0
 36 37  2  0  0  0
 37 32  1  0  0  0
  6  1  1  0  0  0
 27 23  1  0  0  0
 15 11  1  0  0  0
 28 29  1  0  0  0
  9 10  1  0  0  0
M  END
> <minimizedAffinity>
13.66090

> <CNNscore>
0.4313386381

> <CNNaffinity>
6.6528100967

> <CNN_VS>
2.8696141243

> <CNNaffinity_variance>
0.0488846116

$$$$
[H]c1nc(C(=O)N([H])c2nnc(C(F)(F)F)o2)c([H])c(N([H])C([H])([H])c2c([H])c([H])c(Cl)c([H])c2[H])c1S(=O)(=O)C1([H])C([H])([H])C([H])([H])C([H])([H])C1([H])[H]


 37 40  0  0  0  0  0  0  0  0999 V2000
   22.9265    8.3638   55.3048 C   0  0  0  0  0  0  0  0  0  0  0  0
   22.0032    7.5106   54.7581 C   0  0  0  0  0  0  0  0  0  0  0  0
   22.3029    6.4302   53.9262 C   0  0  0  0  0  0  0  0  0  0  0  0
   23.5958    6.2497   53.6742 N   0  0  0  0  0  0  0  0  0  0  0  0
   24.5835    7.0581   54.1984 C   0  0  0  0  0  0  0  0  0  0  0  0
   24.2496    8.1275   55.0255 C   0  0  0  0  0  0  0  0  0  0  0  0
   21.2239    5.5994   53.4372 C   0  0  0  0  0  0  0  0  0  0  0  0
   20.2363    6.3513   52.8582 O   0  0  0  0  0  0  0  0  0  0  0  0
   20.9837    4.3302   53.4156 N   0  0  0  0  0  0  0  0  0  0  0  0
   21.4195    3.3755   53.7333 H   0  0  0  0  0  0  0  0  0  0  0  0
   19.5071    3.9397   53.4842 C   0  0  0  0  0  0  0  0  0  0  0  0
   19.1667    2.8434   52.7062 N   0  0  0  0  0  0  0  0  0  0  0  0
   17.8528    2.6811   52.8774 N   0  0  0  0  0  0  0  0  0  0  0  0
   17.4188    3.6416   53.7255 C   0  0  0  0  0  0  0  0  0  0  0  0
   18.5248    4.3539   54.0291 O   0  0  0  0  0  0  0  0  0  0  0  0
   16.0263    3.8587   54.1793 C   0  0  0  0  0  0  0  0  0  0  0  0
   15.9321    3.5798   55.4923 F   0  0  0  0  0  0  0  0  0  0  0  0
   15.7799    5.2280   53.9924 F   0  0  0  0  0  0  0  0  0  0  0  0
   15.1469    3.1129   53.3926 F   0  0  0  0  0  0  0  0  0  0  0  0
   25.5385    9.1414   55.6650 S   0  0  0  0  0  0  0  0  0  0  0  0
   25.8449    8.6926   57.0920 O   0  0  0  0  0  0  0  0  0  0  0  0
   25.0545   10.5360   55.6765 O   0  0  0  0  0  0  0  0  0  0  0  0
   26.9762    8.8771   54.7356 C   0  0  0  0  0  0  0  0  0  0  0  0
   28.2605    9.1944   55.5422 C   0  0  0  0  0  0  0  0  0  0  0  0
   29.3682    8.5431   54.7681 C   0  0  0  0  0  0  0  0  0  0  0  0
   28.6667    7.7002   53.7120 C   0  0  0  0  0  0  0  0  0  0  0  0
   27.2979    7.4597   54.3481 C   0  0  0  0  0  0  0  0  0  0  0  0
   22.5566    9.4092   56.1928 N   0  0  0  0  0  0  0  0  0  0  0  0
   23.0851    9.6300   57.0448 H   0  0  0  0  0  0  0  0  0  0  0  0
   21.3729   10.1803   55.8254 C   0  0  0  0  0  0  0  0  0  0  0  0
   21.5022   11.9046   50.1407 Cl  0  0  0  0  0  0  0  0  0  0  0  0
   21.4603   11.3774   51.8012 C   0  0  0  0  0  0  0  0  0  0  0  0
   21.6344   12.3358   52.7623 C   0  0  0  0  0  0  0  0  0  0  0  0
   21.6005   11.9391   54.0970 C   0  0  0  0  0  0  0  0  0  0  0  0
   21.4050   10.6203   54.4222 C   0  0  0  0  0  0  0  0  0  0  0  0
   21.2281    9.6686   53.4459 C   0  0  0  0  0  0  0  0  0  0  0  0
   21.2596   10.0633   52.1045 C   0  0  0  0  0  0  0  0  0  0  0  0
 31 32  1  0  0  0
 32 33  2  0  0  0
 33 34  1  0  0  0
 34 35  2  0  0  0
 35 30  1  0  0  0
 30 28  1  0  0  0
 28  1  1  0  0  0
  1  2  2  0  0  0
  2  3  1  0  0  0
  3  4  2  0  0  0
  4  5  1  0  0  0
  5  6  2  0  0  0
  6 20  1  0  0  0
 20 21  2  0  0  0
 20 22  2  0  0  0
 20 23  1  0  0  0
 23 24  1  0  0  0
 24 25  1  0  0  0
 25 26  1  0  0  0
 26 27  1  0  0  0
  3  7  1  0  0  0
  7  8  2  0  0  0
  7  9  1  0  0  0
  9 11  1  0  0  0
 11 12  2  0  0  0
 12 13  1  0  0  0
 13 14  2  0  0  0
 14 15  1  0  0  0
 14 16  1  0  0  0
 16 17  1  0  0  0
 16 18  1  0  0  0
 16 19  1  0  0  0
 35 36  1  0  0  0
 36 37  2  0  0  0
 37 32  1  0  0  0
  6  1  1  0  0  0
 27 23  1  0  0  0
 15 11  1  0  0  0
 28 29  1  0  0  0
  9 10  1  0  0  0
M  END
> <minimizedAffinity>
23.12298

> <CNNscore>
0.4300272465

> <CNNaffinity>
6.7019715309

> <CNN_VS>
2.8820302486

> <CNNaffinity_variance>
0.3344545960

$$$$
[H]c1nc(C(=O)N([H])c2nnc(C(F)(F)F)o2)c([H])c(N([H])C([H])([H])c2c([H])c([H])c(Cl)c([H])c2[H])c1S(=O)(=O)C1([H])C([H])([H])C([H])([H])C([H])([H])C1([H])[H]


 37 40  0  0  0  0  0  0  0  0999 V2000
   25.2899    8.6883   55.0385 C   0  0  0  0  0  0  0  0  0  0  0  0
   24.2197    7.9763   54.5621 C   0  0  0  0  0  0  0  0  0  0  0  0
   24.3074    6.8190   53.7862 C   0  0  0  0  0  0  0  0  0  0  0  0
   25.5431    6.4096   53.5156 N   0  0  0  0  0  0  0  0  0  0  0  0
   26.6685    7.0655   53.9707 C   0  0  0  0  0  0  0  0  0  0  0  0
   26.5450    8.2174   54.7433 C   0  0  0  0  0  0  0  0  0  0  0  0
   23.0894    6.1584   53.3695 C   0  0  0  0  0  0  0  0  0  0  0  0
   22.3312    6.9673   52.5654 O   0  0  0  0  0  0  0  0  0  0  0  0
   22.5628    4.9963   53.5732 N   0  0  0  0  0  0  0  0  0  0  0  0
   22.7501    4.0588   54.1101 H   0  0  0  0  0  0  0  0  0  0  0  0
   21.0344    4.9593   53.5780 C   0  0  0  0  0  0  0  0  0  0  0  0
   20.4307    6.1223   53.1240 N   0  0  0  0  0  0  0  0  0  0  0  0
   19.1179    5.9050   53.2294 N   0  0  0  0  0  0  0  0  0  0  0  0
   18.9376    4.6600   53.7270 C   0  0  0  0  0  0  0  0  0  0  0  0
   20.1867    4.1783   53.9017 O   0  0  0  0  0  0  0  0  0  0  0  0
   17.6442    4.0069   54.0316 C   0  0  0  0  0  0  0  0  0  0  0  0
   17.4239    3.0126   53.1521 F   0  0  0  0  0  0  0  0  0  0  0  0
   17.7976    3.4492   55.3107 F   0  0  0  0  0  0  0  0  0  0  0  0
   16.6236    4.9588   54.0549 F   0  0  0  0  0  0  0  0  0  0  0  0
   28.0054    9.0307   55.2950 S   0  0  0  0  0  0  0  0  0  0  0  0
   28.2589   10.2359   54.3924 O   0  0  0  0  0  0  0  0  0  0  0  0
   29.1266    8.0778   55.1773 O   0  0  0  0  0  0  0  0  0  0  0  0
   27.7376    9.6464   56.8918 C   0  0  0  0  0  0  0  0  0  0  0  0
   28.3015    8.7034   57.9843 C   0  0  0  0  0  0  0  0  0  0  0  0
   28.3565    9.5457   59.2245 C   0  0  0  0  0  0  0  0  0  0  0  0
   28.0591   10.9619   58.7512 C   0  0  0  0  0  0  0  0  0  0  0  0
   28.4682   10.9028   57.2798 C   0  0  0  0  0  0  0  0  0  0  0  0
   25.1289    9.8260   55.8741 N   0  0  0  0  0  0  0  0  0  0  0  0
   25.9189   10.3966   56.1972 H   0  0  0  0  0  0  0  0  0  0  0  0
   23.7594   10.1622   56.2508 C   0  0  0  0  0  0  0  0  0  0  0  0
   19.8695    9.0886   51.8894 Cl  0  0  0  0  0  0  0  0  0  0  0  0
   20.9995    9.3882   53.1818 C   0  0  0  0  0  0  0  0  0  0  0  0
   21.9677   10.3285   52.9555 C   0  0  0  0  0  0  0  0  0  0  0  0
   22.8798   10.5884   53.9754 C   0  0  0  0  0  0  0  0  0  0  0  0
   22.8015    9.9072   55.1641 C   0  0  0  0  0  0  0  0  0  0  0  0
   21.8213    8.9673   55.3788 C   0  0  0  0  0  0  0  0  0  0  0  0
   20.9022    8.7049   54.3577 C   0  0  0  0  0  0  0  0  0  0  0  0
 31 32  1  0  0  0
 32 33  2  0  0  0
 33 34  1  0  0  0
 34 35  2  0  0  0
 35 30  1  0  0  0
 30 28  1  0  0  0
 28  1  1  0  0  0
  1  2  2  0  0  0
  2  3  1  0  0  0
  3  4  2  0  0  0
  4  5  1  0  0  0
  5  6  2  0  0  0
  6 20  1  0  0  0
 20 21  2  0  0  0
 20 22  2  0  0  0
 20 23  1  0  0  0
 23 24  1  0  0  0
 24 25  1  0  0  0
 25 26  1  0  0  0
 26 27  1  0  0  0
  3  7  1  0  0  0
  7  8  2  0  0  0
  7  9  1  0  0  0
  9 11  1  0  0  0
 11 12  2  0  0  0
 12 13  1  0  0  0
 13 14  2  0  0  0
 14 15  1  0  0  0
 14 16  1  0  0  0
 16 17  1  0  0  0
 16 18  1  0  0  0
 16 19  1  0  0  0
 35 36  1  0  0  0
 36 37  2  0  0  0
 37 32  1  0  0  0
  6  1  1  0  0  0
 27 23  1  0  0  0
 15 11  1  0  0  0
 28 29  1  0  0  0
  9 10  1  0  0  0
M  END
> <minimizedAffinity>
22.01327

> <CNNscore>
0.3676409423

> <CNNaffinity>
6.6604156494

> <CNN_VS>
2.4486415386

> <CNNaffinity_variance>
0.2287199199

$$$$
[H]c1nc(C(=O)N([H])c2nnc(C(F)(F)F)o2)c([H])c(N([H])C([H])([H])c2c([H])c([H])c(Cl)c([H])c2[H])c1S(=O)(=O)C1([H])C([H])([H])C([H])([H])C([H])([H])C1([H])[H]


 37 40  0  0  0  0  0  0  0  0999 V2000
   22.5078    7.7454   54.6990 C   0  0  0  0  0  0  0  0  0  0  0  0
   23.7140    8.1130   55.2370 C   0  0  0  0  0  0  0  0  0  0  0  0
   24.9555    7.9229   54.6274 C   0  0  0  0  0  0  0  0  0  0  0  0
   24.9180    7.3405   53.4328 N   0  0  0  0  0  0  0  0  0  0  0  0
   23.7426    6.9549   52.8216 C   0  0  0  0  0  0  0  0  0  0  0  0
   22.5209    7.1598   53.4576 C   0  0  0  0  0  0  0  0  0  0  0  0
   26.1487    8.3813   55.3056 C   0  0  0  0  0  0  0  0  0  0  0  0
   26.8757    7.3326   55.8030 O   0  0  0  0  0  0  0  0  0  0  0  0
   26.6816    9.5344   55.5412 N   0  0  0  0  0  0  0  0  0  0  0  0
   26.5046   10.6040   55.3768 H   0  0  0  0  0  0  0  0  0  0  0  0
   27.4855    9.6341   56.8378 C   0  0  0  0  0  0  0  0  0  0  0  0
   28.0190   10.8895   57.0873 N   0  0  0  0  0  0  0  0  0  0  0  0
   28.6965   10.7663   58.2309 N   0  0  0  0  0  0  0  0  0  0  0  0
   28.5757    9.4870   58.6539 C   0  0  0  0  0  0  0  0  0  0  0  0
   27.8109    8.8883   57.7160 O   0  0  0  0  0  0  0  0  0  0  0  0
   29.1846    8.8942   59.8663 C   0  0  0  0  0  0  0  0  0  0  0  0
   29.2059    7.5538   59.7500 F   0  0  0  0  0  0  0  0  0  0  0  0
   30.5073    9.3639   59.8899 F   0  0  0  0  0  0  0  0  0  0  0  0
   28.5095    9.3382   61.0045 F   0  0  0  0  0  0  0  0  0  0  0  0
   21.0451    6.6436   52.6488 S   0  0  0  0  0  0  0  0  0  0  0  0
   21.3588    6.4074   51.1733 O   0  0  0  0  0  0  0  0  0  0  0  0
   20.0540    7.7299   52.7778 O   0  0  0  0  0  0  0  0  0  0  0  0
   20.5461    5.1207   53.3064 C   0  0  0  0  0  0  0  0  0  0  0  0
   19.1233    5.1852   53.9163 C   0  0  0  0  0  0  0  0  0  0  0  0
   18.7022    3.7521   54.0556 C   0  0  0  0  0  0  0  0  0  0  0  0
   19.7701    2.9554   53.3187 C   0  0  0  0  0  0  0  0  0  0  0  0
   20.3258    3.9893   52.3398 C   0  0  0  0  0  0  0  0  0  0  0  0
   21.2750    8.0229   55.3482 N   0  0  0  0  0  0  0  0  0  0  0  0
   20.6432    7.2863   55.6833 H   0  0  0  0  0  0  0  0  0  0  0  0
   20.9451    9.4328   55.5327 C   0  0  0  0  0  0  0  0  0  0  0  0
   21.9869   12.6085   50.6199 Cl  0  0  0  0  0  0  0  0  0  0  0  0
   21.6785   11.6584   52.0479 C   0  0  0  0  0  0  0  0  0  0  0  0
   21.6931   12.3165   53.2476 C   0  0  0  0  0  0  0  0  0  0  0  0
   21.4449   11.5789   54.4027 C   0  0  0  0  0  0  0  0  0  0  0  0
   21.2024   10.2305   54.3240 C   0  0  0  0  0  0  0  0  0  0  0  0
   21.1876    9.5830   53.1113 C   0  0  0  0  0  0  0  0  0  0  0  0
   21.4344   10.3206   51.9489 C   0  0  0  0  0  0  0  0  0  0  0  0
 31 32  1  0  0  0
 32 33  2  0  0  0
 33 34  1  0  0  0
 34 35  2  0  0  0
 35 30  1  0  0  0
 30 28  1  0  0  0
 28  1  1  0  0  0
  1  2  2  0  0  0
  2  3  1  0  0  0
  3  4  2  0  0  0
  4  5  1  0  0  0
  5  6  2  0  0  0
  6 20  1  0  0  0
 20 21  2  0  0  0
 20 22  2  0  0  0
 20 23  1  0  0  0
 23 24  1  0  0  0
 24 25  1  0  0  0
 25 26  1  0  0  0
 26 27  1  0  0  0
  3  7  1  0  0  0
  7  8  2  0  0  0
  7  9  1  0  0  0
  9 11  1  0  0  0
 11 12  2  0  0  0
 12 13  1  0  0  0
 13 14  2  0  0  0
 14 15  1  0  0  0
 14 16  1  0  0  0
 16 17  1  0  0  0
 16 18  1  0  0  0
 16 19  1  0  0  0
 35 36  1  0  0  0
 36 37  2  0  0  0
 37 32  1  0  0  0
  6  1  1  0  0  0
 27 23  1  0  0  0
 15 11  1  0  0  0
 28 29  1  0  0  0
  9 10  1  0  0  0
M  END
> <minimizedAffinity>
18.27983

> <CNNscore>
0.3494938910

> <CNNaffinity>
6.4310579300

> <CNN_VS>
2.2476155758

> <CNNaffinity_variance>
0.1099538058

$$$$
[H]c1nc(C(=O)N([H])c2nnc(C(F)(F)F)o2)c([H])c(N([H])C([H])([H])c2c([H])c([H])c(Cl)c([H])c2[H])c1S(=O)(=O)C1([H])C([H])([H])C([H])([H])C([H])([H])C1([H])[H]


 37 40  0  0  0  0  0  0  0  0999 V2000
   27.2516    8.7611   53.6638 C   0  0  0  0  0  0  0  0  0  0  0  0
   25.9750    8.3148   53.4395 C   0  0  0  0  0  0  0  0  0  0  0  0
   25.0298    8.0549   54.4335 C   0  0  0  0  0  0  0  0  0  0  0  0
   25.4409    8.2742   55.6788 N   0  0  0  0  0  0  0  0  0  0  0  0
   26.7054    8.7355   55.9822 C   0  0  0  0  0  0  0  0  0  0  0  0
   27.6239    8.9852   54.9659 C   0  0  0  0  0  0  0  0  0  0  0  0
   23.7094    7.6062   54.0475 C   0  0  0  0  0  0  0  0  0  0  0  0
   23.7469    6.8809   52.8863 O   0  0  0  0  0  0  0  0  0  0  0  0
   22.5216    7.7249   54.5417 N   0  0  0  0  0  0  0  0  0  0  0  0
   21.9924    8.1825   55.3860 H   0  0  0  0  0  0  0  0  0  0  0  0
   21.3845    7.7507   53.5201 C   0  0  0  0  0  0  0  0  0  0  0  0
   20.3532    6.8629   53.7867 N   0  0  0  0  0  0  0  0  0  0  0  0
   19.4860    7.0147   52.7833 N   0  0  0  0  0  0  0  0  0  0  0  0
   19.9755    7.9571   51.9452 C   0  0  0  0  0  0  0  0  0  0  0  0
   21.1460    8.3343   52.5023 O   0  0  0  0  0  0  0  0  0  0  0  0
   19.3568    8.4292   50.6856 C   0  0  0  0  0  0  0  0  0  0  0  0
   18.0175    8.3415   50.7815 F   0  0  0  0  0  0  0  0  0  0  0  0
   19.7115    9.7832   50.5778 F   0  0  0  0  0  0  0  0  0  0  0  0
   19.8798    7.7203   49.6029 F   0  0  0  0  0  0  0  0  0  0  0  0
   29.2303    9.5625   55.3957 S   0  0  0  0  0  0  0  0  0  0  0  0
   29.5189   10.8311   54.5965 O   0  0  0  0  0  0  0  0  0  0  0  0
   30.2018    8.5133   55.0294 O   0  0  0  0  0  0  0  0  0  0  0  0
   29.2383   10.0102   57.0691 C   0  0  0  0  0  0  0  0  0  0  0  0
   28.4944   11.3460   57.3205 C   0  0  0  0  0  0  0  0  0  0  0  0
   28.2445   11.3714   58.7995 C   0  0  0  0  0  0  0  0  0  0  0  0
   28.6284    9.9809   59.2867 C   0  0  0  0  0  0  0  0  0  0  0  0
   28.4654    9.1393   58.0214 C   0  0  0  0  0  0  0  0  0  0  0  0
   28.1443    9.0628   52.6006 N   0  0  0  0  0  0  0  0  0  0  0  0
   29.0255    9.5709   52.7397 H   0  0  0  0  0  0  0  0  0  0  0  0
   27.7503    8.5972   51.2744 C   0  0  0  0  0  0  0  0  0  0  0  0
   29.2101   12.4155   46.9622 Cl  0  0  0  0  0  0  0  0  0  0  0  0
   28.7800   11.2790   48.2114 C   0  0  0  0  0  0  0  0  0  0  0  0
   28.7048   11.7599   49.4903 C   0  0  0  0  0  0  0  0  0  0  0  0
   28.3585   10.8712   50.5052 C   0  0  0  0  0  0  0  0  0  0  0  0
   28.1106    9.5528   50.2159 C   0  0  0  0  0  0  0  0  0  0  0  0
   28.1866    9.0842   48.9256 C   0  0  0  0  0  0  0  0  0  0  0  0
   28.5322    9.9740   47.9034 C   0  0  0  0  0  0  0  0  0  0  0  0
 31 32  1  0  0  0
 32 33  2  0  0  0
 33 34  1  0  0  0
 34 35  2  0  0  0
 35 30  1  0  0  0
 30 28  1  0  0  0
 28  1  1  0  0  0
  1  2  2  0  0  0
  2  3  1  0  0  0
  3  4  2  0  0  0
  4  5  1  0  0  0
  5  6  2  0  0  0
  6 20  1  0  0  0
 20 21  2  0  0  0
 20 22  2  0  0  0
 20 23  1  0  0  0
 23 24  1  0  0  0
 24 25  1  0  0  0
 25 26  1  0  0  0
 26 27  1  0  0  0
  3  7  1  0  0  0
  7  8  2  0  0  0
  7  9  1  0  0  0
  9 11  1  0  0  0
 11 12  2  0  0  0
 12 13  1  0  0  0
 13 14  2  0  0  0
 14 15  1  0  0  0
 14 16  1  0  0  0
 16 17  1  0  0  0
 16 18  1  0  0  0
 16 19  1  0  0  0
 35 36  1  0  0  0
 36 37  2  0  0  0
 37 32  1  0  0  0
  6  1  1  0  0  0
 27 23  1  0  0  0
 15 11  1  0  0  0
 28 29  1  0  0  0
  9 10  1  0  0  0
M  END
> <minimizedAffinity>
34.55046

> <CNNscore>
0.3490078151

> <CNNaffinity>
6.2531647682

> <CNN_VS>
2.1824033260

> <CNNaffinity_variance>
0.2472914159

$$$$
[H]c1nc(N([H])c2c([H])c([H])c(N3C([H])([H])C([H])([H])C([H])(N4C([H])([H])C([H])([H])N(C([H])([H])[H])C([H])([H])C4([H])[H])C([H])([H])C3([H])[H])c([H])c2OC([H])([H])[H])nc(N([H])c2c([H])c([H])c([H])c([H])c2S(=O)(=O)C([H])(C([H])([H])[H])C([H])([H])[H])c1Cl


 44 48  0  0  0  0  0  0  0  0999 V2000
   26.4676    8.0251   53.6556 N   0  0  0  0  0  0  0  0  0  0  0  0
   27.2284    7.8879   52.8982 H   0  0  0  0  0  0  0  0  0  0  0  0
   25.1341    7.7366   53.2620 C   0  0  0  0  0  0  0  0  0  0  0  0
   24.6270    6.5249   53.0216 N   0  0  0  0  0  0  0  0  0  0  0  0
   23.3555    6.3234   52.6539 C   0  0  0  0  0  0  0  0  0  0  0  0
   22.5064    7.3953   52.5084 C   0  0  0  0  0  0  0  0  0  0  0  0
   20.8309    7.1495   52.0257 Cl  0  0  0  0  0  0  0  0  0  0  0  0
   23.0174    8.6861   52.7563 C   0  0  0  0  0  0  0  0  0  0  0  0
   24.2983    8.7830   53.1180 N   0  0  0  0  0  0  0  0  0  0  0  0
   22.1300    9.7623   52.6026 N   0  0  0  0  0  0  0  0  0  0  0  0
   21.9464   10.0433   51.5836 H   0  0  0  0  0  0  0  0  0  0  0  0
   21.4366   10.5397   53.5425 C   0  0  0  0  0  0  0  0  0  0  0  0
   21.0543    9.9879   54.7469 C   0  0  0  0  0  0  0  0  0  0  0  0
   20.3599   10.7502   55.6950 C   0  0  0  0  0  0  0  0  0  0  0  0
   20.0650   12.0500   55.4118 C   0  0  0  0  0  0  0  0  0  0  0  0
   20.4481   12.5982   54.2086 C   0  0  0  0  0  0  0  0  0  0  0  0
   21.1281   11.8757   53.2634 C   0  0  0  0  0  0  0  0  0  0  0  0
   21.5993   12.5738   51.7698 S   0  0  0  0  0  0  0  0  0  0  0  0
   20.8585   11.9096   50.6365 O   0  0  0  0  0  0  0  0  0  0  0  0
   23.0700   12.4860   51.4719 O   0  0  0  0  0  0  0  0  0  0  0  0
   21.1887   14.3054   51.6651 C   0  0  0  0  0  0  0  0  0  0  0  0
   21.9729   14.9737   50.5829 C   0  0  0  0  0  0  0  0  0  0  0  0
   19.7198   14.5683   51.6473 C   0  0  0  0  0  0  0  0  0  0  0  0
   28.3201    8.3651   55.1472 C   0  0  0  0  0  0  0  0  0  0  0  0
   28.8663    8.7773   56.3489 C   0  0  0  0  0  0  0  0  0  0  0  0
   28.0901    9.3042   57.3570 C   0  0  0  0  0  0  0  0  0  0  0  0
   26.7434    9.3974   57.1021 C   0  0  0  0  0  0  0  0  0  0  0  0
   26.1588    8.9899   55.8989 C   0  0  0  0  0  0  0  0  0  0  0  0
   26.9374    8.4655   54.8980 C   0  0  0  0  0  0  0  0  0  0  0  0
   28.6706    9.7331   58.5917 N   0  0  0  0  0  0  0  0  0  0  0  0
   28.8939    8.7622   59.6075 C   0  0  0  0  0  0  0  0  0  0  0  0
   29.8103    9.1764   60.7244 C   0  0  0  0  0  0  0  0  0  0  0  0
   29.5908   10.5663   61.2193 C   0  0  0  0  0  0  0  0  0  0  0  0
   28.7655   11.4100   60.2684 C   0  0  0  0  0  0  0  0  0  0  0  0
   29.0255   11.1115   58.8308 C   0  0  0  0  0  0  0  0  0  0  0  0
   30.7231   11.3006   61.6220 N   0  0  0  0  0  0  0  0  0  0  0  0
   31.9085   11.2073   60.8766 C   0  0  0  0  0  0  0  0  0  0  0  0
   33.0764   11.7606   61.6980 C   0  0  0  0  0  0  0  0  0  0  0  0
   32.6382   12.9998   62.3103 N   0  0  0  0  0  0  0  0  0  0  0  0
   32.4777   14.0826   61.3932 C   0  0  0  0  0  0  0  0  0  0  0  0
   31.5778   12.8223   63.2491 C   0  0  0  0  0  0  0  0  0  0  0  0
   30.9395   11.4530   63.0250 C   0  0  0  0  0  0  0  0  0  0  0  0
   28.7911    6.6483   53.5260 C   0  0  0  0  0  0  0  0  0  0  0  0
   29.1597    7.8437   54.1751 O   0  0  0  0  0  0  0  0  0  0  0  0
 43 44  1  0  0  0
 44 24  1  0  0  0
 24 25  2  0  0  0
 25 26  1  0  0  0
 26 27  2  0  0  0
 27 28  1  0  0  0
 28 29  2  0  0  0
 29  1  1  0  0  0
  1  3  1  0  0  0
  3  4  2  0  0  0
  4  5  1  0  0  0
  5  6  2  0  0  0
  6  7  1  0  0  0
  6  8  1  0  0  0
  8 10  1  0  0  0
 10 12  1  0  0  0
 12 13  2  0  0  0
 13 14  1  0  0  0
 14 15  2  0  0  0
 15 16  1  0  0  0
 16 17  2  0  0  0
 17 18  1  0  0  0
 18 19  2  0  0  0
 18 20  2  0  0  0
 18 21  1  0  0  0
 21 22  1  0  0  0
 21 23  1  0  0  0
  8  9  2  0  0  0
 26 30  1  0  0  0
 30 31  1  0  0  0
 31 32  1  0  0  0
 32 33  1  0  0  0
 33 34  1  0  0  0
 34 35  1  0  0  0
 33 36  1  0  0  0
 36 37  1  0  0  0
 37 38  1  0  0  0
 38 39  1  0  0  0
 39 40  1  0  0  0
 39 41  1  0  0  0
 41 42  1  0  0  0
 29 24  1  0  0  0
  9  3  1  0  0  0
 35 30  1  0  0  0
 42 36  1  0  0  0
 17 12  1  0  0  0
  1  2  1  0  0  0
 10 11  1  0  0  0
M  END
> <minimizedAffinity>
30.01705

> <CNNscore>
0.6768528819

> <CNNaffinity>
6.9480791092

> <CNN_VS>
4.7028274536

> <CNNaffinity_variance>
0.5698742867

$$$$
[H]c1nc(N([H])c2c([H])c([H])c(N3C([H])([H])C([H])([H])C([H])(N4C([H])([H])C([H])([H])N(C([H])([H])[H])C([H])([H])C4([H])[H])C([H])([H])C3([H])[H])c([H])c2OC([H])([H])[H])nc(N([H])c2c([H])c([H])c([H])c([H])c2S(=O)(=O)C([H])(C([H])([H])[H])C([H])([H])[H])c1Cl


 44 48  0  0  0  0  0  0  0  0999 V2000
   26.1669    7.9789   53.8061 N   0  0  0  0  0  0  0  0  0  0  0  0
   26.8503    7.9885   52.9670 H   0  0  0  0  0  0  0  0  0  0  0  0
   24.8960    7.3907   53.5709 C   0  0  0  0  0  0  0  0  0  0  0  0
   24.5786    6.1045   53.7389 N   0  0  0  0  0  0  0  0  0  0  0  0
   23.3557    5.6151   53.4989 C   0  0  0  0  0  0  0  0  0  0  0  0
   22.3575    6.4518   53.0577 C   0  0  0  0  0  0  0  0  0  0  0  0
   20.7431    5.8260   52.7371 Cl  0  0  0  0  0  0  0  0  0  0  0  0
   22.6668    7.8151   52.8722 C   0  0  0  0  0  0  0  0  0  0  0  0
   23.9147    8.2058   53.1386 N   0  0  0  0  0  0  0  0  0  0  0  0
   21.6301    8.6476   52.4233 N   0  0  0  0  0  0  0  0  0  0  0  0
   20.7416    8.1265   52.1234 H   0  0  0  0  0  0  0  0  0  0  0  0
   21.5442   10.0422   52.2954 C   0  0  0  0  0  0  0  0  0  0  0  0
   21.4426   10.6155   51.0455 C   0  0  0  0  0  0  0  0  0  0  0  0
   21.3579   12.0062   50.9009 C   0  0  0  0  0  0  0  0  0  0  0  0
   21.3772   12.7900   52.0154 C   0  0  0  0  0  0  0  0  0  0  0  0
   21.4785   12.2147   53.2618 C   0  0  0  0  0  0  0  0  0  0  0  0
   21.5628   10.8576   53.4323 C   0  0  0  0  0  0  0  0  0  0  0  0
   21.6874   10.1566   54.9922 S   0  0  0  0  0  0  0  0  0  0  0  0
   20.7207   10.8277   55.9352 O   0  0  0  0  0  0  0  0  0  0  0  0
   23.0570   10.2321   55.6069 O   0  0  0  0  0  0  0  0  0  0  0  0
   21.2492    8.4285   55.0018 C   0  0  0  0  0  0  0  0  0  0  0  0
   21.8734    7.7278   56.1646 C   0  0  0  0  0  0  0  0  0  0  0  0
   19.7889    8.1842   54.8154 C   0  0  0  0  0  0  0  0  0  0  0  0
   28.0595    8.6496   55.1254 C   0  0  0  0  0  0  0  0  0  0  0  0
   28.6305    9.2025   56.2570 C   0  0  0  0  0  0  0  0  0  0  0  0
   27.8653    9.6832   57.2961 C   0  0  0  0  0  0  0  0  0  0  0  0
   26.5036    9.5829   57.1455 C   0  0  0  0  0  0  0  0  0  0  0  0
   25.8938    9.0296   56.0152 C   0  0  0  0  0  0  0  0  0  0  0  0
   26.6616    8.5521   54.9830 C   0  0  0  0  0  0  0  0  0  0  0  0
   28.4704   10.2591   58.4570 N   0  0  0  0  0  0  0  0  0  0  0  0
   28.9313    9.3873   59.4825 C   0  0  0  0  0  0  0  0  0  0  0  0
   29.8592    9.9955   60.4963 C   0  0  0  0  0  0  0  0  0  0  0  0
   29.4609   11.3566   60.9588 C   0  0  0  0  0  0  0  0  0  0  0  0
   28.4339   12.0115   60.0569 C   0  0  0  0  0  0  0  0  0  0  0  0
   28.6174   11.6863   58.6134 C   0  0  0  0  0  0  0  0  0  0  0  0
   30.4899   12.2790   61.2308 N   0  0  0  0  0  0  0  0  0  0  0  0
   31.6500   11.8456   61.8907 C   0  0  0  0  0  0  0  0  0  0  0  0
   32.4273   13.0577   62.4119 C   0  0  0  0  0  0  0  0  0  0  0  0
   32.4584   14.0504   61.3554 N   0  0  0  0  0  0  0  0  0  0  0  0
   33.2960   13.7061   60.2513 C   0  0  0  0  0  0  0  0  0  0  0  0
   31.1674   14.5569   61.0178 C   0  0  0  0  0  0  0  0  0  0  0  0
   30.1024   13.6110   61.5689 C   0  0  0  0  0  0  0  0  0  0  0  0
   28.9028    6.8058   53.8266 C   0  0  0  0  0  0  0  0  0  0  0  0
   28.8892    8.1848   54.1168 O   0  0  0  0  0  0  0  0  0  0  0  0
 43 44  1  0  0  0
 44 24  1  0  0  0
 24 25  2  0  0  0
 25 26  1  0  0  0
 26 27  2  0  0  0
 27 28  1  0  0  0
 28 29  2  0  0  0
 29  1  1  0  0  0
  1  3  1  0  0  0
  3  4  2  0  0  0
  4  5  1  0  0  0
  5  6  2  0  0  0
  6  7  1  0  0  0
  6  8  1  0  0  0
  8 10  1  0  0  0
 10 12  1  0  0  0
 12 13  2  0  0  0
 13 14  1  0  0  0
 14 15  2  0  0  0
 15 16  1  0  0  0
 16 17  2  0  0  0
 17 18  1  0  0  0
 18 19  2  0  0  0
 18 20  2  0  0  0
 18 21  1  0  0  0
 21 22  1  0  0  0
 21 23  1  0  0  0
  8  9  2  0  0  0
 26 30  1  0  0  0
 30 31  1  0  0  0
 31 32  1  0  0  0
 32 33  1  0  0  0
 33 34  1  0  0  0
 34 35  1  0  0  0
 33 36  1  0  0  0
 36 37  1  0  0  0
 37 38  1  0  0  0
 38 39  1  0  0  0
 39 40  1  0  0  0
 39 41  1  0  0  0
 41 42  1  0  0  0
 29 24  1  0  0  0
  9  3  1  0  0  0
 35 30  1  0  0  0
 42 36  1  0  0  0
 17 12  1  0  0  0
  1  2  1  0  0  0
 10 11  1  0  0  0
M  END
> <minimizedAffinity>
11.91349

> <CNNscore>
0.6712825894

> <CNNaffinity>
7.3767175674

> <CNN_VS>
4.9518618584

> <CNNaffinity_variance>
0.8543561697

$$$$
[H]c1nc(N([H])c2c([H])c([H])c(N3C([H])([H])C([H])([H])C([H])(N4C([H])([H])C([H])([H])N(C([H])([H])[H])C([H])([H])C4([H])[H])C([H])([H])C3([H])[H])c([H])c2OC([H])([H])[H])nc(N([H])c2c([H])c([H])c([H])c([H])c2S(=O)(=O)C([H])(C([H])([H])[H])C([H])([H])[H])c1Cl


 44 48  0  0  0  0  0  0  0  0999 V2000
   26.3808    8.1538   53.5410 N   0  0  0  0  0  0  0  0  0  0  0  0
   26.9038    8.4075   52.6282 H   0  0  0  0  0  0  0  0  0  0  0  0
   25.1159    7.5278   53.3837 C   0  0  0  0  0  0  0  0  0  0  0  0
   24.8424    6.2378   53.5944 N   0  0  0  0  0  0  0  0  0  0  0  0
   23.6226    5.7116   53.4279 C   0  0  0  0  0  0  0  0  0  0  0  0
   22.5809    6.5122   53.0212 C   0  0  0  0  0  0  0  0  0  0  0  0
   20.9698    5.8378   52.7971 Cl  0  0  0  0  0  0  0  0  0  0  0  0
   22.8434    7.8786   52.7918 C   0  0  0  0  0  0  0  0  0  0  0  0
   24.0923    8.3074   52.9856 N   0  0  0  0  0  0  0  0  0  0  0  0
   21.7631    8.6738   52.3796 N   0  0  0  0  0  0  0  0  0  0  0  0
   20.9087    8.1200   52.0417 H   0  0  0  0  0  0  0  0  0  0  0  0
   21.5969   10.0661   52.3294 C   0  0  0  0  0  0  0  0  0  0  0  0
   21.6312   10.7218   51.1169 C   0  0  0  0  0  0  0  0  0  0  0  0
   21.4687   12.1115   51.0501 C   0  0  0  0  0  0  0  0  0  0  0  0
   21.2754   12.8115   52.2031 C   0  0  0  0  0  0  0  0  0  0  0  0
   21.2414   12.1541   53.4120 C   0  0  0  0  0  0  0  0  0  0  0  0
   21.3974   10.7959   53.5064 C   0  0  0  0  0  0  0  0  0  0  0  0
   21.3513    9.9918   55.0202 S   0  0  0  0  0  0  0  0  0  0  0  0
   20.1768   10.4846   55.8276 O   0  0  0  0  0  0  0  0  0  0  0  0
   22.5880   10.1593   55.8580 O   0  0  0  0  0  0  0  0  0  0  0  0
   21.1171    8.2325   54.8526 C   0  0  0  0  0  0  0  0  0  0  0  0
   21.6697    7.5071   56.0364 C   0  0  0  0  0  0  0  0  0  0  0  0
   19.7288    7.8521   54.4591 C   0  0  0  0  0  0  0  0  0  0  0  0
   26.2748    8.9583   55.8023 C   0  0  0  0  0  0  0  0  0  0  0  0
   26.8569    9.3124   57.0057 C   0  0  0  0  0  0  0  0  0  0  0  0
   28.2162    9.2255   57.2086 C   0  0  0  0  0  0  0  0  0  0  0  0
   28.9612    8.7674   56.1492 C   0  0  0  0  0  0  0  0  0  0  0  0
   28.4049    8.4014   54.9196 C   0  0  0  0  0  0  0  0  0  0  0  0
   27.0497    8.4902   54.7232 C   0  0  0  0  0  0  0  0  0  0  0  0
   28.8028    9.5884   58.4615 N   0  0  0  0  0  0  0  0  0  0  0  0
   29.0271    8.5657   59.4248 C   0  0  0  0  0  0  0  0  0  0  0  0
   29.9491    8.9188   60.5579 C   0  0  0  0  0  0  0  0  0  0  0  0
   29.7358   10.2820   61.1248 C   0  0  0  0  0  0  0  0  0  0  0  0
   28.9095   11.1761   60.2221 C   0  0  0  0  0  0  0  0  0  0  0  0
   29.1630   10.9515   58.7700 C   0  0  0  0  0  0  0  0  0  0  0  0
   30.8721   10.9912   61.5604 N   0  0  0  0  0  0  0  0  0  0  0  0
   30.7082   12.1649   62.3119 C   0  0  0  0  0  0  0  0  0  0  0  0
   32.0235   12.9487   62.3330 C   0  0  0  0  0  0  0  0  0  0  0  0
   33.0957   12.0061   62.5867 N   0  0  0  0  0  0  0  0  0  0  0  0
   33.1214   11.4914   63.9185 C   0  0  0  0  0  0  0  0  0  0  0  0
   33.2576   11.0412   61.5476 C   0  0  0  0  0  0  0  0  0  0  0  0
   31.9983   11.0251   60.6835 C   0  0  0  0  0  0  0  0  0  0  0  0
   24.2652   10.2492   56.1062 C   0  0  0  0  0  0  0  0  0  0  0  0
   24.8998    9.0703   55.6662 O   0  0  0  0  0  0  0  0  0  0  0  0
 43 44  1  0  0  0
 44 24  1  0  0  0
 24 25  2  0  0  0
 25 26  1  0  0  0
 26 27  2  0  0  0
 27 28  1  0  0  0
 28 29  2  0  0  0
 29  1  1  0  0  0
  1  3  1  0  0  0
  3  4  2  0  0  0
  4  5  1  0  0  0
  5  6  2  0  0  0
  6  7  1  0  0  0
  6  8  1  0  0  0
  8 10  1  0  0  0
 10 12  1  0  0  0
 12 13  2  0  0  0
 13 14  1  0  0  0
 14 15  2  0  0  0
 15 16  1  0  0  0
 16 17  2  0  0  0
 17 18  1  0  0  0
 18 19  2  0  0  0
 18 20  2  0  0  0
 18 21  1  0  0  0
 21 22  1  0  0  0
 21 23  1  0  0  0
  8  9  2  0  0  0
 26 30  1  0  0  0
 30 31  1  0  0  0
 31 32  1  0  0  0
 32 33  1  0  0  0
 33 34  1  0  0  0
 34 35  1  0  0  0
 33 36  1  0  0  0
 36 37  1  0  0  0
 37 38  1  0  0  0
 38 39  1  0  0  0
 39 40  1  0  0  0
 39 41  1  0  0  0
 41 42  1  0  0  0
 29 24  1  0  0  0
  9  3  1  0  0  0
 35 30  1  0  0  0
 42 36  1  0  0  0
 17 12  1  0  0  0
  1  2  1  0  0  0
 10 11  1  0  0  0
M  END
> <minimizedAffinity>
10.90813

> <CNNscore>
0.6431013346

> <CNNaffinity>
7.3926248550

> <CNN_VS>
4.7542071342

> <CNNaffinity_variance>
0.5616930127

$$$$
[H]c1nc(N([H])c2c([H])c([H])c(N3C([H])([H])C([H])([H])C([H])(N4C([H])([H])C([H])([H])N(C([H])([H])[H])C([H])([H])C4([H])[H])C([H])([H])C3([H])[H])c([H])c2OC([H])([H])[H])nc(N([H])c2c([H])c([H])c([H])c([H])c2S(=O)(=O)C([H])(C([H])([H])[H])C([H])([H])[H])c1Cl


 44 48  0  0  0  0  0  0  0  0999 V2000
   25.7186    7.2359   53.0390 N   0  0  0  0  0  0  0  0  0  0  0  0
   26.3399    6.9368   52.2049 H   0  0  0  0  0  0  0  0  0  0  0  0
   24.3484    6.8714   52.9605 C   0  0  0  0  0  0  0  0  0  0  0  0
   23.8502    5.6403   53.0995 N   0  0  0  0  0  0  0  0  0  0  0  0
   22.5424    5.3661   53.0148 C   0  0  0  0  0  0  0  0  0  0  0  0
   21.6443    6.3793   52.7742 C   0  0  0  0  0  0  0  0  0  0  0  0
   19.9207    6.0376   52.6598 Cl  0  0  0  0  0  0  0  0  0  0  0  0
   22.1448    7.6891   52.6235 C   0  0  0  0  0  0  0  0  0  0  0  0
   23.4645    7.8601   52.7250 N   0  0  0  0  0  0  0  0  0  0  0  0
   21.2074    8.7047   52.3807 N   0  0  0  0  0  0  0  0  0  0  0  0
   20.1961    8.3602   52.2824 H   0  0  0  0  0  0  0  0  0  0  0  0
   21.3529   10.0934   52.2430 C   0  0  0  0  0  0  0  0  0  0  0  0
   21.2899   10.6732   50.9936 C   0  0  0  0  0  0  0  0  0  0  0  0
   21.4351   12.0579   50.8393 C   0  0  0  0  0  0  0  0  0  0  0  0
   21.6404   12.8292   51.9437 C   0  0  0  0  0  0  0  0  0  0  0  0
   21.7025   12.2474   53.1898 C   0  0  0  0  0  0  0  0  0  0  0  0
   21.5638   10.8960   53.3696 C   0  0  0  0  0  0  0  0  0  0  0  0
   21.6427   10.1869   54.9288 S   0  0  0  0  0  0  0  0  0  0  0  0
   20.7438   10.9366   55.8797 O   0  0  0  0  0  0  0  0  0  0  0  0
   23.0190   10.1473   55.5317 O   0  0  0  0  0  0  0  0  0  0  0  0
   21.0613    8.5016   54.9434 C   0  0  0  0  0  0  0  0  0  0  0  0
   21.6540    7.7443   56.0870 C   0  0  0  0  0  0  0  0  0  0  0  0
   19.5814    8.3817   54.7940 C   0  0  0  0  0  0  0  0  0  0  0  0
   25.6778    8.1717   55.2514 C   0  0  0  0  0  0  0  0  0  0  0  0
   26.2592    8.8538   56.3045 C   0  0  0  0  0  0  0  0  0  0  0  0
   27.5489    9.3321   56.2367 C   0  0  0  0  0  0  0  0  0  0  0  0
   28.2251    9.0935   55.0650 C   0  0  0  0  0  0  0  0  0  0  0  0
   27.6672    8.4078   53.9814 C   0  0  0  0  0  0  0  0  0  0  0  0
   26.3816    7.9337   54.0548 C   0  0  0  0  0  0  0  0  0  0  0  0
   28.1392   10.0293   57.3371 N   0  0  0  0  0  0  0  0  0  0  0  0
   28.8981   11.2018   57.0661 C   0  0  0  0  0  0  0  0  0  0  0  0
   29.1940   12.0826   58.2474 C   0  0  0  0  0  0  0  0  0  0  0  0
   29.5926   11.3458   59.4817 C   0  0  0  0  0  0  0  0  0  0  0  0
   29.2593    9.8685   59.4231 C   0  0  0  0  0  0  0  0  0  0  0  0
   27.9898    9.5740   58.6985 C   0  0  0  0  0  0  0  0  0  0  0  0
   29.1630   11.8662   60.7180 N   0  0  0  0  0  0  0  0  0  0  0  0
   28.2573   12.9379   60.7396 C   0  0  0  0  0  0  0  0  0  0  0  0
   28.2423   13.5692   62.1347 C   0  0  0  0  0  0  0  0  0  0  0  0
   28.1977   12.4936   63.1061 N   0  0  0  0  0  0  0  0  0  0  0  0
   26.9488   11.8033   63.1601 C   0  0  0  0  0  0  0  0  0  0  0  0
   29.3609   11.6667   63.0874 C   0  0  0  0  0  0  0  0  0  0  0  0
   30.1160   11.9002   61.7805 C   0  0  0  0  0  0  0  0  0  0  0  0
   24.1492    6.3378   55.5640 C   0  0  0  0  0  0  0  0  0  0  0  0
   24.3751    7.7176   55.3869 O   0  0  0  0  0  0  0  0  0  0  0  0
 43 44  1  0  0  0
 44 24  1  0  0  0
 24 25  2  0  0  0
 25 26  1  0  0  0
 26 27  2  0  0  0
 27 28  1  0  0  0
 28 29  2  0  0  0
 29  1  1  0  0  0
  1  3  1  0  0  0
  3  4  2  0  0  0
  4  5  1  0  0  0
  5  6  2  0  0  0
  6  7  1  0  0  0
  6  8  1  0  0  0
  8 10  1  0  0  0
 10 12  1  0  0  0
 12 13  2  0  0  0
 13 14  1  0  0  0
 14 15  2  0  0  0
 15 16  1  0  0  0
 16 17  2  0  0  0
 17 18  1  0  0  0
 18 19  2  0  0  0
 18 20  2  0  0  0
 18 21  1  0  0  0
 21 22  1  0  0  0
 21 23  1  0  0  0
  8  9  2  0  0  0
 26 30  1  0  0  0
 30 31  1  0  0  0
 31 32  1  0  0  0
 32 33  1  0  0  0
 33 34  1  0  0  0
 34 35  1  0  0  0
 33 36  1  0  0  0
 36 37  1  0  0  0
 37 38  1  0  0  0
 38 39  1  0  0  0
 39 40  1  0  0  0
 39 41  1  0  0  0
 41 42  1  0  0  0
 29 24  1  0  0  0
  9  3  1  0  0  0
 35 30  1  0  0  0
 42 36  1  0  0  0
 17 12  1  0  0  0
  1  2  1  0  0  0
 10 11  1  0  0  0
M  END
> <minimizedAffinity>
20.42462

> <CNNscore>
0.6102055311

> <CNNaffinity>
7.2918562889

> <CNN_VS>
4.4495310783

> <CNNaffinity_variance>
0.6808023453

$$$$
[H]c1nc(N([H])c2c([H])c([H])c(N3C([H])([H])C([H])([H])C([H])(N4C([H])([H])C([H])([H])N(C([H])([H])[H])C([H])([H])C4([H])[H])C([H])([H])C3([H])[H])c([H])c2OC([H])([H])[H])nc(N([H])c2c([H])c([H])c([H])c([H])c2S(=O)(=O)C([H])(C([H])([H])[H])C([H])([H])[H])c1Cl


 44 48  0  0  0  0  0  0  0  0999 V2000
   26.1921    8.1505   53.8229 N   0  0  0  0  0  0  0  0  0  0  0  0
   26.8157    8.3201   52.9548 H   0  0  0  0  0  0  0  0  0  0  0  0
   24.9350    7.5365   53.5797 C   0  0  0  0  0  0  0  0  0  0  0  0
   24.6365    6.2485   53.7671 N   0  0  0  0  0  0  0  0  0  0  0  0
   23.4258    5.7340   53.5180 C   0  0  0  0  0  0  0  0  0  0  0  0
   22.4207    6.5452   53.0459 C   0  0  0  0  0  0  0  0  0  0  0  0
   20.8222    5.8862   52.7128 Cl  0  0  0  0  0  0  0  0  0  0  0  0
   22.7101    7.9099   52.8393 C   0  0  0  0  0  0  0  0  0  0  0  0
   23.9470    8.3266   53.1172 N   0  0  0  0  0  0  0  0  0  0  0  0
   21.6667    8.7162   52.3591 N   0  0  0  0  0  0  0  0  0  0  0  0
   20.8093    8.1720   52.0131 H   0  0  0  0  0  0  0  0  0  0  0  0
   21.5406   10.1092   52.2492 C   0  0  0  0  0  0  0  0  0  0  0  0
   21.4254   10.6957   51.0066 C   0  0  0  0  0  0  0  0  0  0  0  0
   21.3006   12.0852   50.8801 C   0  0  0  0  0  0  0  0  0  0  0  0
   21.2945   12.8545   52.0048 C   0  0  0  0  0  0  0  0  0  0  0  0
   21.4096   12.2660   53.2439 C   0  0  0  0  0  0  0  0  0  0  0  0
   21.5328   10.9098   53.3968 C   0  0  0  0  0  0  0  0  0  0  0  0
   21.6740   10.1922   54.9477 S   0  0  0  0  0  0  0  0  0  0  0  0
   20.7210   10.8565   55.9093 O   0  0  0  0  0  0  0  0  0  0  0  0
   23.0512   10.2569   55.5464 O   0  0  0  0  0  0  0  0  0  0  0  0
   21.2304    8.4655   54.9447 C   0  0  0  0  0  0  0  0  0  0  0  0
   21.8390    7.7578   56.1114 C   0  0  0  0  0  0  0  0  0  0  0  0
   19.7715    8.2266   54.7406 C   0  0  0  0  0  0  0  0  0  0  0  0
   28.1425    8.5408   55.1704 C   0  0  0  0  0  0  0  0  0  0  0  0
   28.7649    8.9378   56.3397 C   0  0  0  0  0  0  0  0  0  0  0  0
   28.0489    9.3789   57.4302 C   0  0  0  0  0  0  0  0  0  0  0  0
   26.6824    9.4028   57.2913 C   0  0  0  0  0  0  0  0  0  0  0  0
   26.0214    9.0083   56.1238 C   0  0  0  0  0  0  0  0  0  0  0  0
   26.7403    8.5695   55.0404 C   0  0  0  0  0  0  0  0  0  0  0  0
   28.7072    9.7933   58.6303 N   0  0  0  0  0  0  0  0  0  0  0  0
   28.9011    8.8326   59.6617 C   0  0  0  0  0  0  0  0  0  0  0  0
   29.8885    9.2052   60.7318 C   0  0  0  0  0  0  0  0  0  0  0  0
   29.7885   10.6185   61.1984 C   0  0  0  0  0  0  0  0  0  0  0  0
   28.9882   11.4973   60.2580 C   0  0  0  0  0  0  0  0  0  0  0  0
   29.1688   11.1476   58.8199 C   0  0  0  0  0  0  0  0  0  0  0  0
   30.9855   11.2781   61.5385 N   0  0  0  0  0  0  0  0  0  0  0  0
   30.9679   12.6600   61.7824 C   0  0  0  0  0  0  0  0  0  0  0  0
   32.3981   13.2060   61.7456 C   0  0  0  0  0  0  0  0  0  0  0  0
   33.2388   12.2942   62.4969 N   0  0  0  0  0  0  0  0  0  0  0  0
   33.0240   12.3263   63.9084 C   0  0  0  0  0  0  0  0  0  0  0  0
   33.3246   10.9942   61.9139 C   0  0  0  0  0  0  0  0  0  0  0  0
   32.1848   10.8224   60.9121 C   0  0  0  0  0  0  0  0  0  0  0  0
   28.9710    6.7299   53.8169 C   0  0  0  0  0  0  0  0  0  0  0  0
   28.9243    8.1074   54.1108 O   0  0  0  0  0  0  0  0  0  0  0  0
 43 44  1  0  0  0
 44 24  1  0  0  0
 24 25  2  0  0  0
 25 26  1  0  0  0
 26 27  2  0  0  0
 27 28  1  0  0  0
 28 29  2  0  0  0
 29  1  1  0  0  0
  1  3  1  0  0  0
  3  4  2  0  0  0
  4  5  1  0  0  0
  5  6  2  0  0  0
  6  7  1  0  0  0
  6  8  1  0  0  0
  8 10  1  0  0  0
 10 12  1  0  0  0
 12 13  2  0  0  0
 13 14  1  0  0  0
 14 15  2  0  0  0
 15 16  1  0  0  0
 16 17  2  0  0  0
 17 18  1  0  0  0
 18 19  2  0  0  0
 18 20  2  0  0  0
 18 21  1  0  0  0
 21 22  1  0  0  0
 21 23  1  0  0  0
  8  9  2  0  0  0
 26 30  1  0  0  0
 30 31  1  0  0  0
 31 32  1  0  0  0
 32 33  1  0  0  0
 33 34  1  0  0  0
 34 35  1  0  0  0
 33 36  1  0  0  0
 36 37  1  0  0  0
 37 38  1  0  0  0
 38 39  1  0  0  0
 39 40  1  0  0  0
 39 41  1  0  0  0
 41 42  1  0  0  0
 29 24  1  0  0  0
  9  3  1  0  0  0
 35 30  1  0  0  0
 42 36  1  0  0  0
 17 12  1  0  0  0
  1  2  1  0  0  0
 10 11  1  0  0  0
M  END
> <minimizedAffinity>
11.33832

> <CNNscore>
0.6061388850

> <CNNaffinity>
7.2555208206

> <CNN_VS>
4.3978533745

> <CNNaffinity_variance>
0.7543996572

$$$$
[H]c1nc(N([H])c2c([H])c([H])c(N3C([H])([H])C([H])([H])C([H])(N4C([H])([H])C([H])([H])N(C([H])([H])[H])C([H])([H])C4([H])[H])C([H])([H])C3([H])[H])c([H])c2OC([H])([H])[H])nc(N([H])c2c([H])c([H])c([H])c([H])c2S(=O)(=O)C([H])(C([H])([H])[H])C([H])([H])[H])c1Cl


 44 48  0  0  0  0  0  0  0  0999 V2000
   26.1791    7.9567   53.5983 N   0  0  0  0  0  0  0  0  0  0  0  0
   26.6053    8.2809   52.6579 H   0  0  0  0  0  0  0  0  0  0  0  0
   25.0082    7.1580   53.5121 C   0  0  0  0  0  0  0  0  0  0  0  0
   24.9436    5.8966   53.0785 N   0  0  0  0  0  0  0  0  0  0  0  0
   23.8023    5.1988   53.0244 C   0  0  0  0  0  0  0  0  0  0  0  0
   22.6235    5.7812   53.4277 C   0  0  0  0  0  0  0  0  0  0  0  0
   21.1128    4.8788   53.3637 Cl  0  0  0  0  0  0  0  0  0  0  0  0
   22.6644    7.1129   53.8899 C   0  0  0  0  0  0  0  0  0  0  0  0
   23.8509    7.7236   53.9058 N   0  0  0  0  0  0  0  0  0  0  0  0
   21.4485    7.6829   54.2972 N   0  0  0  0  0  0  0  0  0  0  0  0
   20.6205    7.0008   54.3069 H   0  0  0  0  0  0  0  0  0  0  0  0
   21.1180    8.9869   54.6957 C   0  0  0  0  0  0  0  0  0  0  0  0
   20.7800    9.2427   56.0078 C   0  0  0  0  0  0  0  0  0  0  0  0
   20.4459   10.5388   56.4210 C   0  0  0  0  0  0  0  0  0  0  0  0
   20.4586   11.5490   55.5067 C   0  0  0  0  0  0  0  0  0  0  0  0
   20.7967   11.2906   54.1975 C   0  0  0  0  0  0  0  0  0  0  0  0
   21.1278   10.0328   53.7661 C   0  0  0  0  0  0  0  0  0  0  0  0
   21.5477    9.7277   52.1319 S   0  0  0  0  0  0  0  0  0  0  0  0
   22.9694    9.2311   52.0514 O   0  0  0  0  0  0  0  0  0  0  0  0
   21.4231   10.9156   51.2193 O   0  0  0  0  0  0  0  0  0  0  0  0
   20.5476    8.4480   51.3967 C   0  0  0  0  0  0  0  0  0  0  0  0
   21.3823    7.5372   50.5563 C   0  0  0  0  0  0  0  0  0  0  0  0
   19.6401    7.7705   52.3685 C   0  0  0  0  0  0  0  0  0  0  0  0
   26.1005    8.9128   55.8010 C   0  0  0  0  0  0  0  0  0  0  0  0
   26.6983    9.3591   56.9653 C   0  0  0  0  0  0  0  0  0  0  0  0
   28.0626    9.3105   57.1464 C   0  0  0  0  0  0  0  0  0  0  0  0
   28.7960    8.7938   56.1061 C   0  0  0  0  0  0  0  0  0  0  0  0
   28.2238    8.3342   54.9158 C   0  0  0  0  0  0  0  0  0  0  0  0
   26.8636    8.3853   54.7411 C   0  0  0  0  0  0  0  0  0  0  0  0
   28.6657    9.7690   58.3594 N   0  0  0  0  0  0  0  0  0  0  0  0
   28.8215    8.8439   59.4291 C   0  0  0  0  0  0  0  0  0  0  0  0
   29.7593    9.2591   60.5277 C   0  0  0  0  0  0  0  0  0  0  0  0
   29.6295   10.6859   60.9431 C   0  0  0  0  0  0  0  0  0  0  0  0
   28.8644   11.5271   59.9410 C   0  0  0  0  0  0  0  0  0  0  0  0
   29.1093   11.1325   58.5242 C   0  0  0  0  0  0  0  0  0  0  0  0
   30.8061   11.3662   61.3124 N   0  0  0  0  0  0  0  0  0  0  0  0
   30.7506   12.7395   61.5959 C   0  0  0  0  0  0  0  0  0  0  0  0
   32.1663   13.3231   61.5872 C   0  0  0  0  0  0  0  0  0  0  0  0
   33.0244   12.4120   62.3192 N   0  0  0  0  0  0  0  0  0  0  0  0
   32.7977   12.3976   63.7291 C   0  0  0  0  0  0  0  0  0  0  0  0
   33.1489   11.1321   61.6998 C   0  0  0  0  0  0  0  0  0  0  0  0
   32.0219   10.9600   60.6835 C   0  0  0  0  0  0  0  0  0  0  0  0
   24.0949   10.2448   55.8323 C   0  0  0  0  0  0  0  0  0  0  0  0
   24.7213    8.9909   55.6852 O   0  0  0  0  0  0  0  0  0  0  0  0
 43 44  1  0  0  0
 44 24  1  0  0  0
 24 25  2  0  0  0
 25 26  1  0  0  0
 26 27  2  0  0  0
 27 28  1  0  0  0
 28 29  2  0  0  0
 29  1  1  0  0  0
  1  3  1  0  0  0
  3  4  2  0  0  0
  4  5  1  0  0  0
  5  6  2  0  0  0
  6  7  1  0  0  0
  6  8  1  0  0  0
  8 10  1  0  0  0
 10 12  1  0  0  0
 12 13  2  0  0  0
 13 14  1  0  0  0
 14 15  2  0  0  0
 15 16  1  0  0  0
 16 17  2  0  0  0
 17 18  1  0  0  0
 18 19  2  0  0  0
 18 20  2  0  0  0
 18 21  1  0  0  0
 21 22  1  0  0  0
 21 23  1  0  0  0
  8  9  2  0  0  0
 26 30  1  0  0  0
 30 31  1  0  0  0
 31 32  1  0  0  0
 32 33  1  0  0  0
 33 34  1  0  0  0
 34 35  1  0  0  0
 33 36  1  0  0  0
 36 37  1  0  0  0
 37 38  1  0  0  0
 38 39  1  0  0  0
 39 40  1  0  0  0
 39 41  1  0  0  0
 41 42  1  0  0  0
 29 24  1  0  0  0
  9  3  1  0  0  0
 35 30  1  0  0  0
 42 36  1  0  0  0
 17 12  1  0  0  0
  1  2  1  0  0  0
 10 11  1  0  0  0
M  END
> <minimizedAffinity>
17.67924

> <CNNscore>
0.5868346095

> <CNNaffinity>
7.2309980392

> <CNN_VS>
4.2434000969

> <CNNaffinity_variance>
0.9703396559

$$$$
[H]c1nc(N([H])c2c([H])c([H])c(N3C([H])([H])C([H])([H])C([H])(N4C([H])([H])C([H])([H])N(C([H])([H])[H])C([H])([H])C4([H])[H])C([H])([H])C3([H])[H])c([H])c2OC([H])([H])[H])nc(N([H])c2c([H])c([H])c([H])c([H])c2S(=O)(=O)C([H])(C([H])([H])[H])C([H])([H])[H])c1Cl


 44 48  0  0  0  0  0  0  0  0999 V2000
   26.9423    8.1608   54.6845 N   0  0  0  0  0  0  0  0  0  0  0  0
   27.6050    8.1823   53.8292 H   0  0  0  0  0  0  0  0  0  0  0  0
   25.7773    7.3594   54.5531 C   0  0  0  0  0  0  0  0  0  0  0  0
   25.7280    6.0257   54.5980 N   0  0  0  0  0  0  0  0  0  0  0  0
   24.5911    5.3306   54.4679 C   0  0  0  0  0  0  0  0  0  0  0  0
   23.4011    5.9931   54.2780 C   0  0  0  0  0  0  0  0  0  0  0  0
   21.8960    5.0957   54.1051 Cl  0  0  0  0  0  0  0  0  0  0  0  0
   23.4259    7.4022   54.2268 C   0  0  0  0  0  0  0  0  0  0  0  0
   24.6091    8.0033   54.3669 N   0  0  0  0  0  0  0  0  0  0  0  0
   22.1980    8.0538   54.0341 N   0  0  0  0  0  0  0  0  0  0  0  0
   21.6469    8.2366   54.9362 H   0  0  0  0  0  0  0  0  0  0  0  0
   21.5585    8.5115   52.8722 C   0  0  0  0  0  0  0  0  0  0  0  0
   21.1669    7.6143   51.9011 C   0  0  0  0  0  0  0  0  0  0  0  0
   20.5290    8.0556   50.7347 C   0  0  0  0  0  0  0  0  0  0  0  0
   20.2988    9.3885   50.5698 C   0  0  0  0  0  0  0  0  0  0  0  0
   20.6907   10.2817   51.5411 C   0  0  0  0  0  0  0  0  0  0  0  0
   21.3163    9.8778   52.6915 C   0  0  0  0  0  0  0  0  0  0  0  0
   21.7973   11.0032   53.8924 S   0  0  0  0  0  0  0  0  0  0  0  0
   20.5956   11.7642   54.3934 O   0  0  0  0  0  0  0  0  0  0  0  0
   22.8207   12.0064   53.4389 O   0  0  0  0  0  0  0  0  0  0  0  0
   22.5000   10.2127   55.3275 C   0  0  0  0  0  0  0  0  0  0  0  0
   23.7536   10.9041   55.7554 C   0  0  0  0  0  0  0  0  0  0  0  0
   21.5071    9.9576   56.4120 C   0  0  0  0  0  0  0  0  0  0  0  0
   28.3550    9.8990   55.5535 C   0  0  0  0  0  0  0  0  0  0  0  0
   28.8196   10.7030   56.5781 C   0  0  0  0  0  0  0  0  0  0  0  0
   28.3305   10.6000   57.8613 C   0  0  0  0  0  0  0  0  0  0  0  0
   27.3554    9.6543   58.0663 C   0  0  0  0  0  0  0  0  0  0  0  0
   26.8635    8.8253   57.0532 C   0  0  0  0  0  0  0  0  0  0  0  0
   27.3549    8.9325   55.7765 C   0  0  0  0  0  0  0  0  0  0  0  0
   28.8158   11.4439   58.9090 N   0  0  0  0  0  0  0  0  0  0  0  0
   29.6764   10.8772   59.8901 C   0  0  0  0  0  0  0  0  0  0  0  0
   30.4317   11.8539   60.7470 C   0  0  0  0  0  0  0  0  0  0  0  0
   29.6238   13.0175   61.2147 C   0  0  0  0  0  0  0  0  0  0  0  0
   28.3325   13.1912   60.4405 C   0  0  0  0  0  0  0  0  0  0  0  0
   28.4531   12.8381   58.9969 C   0  0  0  0  0  0  0  0  0  0  0  0
   30.2731   14.2635   61.3130 N   0  0  0  0  0  0  0  0  0  0  0  0
   31.6081   14.3153   61.7423 C   0  0  0  0  0  0  0  0  0  0  0  0
   31.9650   15.7512   62.1371 C   0  0  0  0  0  0  0  0  0  0  0  0
   31.4427   16.6341   61.1123 N   0  0  0  0  0  0  0  0  0  0  0  0
   32.1396   16.5651   59.8677 C   0  0  0  0  0  0  0  0  0  0  0  0
   30.0182   16.6183   61.0250 C   0  0  0  0  0  0  0  0  0  0  0  0
   29.4899   15.3776   61.7419 C   0  0  0  0  0  0  0  0  0  0  0  0
   30.0336   10.8654   54.1232 C   0  0  0  0  0  0  0  0  0  0  0  0
   28.8915   10.0557   54.2849 O   0  0  0  0  0  0  0  0  0  0  0  0
 43 44  1  0  0  0
 44 24  1  0  0  0
 24 25  2  0  0  0
 25 26  1  0  0  0
 26 27  2  0  0  0
 27 28  1  0  0  0
 28 29  2  0  0  0
 29  1  1  0  0  0
  1  3  1  0  0  0
  3  4  2  0  0  0
  4  5  1  0  0  0
  5  6  2  0  0  0
  6  7  1  0  0  0
  6  8  1  0  0  0
  8 10  1  0  0  0
 10 12  1  0  0  0
 12 13  2  0  0  0
 13 14  1  0  0  0
 14 15  2  0  0  0
 15 16  1  0  0  0
 16 17  2  0  0  0
 17 18  1  0  0  0
 18 19  2  0  0  0
 18 20  2  0  0  0
 18 21  1  0  0  0
 21 22  1  0  0  0
 21 23  1  0  0  0
  8  9  2  0  0  0
 26 30  1  0  0  0
 30 31  1  0  0  0
 31 32  1  0  0  0
 32 33  1  0  0  0
 33 34  1  0  0  0
 34 35  1  0  0  0
 33 36  1  0  0  0
 36 37  1  0  0  0
 37 38  1  0  0  0
 38 39  1  0  0  0
 39 40  1  0  0  0
 39 41  1  0  0  0
 41 42  1  0  0  0
 29 24  1  0  0  0
  9  3  1  0  0  0
 35 30  1  0  0  0
 42 36  1  0  0  0
 17 12  1  0  0  0
  1  2  1  0  0  0
 10 11  1  0  0  0
M  END
> <minimizedAffinity>
27.15852

> <CNNscore>
0.4663699269

> <CNNaffinity>
6.9550642967

> <CNN_VS>
3.2436327934

> <CNNaffinity_variance>
1.0357576609

$$$$
[H]c1nc(N([H])c2c([H])c([H])c(N3C([H])([H])C([H])([H])C([H])(N4C([H])([H])C([H])([H])N(C([H])([H])[H])C([H])([H])C4([H])[H])C([H])([H])C3([H])[H])c([H])c2OC([H])([H])[H])nc(N([H])c2c([H])c([H])c([H])c([H])c2S(=O)(=O)C([H])(C([H])([H])[H])C([H])([H])[H])c1Cl


 44 48  0  0  0  0  0  0  0  0999 V2000
   24.1285    7.2648   52.9604 N   0  0  0  0  0  0  0  0  0  0  0  0
   24.5987    6.5510   52.2966 H   0  0  0  0  0  0  0  0  0  0  0  0
   22.7450    7.5015   52.7456 C   0  0  0  0  0  0  0  0  0  0  0  0
   22.2084    8.5860   52.1805 N   0  0  0  0  0  0  0  0  0  0  0  0
   20.8904    8.7445   52.0067 C   0  0  0  0  0  0  0  0  0  0  0  0
   20.0219    7.7613   52.4193 C   0  0  0  0  0  0  0  0  0  0  0  0
   18.2854    7.9523   52.1987 Cl  0  0  0  0  0  0  0  0  0  0  0  0
   20.5632    6.6055   53.0192 C   0  0  0  0  0  0  0  0  0  0  0  0
   21.8900    6.5416   53.1478 N   0  0  0  0  0  0  0  0  0  0  0  0
   19.6557    5.6168   53.4293 N   0  0  0  0  0  0  0  0  0  0  0  0
   18.8092    5.9900   53.9726 H   0  0  0  0  0  0  0  0  0  0  0  0
   19.6542    4.2244   53.2570 C   0  0  0  0  0  0  0  0  0  0  0  0
   20.7657    3.5917   52.7417 C   0  0  0  0  0  0  0  0  0  0  0  0
   20.7793    2.2025   52.5619 C   0  0  0  0  0  0  0  0  0  0  0  0
   19.6757    1.4800   52.9038 C   0  0  0  0  0  0  0  0  0  0  0  0
   18.5677    2.1145   53.4182 C   0  0  0  0  0  0  0  0  0  0  0  0
   18.5272    3.4715   53.6046 C   0  0  0  0  0  0  0  0  0  0  0  0
   17.1394    4.2465   54.2477 S   0  0  0  0  0  0  0  0  0  0  0  0
   17.0900    5.6800   53.7820 O   0  0  0  0  0  0  0  0  0  0  0  0
   17.0598    4.2475   55.7487 O   0  0  0  0  0  0  0  0  0  0  0  0
   15.6195    3.5039   53.6848 C   0  0  0  0  0  0  0  0  0  0  0  0
   14.6875    4.5411   53.1479 C   0  0  0  0  0  0  0  0  0  0  0  0
   15.8278    2.3145   52.8080 C   0  0  0  0  0  0  0  0  0  0  0  0
   24.3781    8.5489   54.9756 C   0  0  0  0  0  0  0  0  0  0  0  0
   25.1416    9.1404   55.9652 C   0  0  0  0  0  0  0  0  0  0  0  0
   26.5163    9.0584   55.9689 C   0  0  0  0  0  0  0  0  0  0  0  0
   27.0863    8.3562   54.9349 C   0  0  0  0  0  0  0  0  0  0  0  0
   26.3441    7.7465   53.9185 C   0  0  0  0  0  0  0  0  0  0  0  0
   24.9745    7.8317   53.9202 C   0  0  0  0  0  0  0  0  0  0  0  0
   27.2921    9.6692   57.0035 N   0  0  0  0  0  0  0  0  0  0  0  0
   27.9393   10.9049   56.7236 C   0  0  0  0  0  0  0  0  0  0  0  0
   28.4369   11.6727   57.9160 C   0  0  0  0  0  0  0  0  0  0  0  0
   29.1020   10.8348   58.9555 C   0  0  0  0  0  0  0  0  0  0  0  0
   28.8155    9.3552   58.7959 C   0  0  0  0  0  0  0  0  0  0  0  0
   27.4369    9.0663   58.3068 C   0  0  0  0  0  0  0  0  0  0  0  0
   28.9132   11.1977   60.3032 N   0  0  0  0  0  0  0  0  0  0  0  0
   29.3613   12.4499   60.7512 C   0  0  0  0  0  0  0  0  0  0  0  0
   29.4033   12.4626   62.2819 C   0  0  0  0  0  0  0  0  0  0  0  0
   28.1761   11.8581   62.7627 N   0  0  0  0  0  0  0  0  0  0  0  0
   27.0107   12.6593   62.5648 C   0  0  0  0  0  0  0  0  0  0  0  0
   28.0475   10.4815   62.4082 C   0  0  0  0  0  0  0  0  0  0  0  0
   29.0289   10.1644   61.2817 C   0  0  0  0  0  0  0  0  0  0  0  0
   22.2700    7.7889   55.8565 C   0  0  0  0  0  0  0  0  0  0  0  0
   22.9984    8.6707   55.0331 O   0  0  0  0  0  0  0  0  0  0  0  0
 43 44  1  0  0  0
 44 24  1  0  0  0
 24 25  2  0  0  0
 25 26  1  0  0  0
 26 27  2  0  0  0
 27 28  1  0  0  0
 28 29  2  0  0  0
 29  1  1  0  0  0
  1  3  1  0  0  0
  3  4  2  0  0  0
  4  5  1  0  0  0
  5  6  2  0  0  0
  6  7  1  0  0  0
  6  8  1  0  0  0
  8 10  1  0  0  0
 10 12  1  0  0  0
 12 13  2  0  0  0
 13 14  1  0  0  0
 14 15  2  0  0  0
 15 16  1  0  0  0
 16 17  2  0  0  0
 17 18  1  0  0  0
 18 19  2  0  0  0
 18 20  2  0  0  0
 18 21  1  0  0  0
 21 22  1  0  0  0
 21 23  1  0  0  0
  8  9  2  0  0  0
 26 30  1  0  0  0
 30 31  1  0  0  0
 31 32  1  0  0  0
 32 33  1  0  0  0
 33 34  1  0  0  0
 34 35  1  0  0  0
 33 36  1  0  0  0
 36 37  1  0  0  0
 37 38  1  0  0  0
 38 39  1  0  0  0
 39 40  1  0  0  0
 39 41  1  0  0  0
 41 42  1  0  0  0
 29 24  1  0  0  0
  9  3  1  0  0  0
 35 30  1  0  0  0
 42 36  1  0  0  0
 17 12  1  0  0  0
  1  2  1  0  0  0
 10 11  1  0  0  0
M  END
> <minimizedAffinity>
31.70316

> <CNNscore>
0.4116918445

> <CNNaffinity>
7.1055364609

> <CNN_VS>
2.9252912998

> <CNNaffinity_variance>
0.0830950290

$$$$
[H]c1nc(N([H])c2c([H])c([H])c(N3C([H])([H])C([H])([H])C([H])(N4C([H])([H])C([H])([H])N(C([H])([H])[H])C([H])([H])C4([H])[H])C([H])([H])C3([H])[H])c([H])c2OC([H])([H])[H])nc(N([H])c2c([H])c([H])c([H])c([H])c2S(=O)(=O)C([H])(C([H])([H])[H])C([H])([H])[H])c1Cl


 44 48  0  0  0  0  0  0  0  0999 V2000
   24.6821    7.5959   53.1695 N   0  0  0  0  0  0  0  0  0  0  0  0
   25.2046    7.0615   52.3869 H   0  0  0  0  0  0  0  0  0  0  0  0
   23.2788    7.7354   53.0023 C   0  0  0  0  0  0  0  0  0  0  0  0
   22.6472    8.7914   52.4833 N   0  0  0  0  0  0  0  0  0  0  0  0
   21.3163    8.8568   52.3530 C   0  0  0  0  0  0  0  0  0  0  0  0
   20.5352    7.8022   52.7639 C   0  0  0  0  0  0  0  0  0  0  0  0
   18.7833    7.8704   52.6002 Cl  0  0  0  0  0  0  0  0  0  0  0  0
   21.1778    6.6747   53.3157 C   0  0  0  0  0  0  0  0  0  0  0  0
   22.5091    6.7054   53.4031 N   0  0  0  0  0  0  0  0  0  0  0  0
   20.3581    5.6118   53.7252 N   0  0  0  0  0  0  0  0  0  0  0  0
   19.6273    5.8754   54.4650 H   0  0  0  0  0  0  0  0  0  0  0  0
   20.3204    4.2629   53.3413 C   0  0  0  0  0  0  0  0  0  0  0  0
   21.4288    3.6779   52.7664 C   0  0  0  0  0  0  0  0  0  0  0  0
   21.4065    2.3327   52.3759 C   0  0  0  0  0  0  0  0  0  0  0  0
   20.2710    1.6054   52.5717 C   0  0  0  0  0  0  0  0  0  0  0  0
   19.1662    2.1921   53.1461 C   0  0  0  0  0  0  0  0  0  0  0  0
   19.1604    3.5055   53.5374 C   0  0  0  0  0  0  0  0  0  0  0  0
   17.7760    4.2212   54.2525 S   0  0  0  0  0  0  0  0  0  0  0  0
   17.6514    5.6561   53.8058 O   0  0  0  0  0  0  0  0  0  0  0  0
   17.7663    4.2049   55.7555 O   0  0  0  0  0  0  0  0  0  0  0  0
   16.2604    3.4270   53.7520 C   0  0  0  0  0  0  0  0  0  0  0  0
   15.1829    4.4357   53.5191 C   0  0  0  0  0  0  0  0  0  0  0  0
   16.4460    2.4247   52.6621 C   0  0  0  0  0  0  0  0  0  0  0  0
   24.8485    8.6391   55.3273 C   0  0  0  0  0  0  0  0  0  0  0  0
   25.5715    9.1208   56.4032 C   0  0  0  0  0  0  0  0  0  0  0  0
   26.9466    9.0566   56.4418 C   0  0  0  0  0  0  0  0  0  0  0  0
   27.5595    8.4872   55.3522 C   0  0  0  0  0  0  0  0  0  0  0  0
   26.8590    7.9908   54.2483 C   0  0  0  0  0  0  0  0  0  0  0  0
   25.4888    8.0577   54.2156 C   0  0  0  0  0  0  0  0  0  0  0  0
   27.6802    9.5523   57.5650 N   0  0  0  0  0  0  0  0  0  0  0  0
   27.5648    8.8644   58.8051 C   0  0  0  0  0  0  0  0  0  0  0  0
   28.6021    9.1957   59.8410 C   0  0  0  0  0  0  0  0  0  0  0  0
   28.9189   10.6490   59.9541 C   0  0  0  0  0  0  0  0  0  0  0  0
   28.4295   11.4557   58.7680 C   0  0  0  0  0  0  0  0  0  0  0  0
   28.5198   10.7226   57.4728 C   0  0  0  0  0  0  0  0  0  0  0  0
   30.2524   11.0049   60.2344 N   0  0  0  0  0  0  0  0  0  0  0  0
   31.2763   10.0683   60.0255 C   0  0  0  0  0  0  0  0  0  0  0  0
   32.5466   10.5269   60.7473 C   0  0  0  0  0  0  0  0  0  0  0  0
   32.7203   11.9415   60.4804 N   0  0  0  0  0  0  0  0  0  0  0  0
   33.1052   12.2424   59.1386 C   0  0  0  0  0  0  0  0  0  0  0  0
   31.6761   12.7509   61.0205 C   0  0  0  0  0  0  0  0  0  0  0  0
   30.4798   11.8618   61.3536 C   0  0  0  0  0  0  0  0  0  0  0  0
   22.8749    9.9935   55.5875 C   0  0  0  0  0  0  0  0  0  0  0  0
   23.4659    8.7357   55.3539 O   0  0  0  0  0  0  0  0  0  0  0  0
 43 44  1  0  0  0
 44 24  1  0  0  0
 24 25  2  0  0  0
 25 26  1  0  0  0
 26 27  2  0  0  0
 27 28  1  0  0  0
 28 29  2  0  0  0
 29  1  1  0  0  0
  1  3  1  0  0  0
  3  4  2  0  0  0
  4  5  1  0  0  0
  5  6  2  0  0  0
  6  7  1  0  0  0
  6  8  1  0  0  0
  8 10  1  0  0  0
 10 12  1  0  0  0
 12 13  2  0  0  0
 13 14  1  0  0  0
 14 15  2  0  0  0
 15 16  1  0  0  0
 16 17  2  0  0  0
 17 18  1  0  0  0
 18 19  2  0  0  0
 18 20  2  0  0  0
 18 21  1  0  0  0
 21 22  1  0  0  0
 21 23  1  0  0  0
  8  9  2  0  0  0
 26 30  1  0  0  0
 30 31  1  0  0  0
 31 32  1  0  0  0
 32 33  1  0  0  0
 33 34  1  0  0  0
 34 35  1  0  0  0
 33 36  1  0  0  0
 36 37  1  0  0  0
 37 38  1  0  0  0
 38 39  1  0  0  0
 39 40  1  0  0  0
 39 41  1  0  0  0
 41 42  1  0  0  0
 29 24  1  0  0  0
  9  3  1  0  0  0
 35 30  1  0  0  0
 42 36  1  0  0  0
 17 12  1  0  0  0
  1  2  1  0  0  0
 10 11  1  0  0  0
M  END
> <minimizedAffinity>
35.34879

> <CNNscore>
0.4044617116

> <CNNaffinity>
6.9860572815

> <CNN_VS>
2.8255927563

> <CNNaffinity_variance>
0.0397391841

$$$$
[H]OC([H])([H])C([H])([H])Oc1c(-c2c([H])c([H])c(C3([H])C([H])([H])C([H])([H])N(C(=O)C([H])([H])F)C([H])([H])C3([H])[H])c([H])c2[H])c([H])nc2c([H])c([H])c(N([H])S(=O)(=O)c3c([H])nc(F)c([H])c3[H])c([H])c12


 43 47  0  0  0  0  0  0  0  0999 V2000
   23.6660    8.8870   55.0825 C   0  0  0  0  0  0  0  0  0  0  0  0
   22.8209    9.9622   54.8144 C   0  0  0  0  0  0  0  0  0  0  0  0
   21.6390    9.7750   54.2139 N   0  0  0  0  0  0  0  0  0  0  0  0
   21.2136    8.5446   53.8424 C   0  0  0  0  0  0  0  0  0  0  0  0
   19.9958    8.3741   53.2271 C   0  0  0  0  0  0  0  0  0  0  0  0
   19.5779    7.0911   52.8525 C   0  0  0  0  0  0  0  0  0  0  0  0
   20.3477    5.9988   53.0807 C   0  0  0  0  0  0  0  0  0  0  0  0
   21.5798    6.2214   53.7104 C   0  0  0  0  0  0  0  0  0  0  0  0
   22.0336    7.4578   54.0968 C   0  0  0  0  0  0  0  0  0  0  0  0
   23.2678    7.6212   54.7196 C   0  0  0  0  0  0  0  0  0  0  0  0
   27.3762    9.4787   57.0532 C   0  0  0  0  0  0  0  0  0  0  0  0
   27.3491    8.9432   55.7881 C   0  0  0  0  0  0  0  0  0  0  0  0
   26.1374    8.7383   55.1181 C   0  0  0  0  0  0  0  0  0  0  0  0
   24.9532    9.0785   55.7361 C   0  0  0  0  0  0  0  0  0  0  0  0
   24.9964    9.6139   57.0036 C   0  0  0  0  0  0  0  0  0  0  0  0
   26.1988    9.8196   57.6738 C   0  0  0  0  0  0  0  0  0  0  0  0
   30.8483    9.7495   61.4457 C   0  0  0  0  0  0  0  0  0  0  0  0
   31.4971   10.7798   61.7604 O   0  0  0  0  0  0  0  0  0  0  0  0
   30.0244    9.7725   60.2895 N   0  0  0  0  0  0  0  0  0  0  0  0
   29.8928   10.9277   59.4491 C   0  0  0  0  0  0  0  0  0  0  0  0
   28.5393   10.8349   58.7682 C   0  0  0  0  0  0  0  0  0  0  0  0
   28.6644    9.6912   57.7527 C   0  0  0  0  0  0  0  0  0  0  0  0
   29.1143    8.4380   58.4380 C   0  0  0  0  0  0  0  0  0  0  0  0
   29.2770    8.5875   59.9290 C   0  0  0  0  0  0  0  0  0  0  0  0
   32.0092    7.7378   61.8713 F   0  0  0  0  0  0  0  0  0  0  0  0
   30.9712    8.5459   62.3001 C   0  0  0  0  0  0  0  0  0  0  0  0
   20.0383    4.6551   52.7741 N   0  0  0  0  0  0  0  0  0  0  0  0
   20.3633    4.3608   51.7919 H   0  0  0  0  0  0  0  0  0  0  0  0
   19.2540    3.4999   53.7183 S   0  0  0  0  0  0  0  0  0  0  0  0
   19.7003    2.0879   53.4008 O   0  0  0  0  0  0  0  0  0  0  0  0
   19.6686    3.7025   55.1763 O   0  0  0  0  0  0  0  0  0  0  0  0
   17.5310    3.6529   53.6061 C   0  0  0  0  0  0  0  0  0  0  0  0
   16.7160    2.7106   53.0170 C   0  0  0  0  0  0  0  0  0  0  0  0
   15.3551    2.8870   52.9184 C   0  0  0  0  0  0  0  0  0  0  0  0
   14.7897    4.0272   53.4173 C   0  0  0  0  0  0  0  0  0  0  0  0
   13.4456    4.1962   53.3173 F   0  0  0  0  0  0  0  0  0  0  0  0
   15.5860    4.9528   53.9953 N   0  0  0  0  0  0  0  0  0  0  0  0
   16.9139    4.7888   54.0955 C   0  0  0  0  0  0  0  0  0  0  0  0
   24.0390    6.5043   54.9459 O   0  0  0  0  0  0  0  0  0  0  0  0
   23.8862    5.3300   54.1717 C   0  0  0  0  0  0  0  0  0  0  0  0
   24.1737    5.6531   52.7119 C   0  0  0  0  0  0  0  0  0  0  0  0
   24.9493    6.8326   52.7344 O   0  0  0  0  0  0  0  0  0  0  0  0
   25.6373    6.6715   53.4371 H   0  0  0  0  0  0  0  0  0  0  0  0
 25 26  1  0  0  0
 26 17  1  0  0  0
 17 18  2  0  0  0
 17 19  1  0  0  0
 19 20  1  0  0  0
 20 21  1  0  0  0
 21 22  1  0  0  0
 22 23  1  0  0  0
 23 24  1  0  0  0
 22 11  1  0  0  0
 11 12  2  0  0  0
 12 13  1  0  0  0
 13 14  2  0  0  0
 14 15  1  0  0  0
 15 16  2  0  0  0
 14  1  1  0  0  0
  1  2  2  0  0  0
  2  3  1  0  0  0
  3  4  2  0  0  0
  4  5  1  0  0  0
  5  6  2  0  0  0
  6  7  1  0  0  0
  7 27  1  0  0  0
 27 29  1  0  0  0
 29 30  2  0  0  0
 29 31  2  0  0  0
 29 32  1  0  0  0
 32 33  2  0  0  0
 33 34  1  0  0  0
 34 35  2  0  0  0
 35 36  1  0  0  0
 35 37  1  0  0  0
 37 38  2  0  0  0
  7  8  2  0  0  0
  8  9  1  0  0  0
  9 10  2  0  0  0
 10 39  1  0  0  0
 39 40  1  0  0  0
 40 41  1  0  0  0
 41 42  1  0  0  0
 24 19  1  0  0  0
 16 11  1  0  0  0
 10  1  1  0  0  0
  9  4  1  0  0  0
 38 32  1  0  0  0
 27 28  1  0  0  0
 42 43  1  0  0  0
M  END
> <minimizedAffinity>
28.65123

> <CNNscore>
0.6182218790

> <CNNaffinity>
7.0726952553

> <CNN_VS>
4.3724951744

> <CNNaffinity_variance>
0.8984508514

$$$$
[H]OC([H])([H])C([H])([H])Oc1c(-c2c([H])c([H])c(C3([H])C([H])([H])C([H])([H])N(C(=O)C([H])([H])F)C([H])([H])C3([H])[H])c([H])c2[H])c([H])nc2c([H])c([H])c(N([H])S(=O)(=O)c3c([H])nc(F)c([H])c3[H])c([H])c12


 43 47  0  0  0  0  0  0  0  0999 V2000
   27.5656    9.2219   56.1081 C   0  0  0  0  0  0  0  0  0  0  0  0
   28.5599    8.5768   55.3751 C   0  0  0  0  0  0  0  0  0  0  0  0
   28.2469    7.7654   54.3571 N   0  0  0  0  0  0  0  0  0  0  0  0
   26.9626    7.5358   53.9957 C   0  0  0  0  0  0  0  0  0  0  0  0
   26.6628    6.6990   52.9466 C   0  0  0  0  0  0  0  0  0  0  0  0
   25.3263    6.4776   52.5918 C   0  0  0  0  0  0  0  0  0  0  0  0
   24.3068    7.0705   53.2603 C   0  0  0  0  0  0  0  0  0  0  0  0
   24.6606    7.9148   54.3213 C   0  0  0  0  0  0  0  0  0  0  0  0
   25.9541    8.1641   54.7071 C   0  0  0  0  0  0  0  0  0  0  0  0
   26.2485    9.0132   55.7703 C   0  0  0  0  0  0  0  0  0  0  0  0
   28.5003   11.8680   59.2900 C   0  0  0  0  0  0  0  0  0  0  0  0
   28.7053   10.5174   59.4382 C   0  0  0  0  0  0  0  0  0  0  0  0
   28.4041    9.6250   58.4029 C   0  0  0  0  0  0  0  0  0  0  0  0
   27.8942   10.1075   57.2166 C   0  0  0  0  0  0  0  0  0  0  0  0
   27.6944   11.4630   57.0830 C   0  0  0  0  0  0  0  0  0  0  0  0
   27.9924   12.3543   58.1097 C   0  0  0  0  0  0  0  0  0  0  0  0
   30.5324   16.5393   61.6295 C   0  0  0  0  0  0  0  0  0  0  0  0
   31.4181   16.5447   62.5222 O   0  0  0  0  0  0  0  0  0  0  0  0
   30.0567   15.2984   61.1293 N   0  0  0  0  0  0  0  0  0  0  0  0
   30.5413   14.0320   61.5976 C   0  0  0  0  0  0  0  0  0  0  0  0
   30.3381   13.0311   60.4745 C   0  0  0  0  0  0  0  0  0  0  0  0
   28.8227   12.8032   60.3924 C   0  0  0  0  0  0  0  0  0  0  0  0
   28.1124   14.1091   60.2113 C   0  0  0  0  0  0  0  0  0  0  0  0
   29.0390   15.2929   60.1011 C   0  0  0  0  0  0  0  0  0  0  0  0
   30.6486   18.2018   59.9567 F   0  0  0  0  0  0  0  0  0  0  0  0
   30.0182   17.8366   61.1330 C   0  0  0  0  0  0  0  0  0  0  0  0
   22.9248    6.9500   52.9939 N   0  0  0  0  0  0  0  0  0  0  0  0
   22.5401    5.9663   53.1971 H   0  0  0  0  0  0  0  0  0  0  0  0
   21.8449    8.1100   52.4198 S   0  0  0  0  0  0  0  0  0  0  0  0
   22.4302    8.9477   51.3021 O   0  0  0  0  0  0  0  0  0  0  0  0
   20.6632    7.3915   51.7672 O   0  0  0  0  0  0  0  0  0  0  0  0
   21.2455    9.1086   53.7037 C   0  0  0  0  0  0  0  0  0  0  0  0
   21.5964   10.4306   53.8722 C   0  0  0  0  0  0  0  0  0  0  0  0
   21.1239   11.1789   54.9256 C   0  0  0  0  0  0  0  0  0  0  0  0
   20.2822   10.6001   55.8339 C   0  0  0  0  0  0  0  0  0  0  0  0
   19.8187   11.3435   56.8721 F   0  0  0  0  0  0  0  0  0  0  0  0
   19.9365    9.3043   55.6716 N   0  0  0  0  0  0  0  0  0  0  0  0
   20.3927    8.5674   54.6473 C   0  0  0  0  0  0  0  0  0  0  0  0
   25.2044    9.6090   56.4398 O   0  0  0  0  0  0  0  0  0  0  0  0
   23.8766    9.5336   55.9574 C   0  0  0  0  0  0  0  0  0  0  0  0
   22.9969    8.8818   57.0153 C   0  0  0  0  0  0  0  0  0  0  0  0
   22.2722    7.8792   56.3350 O   0  0  0  0  0  0  0  0  0  0  0  0
   22.9510    7.4084   55.7776 H   0  0  0  0  0  0  0  0  0  0  0  0
 25 26  1  0  0  0
 26 17  1  0  0  0
 17 18  2  0  0  0
 17 19  1  0  0  0
 19 20  1  0  0  0
 20 21  1  0  0  0
 21 22  1  0  0  0
 22 23  1  0  0  0
 23 24  1  0  0  0
 22 11  1  0  0  0
 11 12  2  0  0  0
 12 13  1  0  0  0
 13 14  2  0  0  0
 14 15  1  0  0  0
 15 16  2  0  0  0
 14  1  1  0  0  0
  1  2  2  0  0  0
  2  3  1  0  0  0
  3  4  2  0  0  0
  4  5  1  0  0  0
  5  6  2  0  0  0
  6  7  1  0  0  0
  7 27  1  0  0  0
 27 29  1  0  0  0
 29 30  2  0  0  0
 29 31  2  0  0  0
 29 32  1  0  0  0
 32 33  2  0  0  0
 33 34  1  0  0  0
 34 35  2  0  0  0
 35 36  1  0  0  0
 35 37  1  0  0  0
 37 38  2  0  0  0
  7  8  2  0  0  0
  8  9  1  0  0  0
  9 10  2  0  0  0
 10 39  1  0  0  0
 39 40  1  0  0  0
 40 41  1  0  0  0
 41 42  1  0  0  0
 24 19  1  0  0  0
 16 11  1  0  0  0
 10  1  1  0  0  0
  9  4  1  0  0  0
 38 32  1  0  0  0
 27 28  1  0  0  0
 42 43  1  0  0  0
M  END
> <minimizedAffinity>
23.63457

> <CNNscore>
0.5594259501

> <CNNaffinity>
6.7257966995

> <CNN_VS>
3.7625851631

> <CNNaffinity_variance>
0.6515793204

$$$$
[H]OC([H])([H])C([H])([H])Oc1c(-c2c([H])c([H])c(C3([H])C([H])([H])C([H])([H])N(C(=O)C([H])([H])F)C([H])([H])C3([H])[H])c([H])c2[H])c([H])nc2c([H])c([H])c(N([H])S(=O)(=O)c3c([H])nc(F)c([H])c3[H])c([H])c12


 43 47  0  0  0  0  0  0  0  0999 V2000
   23.6092    8.9821   54.0757 C   0  0  0  0  0  0  0  0  0  0  0  0
   23.2860    9.9828   53.1612 C   0  0  0  0  0  0  0  0  0  0  0  0
   22.2219    9.8625   52.3576 N   0  0  0  0  0  0  0  0  0  0  0  0
   21.4179    8.7739   52.3952 C   0  0  0  0  0  0  0  0  0  0  0  0
   20.3295    8.6704   51.5614 C   0  0  0  0  0  0  0  0  0  0  0  0
   19.5128    7.5344   51.6193 C   0  0  0  0  0  0  0  0  0  0  0  0
   19.7665    6.5209   52.4833 C   0  0  0  0  0  0  0  0  0  0  0  0
   20.8857    6.6709   53.3132 C   0  0  0  0  0  0  0  0  0  0  0  0
   21.7158    7.7639   53.2948 C   0  0  0  0  0  0  0  0  0  0  0  0
   22.8154    7.8605   54.1430 C   0  0  0  0  0  0  0  0  0  0  0  0
   27.0183    9.2902   56.5822 C   0  0  0  0  0  0  0  0  0  0  0  0
   25.8143    9.8079   56.9949 C   0  0  0  0  0  0  0  0  0  0  0  0
   24.6761    9.7187   56.1853 C   0  0  0  0  0  0  0  0  0  0  0  0
   24.7635    9.1024   54.9554 C   0  0  0  0  0  0  0  0  0  0  0  0
   25.9765    8.5886   54.5557 C   0  0  0  0  0  0  0  0  0  0  0  0
   27.1111    8.6749   55.3573 C   0  0  0  0  0  0  0  0  0  0  0  0
   30.0159   10.9171   61.0309 C   0  0  0  0  0  0  0  0  0  0  0  0
   31.0830   11.5774   60.9501 O   0  0  0  0  0  0  0  0  0  0  0  0
   29.3520   10.5199   59.8403 N   0  0  0  0  0  0  0  0  0  0  0  0
   29.8438   10.8373   58.5306 C   0  0  0  0  0  0  0  0  0  0  0  0
   28.6486   10.8553   57.5950 C   0  0  0  0  0  0  0  0  0  0  0  0
   28.2164    9.3903   57.4473 C   0  0  0  0  0  0  0  0  0  0  0  0
   27.9557    8.7897   58.7942 C   0  0  0  0  0  0  0  0  0  0  0  0
   28.1234    9.7617   59.9339 C   0  0  0  0  0  0  0  0  0  0  0  0
   28.4625   11.4305   62.7336 F   0  0  0  0  0  0  0  0  0  0  0  0
   29.4917   10.5785   62.3742 C   0  0  0  0  0  0  0  0  0  0  0  0
   19.0159    5.3370   52.6571 N   0  0  0  0  0  0  0  0  0  0  0  0
   18.0811    5.3481   52.1250 H   0  0  0  0  0  0  0  0  0  0  0  0
   19.3873    3.9622   53.5589 S   0  0  0  0  0  0  0  0  0  0  0  0
   19.5407    2.7255   52.6984 O   0  0  0  0  0  0  0  0  0  0  0  0
   20.7687    4.1528   54.1867 O   0  0  0  0  0  0  0  0  0  0  0  0
   18.2335    3.7048   54.8266 C   0  0  0  0  0  0  0  0  0  0  0  0
   18.5698    3.2711   56.0907 C   0  0  0  0  0  0  0  0  0  0  0  0
   17.6183    3.0466   57.0587 C   0  0  0  0  0  0  0  0  0  0  0  0
   16.3003    3.2579   56.7640 C   0  0  0  0  0  0  0  0  0  0  0  0
   15.3649    3.0346   57.7235 F   0  0  0  0  0  0  0  0  0  0  0  0
   15.9674    3.6829   55.5257 N   0  0  0  0  0  0  0  0  0  0  0  0
   16.8889    3.9044   54.5759 C   0  0  0  0  0  0  0  0  0  0  0  0
   23.0612    6.8253   55.0155 O   0  0  0  0  0  0  0  0  0  0  0  0
   23.8162    5.6936   54.6272 C   0  0  0  0  0  0  0  0  0  0  0  0
   24.0720    5.7541   53.1275 C   0  0  0  0  0  0  0  0  0  0  0  0
   24.7973    4.5818   52.8229 O   0  0  0  0  0  0  0  0  0  0  0  0
   24.3123    3.8520   53.2975 H   0  0  0  0  0  0  0  0  0  0  0  0
 25 26  1  0  0  0
 26 17  1  0  0  0
 17 18  2  0  0  0
 17 19  1  0  0  0
 19 20  1  0  0  0
 20 21  1  0  0  0
 21 22  1  0  0  0
 22 23  1  0  0  0
 23 24  1  0  0  0
 22 11  1  0  0  0
 11 12  2  0  0  0
 12 13  1  0  0  0
 13 14  2  0  0  0
 14 15  1  0  0  0
 15 16  2  0  0  0
 14  1  1  0  0  0
  1  2  2  0  0  0
  2  3  1  0  0  0
  3  4  2  0  0  0
  4  5  1  0  0  0
  5  6  2  0  0  0
  6  7  1  0  0  0
  7 27  1  0  0  0
 27 29  1  0  0  0
 29 30  2  0  0  0
 29 31  2  0  0  0
 29 32  1  0  0  0
 32 33  2  0  0  0
 33 34  1  0  0  0
 34 35  2  0  0  0
 35 36  1  0  0  0
 35 37  1  0  0  0
 37 38  2  0  0  0
  7  8  2  0  0  0
  8  9  1  0  0  0
  9 10  2  0  0  0
 10 39  1  0  0  0
 39 40  1  0  0  0
 40 41  1  0  0  0
 41 42  1  0  0  0
 24 19  1  0  0  0
 16 11  1  0  0  0
 10  1  1  0  0  0
  9  4  1  0  0  0
 38 32  1  0  0  0
 27 28  1  0  0  0
 42 43  1  0  0  0
M  END
> <minimizedAffinity>
33.60373

> <CNNscore>
0.5401694775

> <CNNaffinity>
6.9839439392

> <CNN_VS>
3.7725133896

> <CNNaffinity_variance>
1.0063850880

$$$$
[H]OC([H])([H])C([H])([H])Oc1c(-c2c([H])c([H])c(C3([H])C([H])([H])C([H])([H])N(C(=O)C([H])([H])F)C([H])([H])C3([H])[H])c([H])c2[H])c([H])nc2c([H])c([H])c(N([H])S(=O)(=O)c3c([H])nc(F)c([H])c3[H])c([H])c12


 43 47  0  0  0  0  0  0  0  0999 V2000
   25.3652    7.9112   54.2698 C   0  0  0  0  0  0  0  0  0  0  0  0
   26.5377    7.6261   53.5725 C   0  0  0  0  0  0  0  0  0  0  0  0
   27.7104    8.1447   53.9577 N   0  0  0  0  0  0  0  0  0  0  0  0
   27.8113    8.9624   55.0319 C   0  0  0  0  0  0  0  0  0  0  0  0
   29.0258    9.4842   55.4109 C   0  0  0  0  0  0  0  0  0  0  0  0
   29.1045   10.3276   56.5260 C   0  0  0  0  0  0  0  0  0  0  0  0
   28.0055   10.6493   57.2517 C   0  0  0  0  0  0  0  0  0  0  0  0
   26.7906   10.0939   56.8282 C   0  0  0  0  0  0  0  0  0  0  0  0
   26.6618    9.2626   55.7435 C   0  0  0  0  0  0  0  0  0  0  0  0
   25.4282    8.7385   55.3672 C   0  0  0  0  0  0  0  0  0  0  0  0
   21.6467    6.2164   53.1299 C   0  0  0  0  0  0  0  0  0  0  0  0
   22.0694    7.3917   52.5571 C   0  0  0  0  0  0  0  0  0  0  0  0
   23.2919    7.9700   52.9173 C   0  0  0  0  0  0  0  0  0  0  0  0
   24.0843    7.3520   53.8608 C   0  0  0  0  0  0  0  0  0  0  0  0
   23.6474    6.1751   54.4258 C   0  0  0  0  0  0  0  0  0  0  0  0
   22.4325    5.5961   54.0708 C   0  0  0  0  0  0  0  0  0  0  0  0
   16.7574    3.5952   53.9345 C   0  0  0  0  0  0  0  0  0  0  0  0
   16.4453    2.5128   53.3755 O   0  0  0  0  0  0  0  0  0  0  0  0
   18.0067    4.1989   53.6325 N   0  0  0  0  0  0  0  0  0  0  0  0
   18.9443    3.6294   52.7082 C   0  0  0  0  0  0  0  0  0  0  0  0
   20.3233    4.1233   53.1069 C   0  0  0  0  0  0  0  0  0  0  0  0
   20.3510    5.6133   52.7409 C   0  0  0  0  0  0  0  0  0  0  0  0
   19.2098    6.3281   53.3960 C   0  0  0  0  0  0  0  0  0  0  0  0
   18.3660    5.4431   54.2773 C   0  0  0  0  0  0  0  0  0  0  0  0
   16.0309    3.7402   56.1766 F   0  0  0  0  0  0  0  0  0  0  0  0
   15.8026    4.2000   54.8917 C   0  0  0  0  0  0  0  0  0  0  0  0
   27.9496   11.4663   58.4026 N   0  0  0  0  0  0  0  0  0  0  0  0
   27.2413   12.2712   58.3148 H   0  0  0  0  0  0  0  0  0  0  0  0
   28.8200   11.3426   59.8408 S   0  0  0  0  0  0  0  0  0  0  0  0
   28.0590   10.6010   60.9199 O   0  0  0  0  0  0  0  0  0  0  0  0
   30.0518   10.4722   59.5887 O   0  0  0  0  0  0  0  0  0  0  0  0
   29.3451   12.8971   60.3997 C   0  0  0  0  0  0  0  0  0  0  0  0
   28.6186   14.0560   60.2317 C   0  0  0  0  0  0  0  0  0  0  0  0
   29.0879   15.2761   60.6607 C   0  0  0  0  0  0  0  0  0  0  0  0
   30.3087   15.3470   61.2716 C   0  0  0  0  0  0  0  0  0  0  0  0
   30.7672   16.5542   61.6932 F   0  0  0  0  0  0  0  0  0  0  0  0
   31.0233   14.2127   61.4377 N   0  0  0  0  0  0  0  0  0  0  0  0
   30.5732   13.0189   61.0224 C   0  0  0  0  0  0  0  0  0  0  0  0
   24.3209    9.0724   56.1127 O   0  0  0  0  0  0  0  0  0  0  0  0
   23.4515   10.1170   55.7196 C   0  0  0  0  0  0  0  0  0  0  0  0
   22.0332    9.5736   55.6141 C   0  0  0  0  0  0  0  0  0  0  0  0
   21.4261   10.3087   54.5728 O   0  0  0  0  0  0  0  0  0  0  0  0
   22.0995   10.3131   53.8383 H   0  0  0  0  0  0  0  0  0  0  0  0
 25 26  1  0  0  0
 26 17  1  0  0  0
 17 18  2  0  0  0
 17 19  1  0  0  0
 19 20  1  0  0  0
 20 21  1  0  0  0
 21 22  1  0  0  0
 22 23  1  0  0  0
 23 24  1  0  0  0
 22 11  1  0  0  0
 11 12  2  0  0  0
 12 13  1  0  0  0
 13 14  2  0  0  0
 14 15  1  0  0  0
 15 16  2  0  0  0
 14  1  1  0  0  0
  1  2  2  0  0  0
  2  3  1  0  0  0
  3  4  2  0  0  0
  4  5  1  0  0  0
  5  6  2  0  0  0
  6  7  1  0  0  0
  7 27  1  0  0  0
 27 29  1  0  0  0
 29 30  2  0  0  0
 29 31  2  0  0  0
 29 32  1  0  0  0
 32 33  2  0  0  0
 33 34  1  0  0  0
 34 35  2  0  0  0
 35 36  1  0  0  0
 35 37  1  0  0  0
 37 38  2  0  0  0
  7  8  2  0  0  0
  8  9  1  0  0  0
  9 10  2  0  0  0
 10 39  1  0  0  0
 39 40  1  0  0  0
 40 41  1  0  0  0
 41 42  1  0  0  0
 24 19  1  0  0  0
 16 11  1  0  0  0
 10  1  1  0  0  0
  9  4  1  0  0  0
 38 32  1  0  0  0
 27 28  1  0  0  0
 42 43  1  0  0  0
M  END
> <minimizedAffinity>
21.79635

> <CNNscore>
0.5158113837

> <CNNaffinity>
6.6249184608

> <CNN_VS>
3.4172084332

> <CNNaffinity_variance>
0.0481195077

$$$$
[H]OC([H])([H])C([H])([H])Oc1c(-c2c([H])c([H])c(C3([H])C([H])([H])C([H])([H])N(C(=O)C([H])([H])F)C([H])([H])C3([H])[H])c([H])c2[H])c([H])nc2c([H])c([H])c(N([H])S(=O)(=O)c3c([H])nc(F)c([H])c3[H])c([H])c12


 43 47  0  0  0  0  0  0  0  0999 V2000
   27.0595    9.1086   55.9801 C   0  0  0  0  0  0  0  0  0  0  0  0
   27.8733    8.5760   54.9820 C   0  0  0  0  0  0  0  0  0  0  0  0
   27.3540    7.8423   53.9898 N   0  0  0  0  0  0  0  0  0  0  0  0
   26.0271    7.5858   53.9103 C   0  0  0  0  0  0  0  0  0  0  0  0
   25.5140    6.8301   52.8825 C   0  0  0  0  0  0  0  0  0  0  0  0
   24.1377    6.5787   52.8221 C   0  0  0  0  0  0  0  0  0  0  0  0
   23.2857    7.0638   53.7584 C   0  0  0  0  0  0  0  0  0  0  0  0
   23.8539    7.8284   54.7862 C   0  0  0  0  0  0  0  0  0  0  0  0
   25.1948    8.1029   54.8891 C   0  0  0  0  0  0  0  0  0  0  0  0
   25.7056    8.8693   55.9330 C   0  0  0  0  0  0  0  0  0  0  0  0
   28.6906   11.3694   59.1782 C   0  0  0  0  0  0  0  0  0  0  0  0
   28.1367   12.0112   58.0969 C   0  0  0  0  0  0  0  0  0  0  0  0
   27.5930   11.2869   57.0299 C   0  0  0  0  0  0  0  0  0  0  0  0
   27.6131    9.9091   57.0635 C   0  0  0  0  0  0  0  0  0  0  0  0
   28.1714    9.2803   58.1535 C   0  0  0  0  0  0  0  0  0  0  0  0
   28.7133    9.9962   59.2170 C   0  0  0  0  0  0  0  0  0  0  0  0
   31.5545   15.5305   61.6085 C   0  0  0  0  0  0  0  0  0  0  0  0
   32.5429   15.3492   62.3647 O   0  0  0  0  0  0  0  0  0  0  0  0
   30.8726   14.4058   61.0735 N   0  0  0  0  0  0  0  0  0  0  0  0
   31.2586   13.0534   61.3561 C   0  0  0  0  0  0  0  0  0  0  0  0
   30.7927   12.2011   60.1896 C   0  0  0  0  0  0  0  0  0  0  0  0
   29.2632   12.1462   60.3019 C   0  0  0  0  0  0  0  0  0  0  0  0
   28.6972   13.5322   60.3378 C   0  0  0  0  0  0  0  0  0  0  0  0
   29.7368   14.6151   60.2024 C   0  0  0  0  0  0  0  0  0  0  0  0
   30.1948   17.3640   62.2129 F   0  0  0  0  0  0  0  0  0  0  0  0
   31.1395   16.9196   61.3049 C   0  0  0  0  0  0  0  0  0  0  0  0
   21.8830    6.9031   53.8036 N   0  0  0  0  0  0  0  0  0  0  0  0
   21.5643    6.1809   54.5343 H   0  0  0  0  0  0  0  0  0  0  0  0
   20.6922    7.6719   52.8913 S   0  0  0  0  0  0  0  0  0  0  0  0
   20.3672    6.9278   51.6130 O   0  0  0  0  0  0  0  0  0  0  0  0
   19.3831    7.6446   53.6813 O   0  0  0  0  0  0  0  0  0  0  0  0
   21.1091    9.3228   52.5671 C   0  0  0  0  0  0  0  0  0  0  0  0
   21.4341   10.2364   53.5464 C   0  0  0  0  0  0  0  0  0  0  0  0
   21.7260   11.5475   53.2486 C   0  0  0  0  0  0  0  0  0  0  0  0
   21.6945   11.9615   51.9462 C   0  0  0  0  0  0  0  0  0  0  0  0
   21.9835   13.2571   51.6579 F   0  0  0  0  0  0  0  0  0  0  0  0
   21.3762   11.0684   50.9839 N   0  0  0  0  0  0  0  0  0  0  0  0
   21.0902    9.7881   51.2656 C   0  0  0  0  0  0  0  0  0  0  0  0
   24.8299    9.3561   56.8761 O   0  0  0  0  0  0  0  0  0  0  0  0
   23.8139   10.2799   56.5358 C   0  0  0  0  0  0  0  0  0  0  0  0
   22.5442    9.5180   56.1814 C   0  0  0  0  0  0  0  0  0  0  0  0
   21.4869   10.4269   56.4030 O   0  0  0  0  0  0  0  0  0  0  0  0
   21.7886   11.2767   55.9786 H   0  0  0  0  0  0  0  0  0  0  0  0
 25 26  1  0  0  0
 26 17  1  0  0  0
 17 18  2  0  0  0
 17 19  1  0  0  0
 19 20  1  0  0  0
 20 21  1  0  0  0
 21 22  1  0  0  0
 22 23  1  0  0  0
 23 24  1  0  0  0
 22 11  1  0  0  0
 11 12  2  0  0  0
 12 13  1  0  0  0
 13 14  2  0  0  0
 14 15  1  0  0  0
 15 16  2  0  0  0
 14  1  1  0  0  0
  1  2  2  0  0  0
  2  3  1  0  0  0
  3  4  2  0  0  0
  4  5  1  0  0  0
  5  6  2  0  0  0
  6  7  1  0  0  0
  7 27  1  0  0  0
 27 29  1  0  0  0
 29 30  2  0  0  0
 29 31  2  0  0  0
 29 32  1  0  0  0
 32 33  2  0  0  0
 33 34  1  0  0  0
 34 35  2  0  0  0
 35 36  1  0  0  0
 35 37  1  0  0  0
 37 38  2  0  0  0
  7  8  2  0  0  0
  8  9  1  0  0  0
  9 10  2  0  0  0
 10 39  1  0  0  0
 39 40  1  0  0  0
 40 41  1  0  0  0
 41 42  1  0  0  0
 24 19  1  0  0  0
 16 11  1  0  0  0
 10  1  1  0  0  0
  9  4  1  0  0  0
 38 32  1  0  0  0
 27 28  1  0  0  0
 42 43  1  0  0  0
M  END
> <minimizedAffinity>
13.08964

> <CNNscore>
0.4937180281

> <CNNaffinity>
6.9053435326

> <CNN_VS>
3.4092926979

> <CNNaffinity_variance>
0.4138594270

$$$$
[H]OC([H])([H])C([H])([H])Oc1c(-c2c([H])c([H])c(C3([H])C([H])([H])C([H])([H])N(C(=O)C([H])([H])F)C([H])([H])C3([H])[H])c([H])c2[H])c([H])nc2c([H])c([H])c(N([H])S(=O)(=O)c3c([H])nc(F)c([H])c3[H])c([H])c12


 43 47  0  0  0  0  0  0  0  0999 V2000
   25.5247    8.0561   54.6107 C   0  0  0  0  0  0  0  0  0  0  0  0
   26.7644    7.6724   54.1027 C   0  0  0  0  0  0  0  0  0  0  0  0
   27.8953    8.2266   54.5571 N   0  0  0  0  0  0  0  0  0  0  0  0
   27.8877    9.1764   55.5218 C   0  0  0  0  0  0  0  0  0  0  0  0
   29.0608    9.7326   55.9748 C   0  0  0  0  0  0  0  0  0  0  0  0
   29.0269   10.7134   56.9737 C   0  0  0  0  0  0  0  0  0  0  0  0
   27.8576   11.1365   57.5138 C   0  0  0  0  0  0  0  0  0  0  0  0
   26.6885   10.5411   57.0213 C   0  0  0  0  0  0  0  0  0  0  0  0
   26.6694    9.5767   56.0447 C   0  0  0  0  0  0  0  0  0  0  0  0
   25.4769    9.0187   55.5924 C   0  0  0  0  0  0  0  0  0  0  0  0
   21.9280    6.2593   53.2562 C   0  0  0  0  0  0  0  0  0  0  0  0
   22.4424    7.3482   52.5946 C   0  0  0  0  0  0  0  0  0  0  0  0
   23.6271    7.9581   53.0230 C   0  0  0  0  0  0  0  0  0  0  0  0
   24.2882    7.4595   54.1249 C   0  0  0  0  0  0  0  0  0  0  0  0
   23.7606    6.3680   54.7773 C   0  0  0  0  0  0  0  0  0  0  0  0
   22.5829    5.7581   54.3551 C   0  0  0  0  0  0  0  0  0  0  0  0
   17.0093    3.6242   53.7913 C   0  0  0  0  0  0  0  0  0  0  0  0
   16.7527    2.5112   53.2652 O   0  0  0  0  0  0  0  0  0  0  0  0
   18.2746    4.2266   53.5621 N   0  0  0  0  0  0  0  0  0  0  0  0
   19.2897    3.6221   52.7484 C   0  0  0  0  0  0  0  0  0  0  0  0
   20.6271    4.1520   53.2328 C   0  0  0  0  0  0  0  0  0  0  0  0
   20.6735    5.6218   52.7939 C   0  0  0  0  0  0  0  0  0  0  0  0
   19.4766    6.3553   53.3155 C   0  0  0  0  0  0  0  0  0  0  0  0
   18.5698    5.5062   54.1690 C   0  0  0  0  0  0  0  0  0  0  0  0
   16.0828    3.8541   55.9510 F   0  0  0  0  0  0  0  0  0  0  0  0
   15.9741    4.2654   54.6345 C   0  0  0  0  0  0  0  0  0  0  0  0
   27.6852   12.0970   58.5351 N   0  0  0  0  0  0  0  0  0  0  0  0
   26.9081   12.8084   58.3185 H   0  0  0  0  0  0  0  0  0  0  0  0
   28.5128   12.2613   59.9944 S   0  0  0  0  0  0  0  0  0  0  0  0
   29.3466   13.5243   60.0517 O   0  0  0  0  0  0  0  0  0  0  0  0
   27.4881   12.4403   61.1154 O   0  0  0  0  0  0  0  0  0  0  0  0
   29.4728   10.8601   60.3401 C   0  0  0  0  0  0  0  0  0  0  0  0
   28.9897    9.5704   60.2901 C   0  0  0  0  0  0  0  0  0  0  0  0
   29.7771    8.4871   60.6053 C   0  0  0  0  0  0  0  0  0  0  0  0
   31.0762    8.6896   60.9793 C   0  0  0  0  0  0  0  0  0  0  0  0
   31.8492    7.6165   61.2896 F   0  0  0  0  0  0  0  0  0  0  0  0
   31.5527    9.9527   61.0294 N   0  0  0  0  0  0  0  0  0  0  0  0
   30.7918   11.0147   60.7237 C   0  0  0  0  0  0  0  0  0  0  0  0
   24.2973    9.4565   56.1494 O   0  0  0  0  0  0  0  0  0  0  0  0
   23.4252   10.3234   55.4497 C   0  0  0  0  0  0  0  0  0  0  0  0
   22.0095    9.7672   55.5148 C   0  0  0  0  0  0  0  0  0  0  0  0
   21.3603   10.2570   54.3608 O   0  0  0  0  0  0  0  0  0  0  0  0
   22.0083   10.1029   53.6196 H   0  0  0  0  0  0  0  0  0  0  0  0
 25 26  1  0  0  0
 26 17  1  0  0  0
 17 18  2  0  0  0
 17 19  1  0  0  0
 19 20  1  0  0  0
 20 21  1  0  0  0
 21 22  1  0  0  0
 22 23  1  0  0  0
 23 24  1  0  0  0
 22 11  1  0  0  0
 11 12  2  0  0  0
 12 13  1  0  0  0
 13 14  2  0  0  0
 14 15  1  0  0  0
 15 16  2  0  0  0
 14  1  1  0  0  0
  1  2  2  0  0  0
  2  3  1  0  0  0
  3  4  2  0  0  0
  4  5  1  0  0  0
  5  6  2  0  0  0
  6  7  1  0  0  0
  7 27  1  0  0  0
 27 29  1  0  0  0
 29 30  2  0  0  0
 29 31  2  0  0  0
 29 32  1  0  0  0
 32 33  2  0  0  0
 33 34  1  0  0  0
 34 35  2  0  0  0
 35 36  1  0  0  0
 35 37  1  0  0  0
 37 38  2  0  0  0
  7  8  2  0  0  0
  8  9  1  0  0  0
  9 10  2  0  0  0
 10 39  1  0  0  0
 39 40  1  0  0  0
 40 41  1  0  0  0
 41 42  1  0  0  0
 24 19  1  0  0  0
 16 11  1  0  0  0
 10  1  1  0  0  0
  9  4  1  0  0  0
 38 32  1  0  0  0
 27 28  1  0  0  0
 42 43  1  0  0  0
M  END
> <minimizedAffinity>
22.86648

> <CNNscore>
0.4935015142

> <CNNaffinity>
6.7333793640

> <CNN_VS>
3.3229329586

> <CNNaffinity_variance>
0.0832410604

$$$$
[H]OC([H])([H])C([H])([H])Oc1c(-c2c([H])c([H])c(C3([H])C([H])([H])C([H])([H])N(C(=O)C([H])([H])F)C([H])([H])C3([H])[H])c([H])c2[H])c([H])nc2c([H])c([H])c(N([H])S(=O)(=O)c3c([H])nc(F)c([H])c3[H])c([H])c12


 43 47  0  0  0  0  0  0  0  0999 V2000
   27.2036    9.1632   56.1705 C   0  0  0  0  0  0  0  0  0  0  0  0
   27.9705    8.3461   55.3420 C   0  0  0  0  0  0  0  0  0  0  0  0
   27.4132    7.6888   54.3174 N   0  0  0  0  0  0  0  0  0  0  0  0
   26.0915    7.7859   54.0408 C   0  0  0  0  0  0  0  0  0  0  0  0
   25.5390    7.1026   52.9832 C   0  0  0  0  0  0  0  0  0  0  0  0
   24.1691    7.2195   52.7173 C   0  0  0  0  0  0  0  0  0  0  0  0
   23.3614    7.9954   53.4811 C   0  0  0  0  0  0  0  0  0  0  0  0
   23.9688    8.6728   54.5470 C   0  0  0  0  0  0  0  0  0  0  0  0
   25.3055    8.5913   54.8480 C   0  0  0  0  0  0  0  0  0  0  0  0
   25.8565    9.2870   55.9206 C   0  0  0  0  0  0  0  0  0  0  0  0
   28.9227   11.3355   59.3837 C   0  0  0  0  0  0  0  0  0  0  0  0
   28.9051    9.9620   59.4160 C   0  0  0  0  0  0  0  0  0  0  0  0
   28.3432    9.2238   58.3680 C   0  0  0  0  0  0  0  0  0  0  0  0
   27.7991    9.8839   57.2871 C   0  0  0  0  0  0  0  0  0  0  0  0
   27.8242   11.2602   57.2691 C   0  0  0  0  0  0  0  0  0  0  0  0
   28.3818   11.9986   58.3089 C   0  0  0  0  0  0  0  0  0  0  0  0
   31.7347   15.5502   61.7822 C   0  0  0  0  0  0  0  0  0  0  0  0
   32.7674   15.3916   62.4820 O   0  0  0  0  0  0  0  0  0  0  0  0
   31.0729   14.4118   61.2509 N   0  0  0  0  0  0  0  0  0  0  0  0
   31.5283   13.0701   61.4756 C   0  0  0  0  0  0  0  0  0  0  0  0
   31.0382   12.2293   60.3106 C   0  0  0  0  0  0  0  0  0  0  0  0
   29.5202   12.1065   60.4985 C   0  0  0  0  0  0  0  0  0  0  0  0
   28.9002   13.4658   60.6017 C   0  0  0  0  0  0  0  0  0  0  0  0
   29.8860   14.5951   60.4445 C   0  0  0  0  0  0  0  0  0  0  0  0
   31.0198   17.5904   62.7320 F   0  0  0  0  0  0  0  0  0  0  0  0
   31.2478   16.9278   61.5390 C   0  0  0  0  0  0  0  0  0  0  0  0
   21.9766    8.2160   53.3106 N   0  0  0  0  0  0  0  0  0  0  0  0
   21.5666    8.9013   54.0313 H   0  0  0  0  0  0  0  0  0  0  0  0
   20.9269    7.5651   52.1635 S   0  0  0  0  0  0  0  0  0  0  0  0
   20.1172    8.6258   51.4473 O   0  0  0  0  0  0  0  0  0  0  0  0
   21.7597    6.9204   51.0547 O   0  0  0  0  0  0  0  0  0  0  0  0
   19.8991    6.3550   52.8591 C   0  0  0  0  0  0  0  0  0  0  0  0
   18.5979    6.5881   53.2484 C   0  0  0  0  0  0  0  0  0  0  0  0
   17.8265    5.6076   53.8284 C   0  0  0  0  0  0  0  0  0  0  0  0
   18.3605    4.3650   54.0266 C   0  0  0  0  0  0  0  0  0  0  0  0
   17.5945    3.4006   54.5997 F   0  0  0  0  0  0  0  0  0  0  0  0
   19.6359    4.1334   53.6462 N   0  0  0  0  0  0  0  0  0  0  0  0
   20.3950    5.0838   53.0799 C   0  0  0  0  0  0  0  0  0  0  0  0
   25.0257   10.0714   56.6873 O   0  0  0  0  0  0  0  0  0  0  0  0
   23.9818   10.8305   56.1079 C   0  0  0  0  0  0  0  0  0  0  0  0
   22.6910   10.0247   56.1577 C   0  0  0  0  0  0  0  0  0  0  0  0
   21.8406   10.6187   55.2001 O   0  0  0  0  0  0  0  0  0  0  0  0
   22.4131   10.7439   54.3941 H   0  0  0  0  0  0  0  0  0  0  0  0
 25 26  1  0  0  0
 26 17  1  0  0  0
 17 18  2  0  0  0
 17 19  1  0  0  0
 19 20  1  0  0  0
 20 21  1  0  0  0
 21 22  1  0  0  0
 22 23  1  0  0  0
 23 24  1  0  0  0
 22 11  1  0  0  0
 11 12  2  0  0  0
 12 13  1  0  0  0
 13 14  2  0  0  0
 14 15  1  0  0  0
 15 16  2  0  0  0
 14  1  1  0  0  0
  1  2  2  0  0  0
  2  3  1  0  0  0
  3  4  2  0  0  0
  4  5  1  0  0  0
  5  6  2  0  0  0
  6  7  1  0  0  0
  7 27  1  0  0  0
 27 29  1  0  0  0
 29 30  2  0  0  0
 29 31  2  0  0  0
 29 32  1  0  0  0
 32 33  2  0  0  0
 33 34  1  0  0  0
 34 35  2  0  0  0
 35 36  1  0  0  0
 35 37  1  0  0  0
 37 38  2  0  0  0
  7  8  2  0  0  0
  8  9  1  0  0  0
  9 10  2  0  0  0
 10 39  1  0  0  0
 39 40  1  0  0  0
 40 41  1  0  0  0
 41 42  1  0  0  0
 24 19  1  0  0  0
 16 11  1  0  0  0
 10  1  1  0  0  0
  9  4  1  0  0  0
 38 32  1  0  0  0
 27 28  1  0  0  0
 42 43  1  0  0  0
M  END
> <minimizedAffinity>
20.64511

> <CNNscore>
0.4886215329

> <CNNaffinity>
6.6213026047

> <CNN_VS>
3.2353110313

> <CNNaffinity_variance>
0.1956244409

$$$$
[H]OC([H])([H])C([H])([H])Oc1c(-c2c([H])c([H])c(C3([H])C([H])([H])C([H])([H])N(C(=O)C([H])([H])F)C([H])([H])C3([H])[H])c([H])c2[H])c([H])nc2c([H])c([H])c(N([H])S(=O)(=O)c3c([H])nc(F)c([H])c3[H])c([H])c12


 43 47  0  0  0  0  0  0  0  0999 V2000
   29.2051    8.3629   59.2808 C   0  0  0  0  0  0  0  0  0  0  0  0
   29.3396    7.1163   59.8892 C   0  0  0  0  0  0  0  0  0  0  0  0
   30.1529    6.9477   60.9392 N   0  0  0  0  0  0  0  0  0  0  0  0
   30.8758    7.9700   61.4541 C   0  0  0  0  0  0  0  0  0  0  0  0
   31.7052    7.7755   62.5335 C   0  0  0  0  0  0  0  0  0  0  0  0
   32.4426    8.8489   63.0481 C   0  0  0  0  0  0  0  0  0  0  0  0
   32.3627   10.0893   62.5069 C   0  0  0  0  0  0  0  0  0  0  0  0
   31.5047   10.2396   61.4091 C   0  0  0  0  0  0  0  0  0  0  0  0
   30.7614    9.2200   60.8689 C   0  0  0  0  0  0  0  0  0  0  0  0
   29.9239    9.4261   59.7761 C   0  0  0  0  0  0  0  0  0  0  0  0
   26.5695    8.9435   56.0073 C   0  0  0  0  0  0  0  0  0  0  0  0
   27.8940    8.6578   55.7793 C   0  0  0  0  0  0  0  0  0  0  0  0
   28.7825    8.4627   56.8429 C   0  0  0  0  0  0  0  0  0  0  0  0
   28.3226    8.5584   58.1389 C   0  0  0  0  0  0  0  0  0  0  0  0
   26.9931    8.8452   58.3514 C   0  0  0  0  0  0  0  0  0  0  0  0
   26.1057    9.0400   57.2969 C   0  0  0  0  0  0  0  0  0  0  0  0
   21.9597    8.0918   52.9335 C   0  0  0  0  0  0  0  0  0  0  0  0
   21.9806    7.7362   51.7274 O   0  0  0  0  0  0  0  0  0  0  0  0
   23.1857    8.3192   53.6128 N   0  0  0  0  0  0  0  0  0  0  0  0
   24.4657    8.1625   52.9844 C   0  0  0  0  0  0  0  0  0  0  0  0
   25.4673    7.8458   54.0802 C   0  0  0  0  0  0  0  0  0  0  0  0
   25.6381    9.1481   54.8739 C   0  0  0  0  0  0  0  0  0  0  0  0
   24.3077    9.6381   55.3561 C   0  0  0  0  0  0  0  0  0  0  0  0
   23.1610    8.7267   55.0007 C   0  0  0  0  0  0  0  0  0  0  0  0
   19.8298    7.1689   53.3666 F   0  0  0  0  0  0  0  0  0  0  0  0
   20.6479    8.2600   53.6004 C   0  0  0  0  0  0  0  0  0  0  0  0
   33.0320   11.2558   62.9390 N   0  0  0  0  0  0  0  0  0  0  0  0
   33.8115   11.0551   63.6527 H   0  0  0  0  0  0  0  0  0  0  0  0
   32.7724   12.8606   62.4935 S   0  0  0  0  0  0  0  0  0  0  0  0
   33.3160   13.8423   63.5105 O   0  0  0  0  0  0  0  0  0  0  0  0
   33.5810   13.1493   61.2280 O   0  0  0  0  0  0  0  0  0  0  0  0
   31.0982   13.1636   62.1622 C   0  0  0  0  0  0  0  0  0  0  0  0
   30.6561   14.0374   61.1926 C   0  0  0  0  0  0  0  0  0  0  0  0
   29.3170   14.2749   60.9848 C   0  0  0  0  0  0  0  0  0  0  0  0
   28.3942   13.6285   61.7589 C   0  0  0  0  0  0  0  0  0  0  0  0
   27.0733   13.8667   61.5495 F   0  0  0  0  0  0  0  0  0  0  0  0
   28.8243   12.7714   62.7103 N   0  0  0  0  0  0  0  0  0  0  0  0
   30.1282   12.5340   62.9196 C   0  0  0  0  0  0  0  0  0  0  0  0
   29.8516   10.6899   59.2369 O   0  0  0  0  0  0  0  0  0  0  0  0
   28.7051   11.5018   59.4048 C   0  0  0  0  0  0  0  0  0  0  0  0
   28.0823   11.7747   58.0426 C   0  0  0  0  0  0  0  0  0  0  0  0
   27.8018   13.1583   58.0286 O   0  0  0  0  0  0  0  0  0  0  0  0
   28.6275   13.5889   58.3834 H   0  0  0  0  0  0  0  0  0  0  0  0
 25 26  1  0  0  0
 26 17  1  0  0  0
 17 18  2  0  0  0
 17 19  1  0  0  0
 19 20  1  0  0  0
 20 21  1  0  0  0
 21 22  1  0  0  0
 22 23  1  0  0  0
 23 24  1  0  0  0
 22 11  1  0  0  0
 11 12  2  0  0  0
 12 13  1  0  0  0
 13 14  2  0  0  0
 14 15  1  0  0  0
 15 16  2  0  0  0
 14  1  1  0  0  0
  1  2  2  0  0  0
  2  3  1  0  0  0
  3  4  2  0  0  0
  4  5  1  0  0  0
  5  6  2  0  0  0
  6  7  1  0  0  0
  7 27  1  0  0  0
 27 29  1  0  0  0
 29 30  2  0  0  0
 29 31  2  0  0  0
 29 32  1  0  0  0
 32 33  2  0  0  0
 33 34  1  0  0  0
 34 35  2  0  0  0
 35 36  1  0  0  0
 35 37  1  0  0  0
 37 38  2  0  0  0
  7  8  2  0  0  0
  8  9  1  0  0  0
  9 10  2  0  0  0
 10 39  1  0  0  0
 39 40  1  0  0  0
 40 41  1  0  0  0
 41 42  1  0  0  0
 24 19  1  0  0  0
 16 11  1  0  0  0
 10  1  1  0  0  0
  9  4  1  0  0  0
 38 32  1  0  0  0
 27 28  1  0  0  0
 42 43  1  0  0  0
M  END
> <minimizedAffinity>
10.13412

> <CNNscore>
0.4784502089

> <CNNaffinity>
6.7484769821

> <CNN_VS>
3.2288103104

> <CNNaffinity_variance>
0.1631935388

$$$$
[H]OC([H])([H])C([H])([H])Oc1c(-c2c([H])c([H])c(C3([H])C([H])([H])C([H])([H])N(C(=O)C([H])([H])F)C([H])([H])C3([H])[H])c([H])c2[H])c([H])nc2c([H])c([H])c(N([H])S(=O)(=O)c3c([H])nc(F)c([H])c3[H])c([H])c12


 43 47  0  0  0  0  0  0  0  0999 V2000
   24.0511    8.4498   54.3186 C   0  0  0  0  0  0  0  0  0  0  0  0
   23.6763    9.1732   53.1879 C   0  0  0  0  0  0  0  0  0  0  0  0
   22.6216    8.8012   52.4519 N   0  0  0  0  0  0  0  0  0  0  0  0
   21.8770    7.7157   52.7682 C   0  0  0  0  0  0  0  0  0  0  0  0
   20.7972    7.3511   51.9989 C   0  0  0  0  0  0  0  0  0  0  0  0
   20.0425    6.2241   52.3469 C   0  0  0  0  0  0  0  0  0  0  0  0
   20.3486    5.4722   53.4327 C   0  0  0  0  0  0  0  0  0  0  0  0
   21.4567    5.8824   54.1863 C   0  0  0  0  0  0  0  0  0  0  0  0
   22.2270    6.9783   53.8871 C   0  0  0  0  0  0  0  0  0  0  0  0
   23.3183    7.3404   54.6718 C   0  0  0  0  0  0  0  0  0  0  0  0
   27.4355    9.5557   56.6255 C   0  0  0  0  0  0  0  0  0  0  0  0
   26.1880   10.0134   56.9748 C   0  0  0  0  0  0  0  0  0  0  0  0
   25.0568    9.6625   56.2290 C   0  0  0  0  0  0  0  0  0  0  0  0
   25.1957    8.8456   55.1274 C   0  0  0  0  0  0  0  0  0  0  0  0
   26.4519    8.3950   54.7899 C   0  0  0  0  0  0  0  0  0  0  0  0
   27.5797    8.7412   55.5285 C   0  0  0  0  0  0  0  0  0  0  0  0
   30.5088   10.2087   61.2680 C   0  0  0  0  0  0  0  0  0  0  0  0
   30.9760   11.3132   61.6463 O   0  0  0  0  0  0  0  0  0  0  0  0
   29.7749   10.1431   60.0542 N   0  0  0  0  0  0  0  0  0  0  0  0
   29.5362   11.2890   59.2248 C   0  0  0  0  0  0  0  0  0  0  0  0
   28.2628   11.0197   58.4436 C   0  0  0  0  0  0  0  0  0  0  0  0
   28.6257    9.9334   57.4222 C   0  0  0  0  0  0  0  0  0  0  0  0
   29.2039    8.7407   58.1192 C   0  0  0  0  0  0  0  0  0  0  0  0
   29.2362    8.8725   59.6203 C   0  0  0  0  0  0  0  0  0  0  0  0
   31.8189    9.2100   62.9597 F   0  0  0  0  0  0  0  0  0  0  0  0
   30.7449    9.0132   62.1099 C   0  0  0  0  0  0  0  0  0  0  0  0
   19.6622    4.3312   53.9040 N   0  0  0  0  0  0  0  0  0  0  0  0
   19.7136    4.2193   54.9726 H   0  0  0  0  0  0  0  0  0  0  0  0
   18.8056    3.1681   53.0352 S   0  0  0  0  0  0  0  0  0  0  0  0
   19.2353    3.0914   51.5850 O   0  0  0  0  0  0  0  0  0  0  0  0
   19.1513    1.7894   53.5994 O   0  0  0  0  0  0  0  0  0  0  0  0
   17.0944    3.4087   53.1702 C   0  0  0  0  0  0  0  0  0  0  0  0
   16.1597    2.6468   52.5031 C   0  0  0  0  0  0  0  0  0  0  0  0
   14.8105    2.8932   52.6116 C   0  0  0  0  0  0  0  0  0  0  0  0
   14.3789    3.9215   53.4021 C   0  0  0  0  0  0  0  0  0  0  0  0
   13.0457    4.1604   53.5057 F   0  0  0  0  0  0  0  0  0  0  0  0
   15.2927    4.6703   54.0573 N   0  0  0  0  0  0  0  0  0  0  0  0
   16.6102    4.4369   53.9571 C   0  0  0  0  0  0  0  0  0  0  0  0
   23.6177    6.5691   55.7713 O   0  0  0  0  0  0  0  0  0  0  0  0
   23.6516    5.1567   55.6976 C   0  0  0  0  0  0  0  0  0  0  0  0
   22.8825    4.5763   56.8765 C   0  0  0  0  0  0  0  0  0  0  0  0
   23.8324    3.8426   57.6197 O   0  0  0  0  0  0  0  0  0  0  0  0
   24.6238    4.4445   57.6859 H   0  0  0  0  0  0  0  0  0  0  0  0
 25 26  1  0  0  0
 26 17  1  0  0  0
 17 18  2  0  0  0
 17 19  1  0  0  0
 19 20  1  0  0  0
 20 21  1  0  0  0
 21 22  1  0  0  0
 22 23  1  0  0  0
 23 24  1  0  0  0
 22 11  1  0  0  0
 11 12  2  0  0  0
 12 13  1  0  0  0
 13 14  2  0  0  0
 14 15  1  0  0  0
 15 16  2  0  0  0
 14  1  1  0  0  0
  1  2  2  0  0  0
  2  3  1  0  0  0
  3  4  2  0  0  0
  4  5  1  0  0  0
  5  6  2  0  0  0
  6  7  1  0  0  0
  7 27  1  0  0  0
 27 29  1  0  0  0
 29 30  2  0  0  0
 29 31  2  0  0  0
 29 32  1  0  0  0
 32 33  2  0  0  0
 33 34  1  0  0  0
 34 35  2  0  0  0
 35 36  1  0  0  0
 35 37  1  0  0  0
 37 38  2  0  0  0
  7  8  2  0  0  0
  8  9  1  0  0  0
  9 10  2  0  0  0
 10 39  1  0  0  0
 39 40  1  0  0  0
 40 41  1  0  0  0
 41 42  1  0  0  0
 24 19  1  0  0  0
 16 11  1  0  0  0
 10  1  1  0  0  0
  9  4  1  0  0  0
 38 32  1  0  0  0
 27 28  1  0  0  0
 42 43  1  0  0  0
M  END
> <minimizedAffinity>
33.84630

> <CNNscore>
0.4772704542

> <CNNaffinity>
6.8676147461

> <CNN_VS>
3.2777097225

> <CNNaffinity_variance>
0.6173974872

$$$$
[H]c1nc(N([H])c2c([H])c(OC([H])([H])[H])c(OC([H])([H])[H])c(OC([H])([H])[H])c2[H])nc(N([H])c2c([H])c([H])c(C([H])([H])N3C([H])([H])C([H])([H])N(C([H])([H])[H])C([H])([H])C3([H])[H])c([H])c2[H])c1C#N


 38 41  0  0  0  0  0  0  0  0999 V2000
   22.0454    9.5889   52.3167 C   0  0  0  0  0  0  0  0  0  0  0  0
   21.1233    8.9614   53.0560 N   0  0  0  0  0  0  0  0  0  0  0  0
   21.3835    7.9803   53.9341 C   0  0  0  0  0  0  0  0  0  0  0  0
   22.6984    7.6078   54.0694 C   0  0  0  0  0  0  0  0  0  0  0  0
   23.7183    8.2188   53.3296 C   0  0  0  0  0  0  0  0  0  0  0  0
   23.3157    9.1734   52.4995 N   0  0  0  0  0  0  0  0  0  0  0  0
   21.7489   10.6206   51.3958 N   0  0  0  0  0  0  0  0  0  0  0  0
   21.9383   10.3509   50.3630 H   0  0  0  0  0  0  0  0  0  0  0  0
   20.9186   14.1644   50.8446 C   0  0  0  0  0  0  0  0  0  0  0  0
   21.3547   12.8738   50.6571 C   0  0  0  0  0  0  0  0  0  0  0  0
   21.2577   11.9113   51.6785 C   0  0  0  0  0  0  0  0  0  0  0  0
   20.7097   12.3332   52.8577 C   0  0  0  0  0  0  0  0  0  0  0  0
   20.2655   13.6533   53.0436 C   0  0  0  0  0  0  0  0  0  0  0  0
   20.3670   14.5794   52.0365 C   0  0  0  0  0  0  0  0  0  0  0  0
   22.0489   16.1091   49.9470 C   0  0  0  0  0  0  0  0  0  0  0  0
   21.0117   15.1247   49.8354 O   0  0  0  0  0  0  0  0  0  0  0  0
   19.7116   14.0610   54.2481 O   0  0  0  0  0  0  0  0  0  0  0  0
   18.3157   14.0701   54.4719 C   0  0  0  0  0  0  0  0  0  0  0  0
   19.9344   15.8914   52.1960 O   0  0  0  0  0  0  0  0  0  0  0  0
   18.6772   16.1179   52.8409 C   0  0  0  0  0  0  0  0  0  0  0  0
   22.9933    6.5762   54.9897 C   0  0  0  0  0  0  0  0  0  0  0  0
   23.2183    5.7276   55.7429 N   0  0  0  0  0  0  0  0  0  0  0  0
   25.0271    7.7569   53.5306 N   0  0  0  0  0  0  0  0  0  0  0  0
   25.3493    6.9171   52.9397 H   0  0  0  0  0  0  0  0  0  0  0  0
   26.0015    8.2580   54.4338 C   0  0  0  0  0  0  0  0  0  0  0  0
   27.3595    8.1273   54.2973 C   0  0  0  0  0  0  0  0  0  0  0  0
   28.2515    8.6362   55.2535 C   0  0  0  0  0  0  0  0  0  0  0  0
   27.8176    9.2933   56.3787 C   0  0  0  0  0  0  0  0  0  0  0  0
   26.4535    9.4286   56.5218 C   0  0  0  0  0  0  0  0  0  0  0  0
   25.5753    8.9335   55.5911 C   0  0  0  0  0  0  0  0  0  0  0  0
   28.7522    9.8320   57.3993 C   0  0  0  0  0  0  0  0  0  0  0  0
   28.0973   10.5127   58.4808 N   0  0  0  0  0  0  0  0  0  0  0  0
   27.5561    9.5270   59.4187 C   0  0  0  0  0  0  0  0  0  0  0  0
   28.5691    8.6147   59.9824 C   0  0  0  0  0  0  0  0  0  0  0  0
   29.7900    9.1939   60.4076 N   0  0  0  0  0  0  0  0  0  0  0  0
   30.8754    8.2669   60.5468 C   0  0  0  0  0  0  0  0  0  0  0  0
   30.1487   10.4409   59.8345 C   0  0  0  0  0  0  0  0  0  0  0  0
   29.0417   11.2700   59.3128 C   0  0  0  0  0  0  0  0  0  0  0  0
 15 16  1  0  0  0
 16  9  1  0  0  0
  9 10  2  0  0  0
 10 11  1  0  0  0
 11  7  1  0  0  0
  7  1  1  0  0  0
  1  2  2  0  0  0
  2  3  1  0  0  0
  3  4  2  0  0  0
  4 21  1  0  0  0
 21 22  3  0  0  0
  4  5  1  0  0  0
  5 23  1  0  0  0
 23 25  1  0  0  0
 25 26  2  0  0  0
 26 27  1  0  0  0
 27 28  2  0  0  0
 28 31  1  0  0  0
 31 32  1  0  0  0
 32 33  1  0  0  0
 33 34  1  0  0  0
 34 35  1  0  0  0
 35 36  1  0  0  0
 35 37  1  0  0  0
 37 38  1  0  0  0
 28 29  1  0  0  0
 29 30  2  0  0  0
  5  6  2  0  0  0
 11 12  2  0  0  0
 12 13  1  0  0  0
 13 17  1  0  0  0
 17 18  1  0  0  0
 13 14  2  0  0  0
 14 19  1  0  0  0
 19 20  1  0  0  0
 14  9  1  0  0  0
  6  1  1  0  0  0
 30 25  1  0  0  0
 38 32  1  0  0  0
  7  8  1  0  0  0
 23 24  1  0  0  0
M  END
> <minimizedAffinity>
26.28045

> <CNNscore>
0.5989874601

> <CNNaffinity>
6.4194388390

> <CNN_VS>
3.8451633453

> <CNNaffinity_variance>
0.4764104784

$$$$
[H]c1nc(N([H])c2c([H])c(OC([H])([H])[H])c(OC([H])([H])[H])c(OC([H])([H])[H])c2[H])nc(N([H])c2c([H])c([H])c(C([H])([H])N3C([H])([H])C([H])([H])N(C([H])([H])[H])C([H])([H])C3([H])[H])c([H])c2[H])c1C#N


 38 41  0  0  0  0  0  0  0  0999 V2000
   22.0192    9.4839   54.0444 C   0  0  0  0  0  0  0  0  0  0  0  0
   21.3598    8.3589   53.7445 N   0  0  0  0  0  0  0  0  0  0  0  0
   21.9334    7.1579   53.5713 C   0  0  0  0  0  0  0  0  0  0  0  0
   23.2978    7.1004   53.7171 C   0  0  0  0  0  0  0  0  0  0  0  0
   24.0550    8.2360   54.0304 C   0  0  0  0  0  0  0  0  0  0  0  0
   23.3559    9.3556   54.1729 N   0  0  0  0  0  0  0  0  0  0  0  0
   21.3945   10.7404   54.2218 N   0  0  0  0  0  0  0  0  0  0  0  0
   20.9606   10.8767   55.2058 H   0  0  0  0  0  0  0  0  0  0  0  0
   20.2785   13.9348   52.7720 C   0  0  0  0  0  0  0  0  0  0  0  0
   20.4646   12.8765   53.6302 C   0  0  0  0  0  0  0  0  0  0  0  0
   21.2812   11.7851   53.2822 C   0  0  0  0  0  0  0  0  0  0  0  0
   21.8721   11.8397   52.0507 C   0  0  0  0  0  0  0  0  0  0  0  0
   21.6786   12.9239   51.1779 C   0  0  0  0  0  0  0  0  0  0  0  0
   20.8793   13.9807   51.5334 C   0  0  0  0  0  0  0  0  0  0  0  0
   18.4054   14.7930   54.0449 C   0  0  0  0  0  0  0  0  0  0  0  0
   19.4697   15.0213   53.1108 O   0  0  0  0  0  0  0  0  0  0  0  0
   22.2882   12.9601   49.9325 O   0  0  0  0  0  0  0  0  0  0  0  0
   23.6586   13.2682   49.7720 C   0  0  0  0  0  0  0  0  0  0  0  0
   20.6725   15.0650   50.6875 O   0  0  0  0  0  0  0  0  0  0  0  0
   21.6357   16.1233   50.6929 C   0  0  0  0  0  0  0  0  0  0  0  0
   23.9210    5.8442   53.5390 C   0  0  0  0  0  0  0  0  0  0  0  0
   24.4222    4.8102   53.4063 N   0  0  0  0  0  0  0  0  0  0  0  0
   25.4434    8.0748   54.1442 N   0  0  0  0  0  0  0  0  0  0  0  0
   25.9300    7.4600   53.4070 H   0  0  0  0  0  0  0  0  0  0  0  0
   26.3090    8.6227   55.1275 C   0  0  0  0  0  0  0  0  0  0  0  0
   27.6792    8.5897   55.0934 C   0  0  0  0  0  0  0  0  0  0  0  0
   28.4582    9.1385   56.1234 C   0  0  0  0  0  0  0  0  0  0  0  0
   27.8954    9.7392   57.2226 C   0  0  0  0  0  0  0  0  0  0  0  0
   26.5181    9.7761   57.2629 C   0  0  0  0  0  0  0  0  0  0  0  0
   25.7499    9.2416   56.2596 C   0  0  0  0  0  0  0  0  0  0  0  0
   28.7098   10.3192   58.3206 C   0  0  0  0  0  0  0  0  0  0  0  0
   28.6719    9.5538   59.5350 N   0  0  0  0  0  0  0  0  0  0  0  0
   30.0300    9.4155   60.0648 C   0  0  0  0  0  0  0  0  0  0  0  0
   30.7013   10.7000   60.3397 C   0  0  0  0  0  0  0  0  0  0  0  0
   29.9358   11.6988   60.9904 N   0  0  0  0  0  0  0  0  0  0  0  0
   30.4569   13.0290   60.8640 C   0  0  0  0  0  0  0  0  0  0  0  0
   28.5246   11.6052   60.8824 C   0  0  0  0  0  0  0  0  0  0  0  0
   27.9711   10.2609   60.6149 C   0  0  0  0  0  0  0  0  0  0  0  0
 15 16  1  0  0  0
 16  9  1  0  0  0
  9 10  2  0  0  0
 10 11  1  0  0  0
 11  7  1  0  0  0
  7  1  1  0  0  0
  1  2  2  0  0  0
  2  3  1  0  0  0
  3  4  2  0  0  0
  4 21  1  0  0  0
 21 22  3  0  0  0
  4  5  1  0  0  0
  5 23  1  0  0  0
 23 25  1  0  0  0
 25 26  2  0  0  0
 26 27  1  0  0  0
 27 28  2  0  0  0
 28 31  1  0  0  0
 31 32  1  0  0  0
 32 33  1  0  0  0
 33 34  1  0  0  0
 34 35  1  0  0  0
 35 36  1  0  0  0
 35 37  1  0  0  0
 37 38  1  0  0  0
 28 29  1  0  0  0
 29 30  2  0  0  0
  5  6  2  0  0  0
 11 12  2  0  0  0
 12 13  1  0  0  0
 13 17  1  0  0  0
 17 18  1  0  0  0
 13 14  2  0  0  0
 14 19  1  0  0  0
 19 20  1  0  0  0
 14  9  1  0  0  0
  6  1  1  0  0  0
 30 25  1  0  0  0
 38 32  1  0  0  0
  7  8  1  0  0  0
 23 24  1  0  0  0
M  END
> <minimizedAffinity>
24.58547

> <CNNscore>
0.5916492939

> <CNNaffinity>
6.3965225220

> <CNN_VS>
3.7844979763

> <CNNaffinity_variance>
0.5152423382

$$$$
[H]c1nc(N([H])c2c([H])c(OC([H])([H])[H])c(OC([H])([H])[H])c(OC([H])([H])[H])c2[H])nc(N([H])c2c([H])c([H])c(C([H])([H])N3C([H])([H])C([H])([H])N(C([H])([H])[H])C([H])([H])C3([H])[H])c([H])c2[H])c1C#N


 38 41  0  0  0  0  0  0  0  0999 V2000
   22.1080    9.3815   54.1049 C   0  0  0  0  0  0  0  0  0  0  0  0
   21.4813    8.2825   53.6693 N   0  0  0  0  0  0  0  0  0  0  0  0
   22.0885    7.1259   53.3610 C   0  0  0  0  0  0  0  0  0  0  0  0
   23.4531    7.0879   53.5106 C   0  0  0  0  0  0  0  0  0  0  0  0
   24.1772    8.1983   53.9616 C   0  0  0  0  0  0  0  0  0  0  0  0
   23.4470    9.2744   54.2288 N   0  0  0  0  0  0  0  0  0  0  0  0
   21.4482   10.5913   54.4235 N   0  0  0  0  0  0  0  0  0  0  0  0
   21.1085   10.6452   55.4515 H   0  0  0  0  0  0  0  0  0  0  0  0
   21.5941   12.6699   51.3887 C   0  0  0  0  0  0  0  0  0  0  0  0
   21.7697   11.6427   52.2859 C   0  0  0  0  0  0  0  0  0  0  0  0
   21.1955   11.6840   53.5695 C   0  0  0  0  0  0  0  0  0  0  0  0
   20.4601   12.7971   53.8680 C   0  0  0  0  0  0  0  0  0  0  0  0
   20.2837   13.8436   52.9471 C   0  0  0  0  0  0  0  0  0  0  0  0
   20.8504   13.7869   51.6990 C   0  0  0  0  0  0  0  0  0  0  0  0
   23.4520   13.2365   49.9422 C   0  0  0  0  0  0  0  0  0  0  0  0
   22.1608   12.6355   50.1132 O   0  0  0  0  0  0  0  0  0  0  0  0
   19.5329   14.9644   53.2698 O   0  0  0  0  0  0  0  0  0  0  0  0
   18.9254   15.7750   52.2837 C   0  0  0  0  0  0  0  0  0  0  0  0
   20.6901   14.8095   50.7702 O   0  0  0  0  0  0  0  0  0  0  0  0
   21.5609   15.9422   50.8510 C   0  0  0  0  0  0  0  0  0  0  0  0
   24.1114    5.8784   53.1913 C   0  0  0  0  0  0  0  0  0  0  0  0
   24.6366    4.8801   52.9355 N   0  0  0  0  0  0  0  0  0  0  0  0
   25.5689    8.0619   54.0674 N   0  0  0  0  0  0  0  0  0  0  0  0
   26.0675    7.4920   53.3026 H   0  0  0  0  0  0  0  0  0  0  0  0
   26.4239    8.5823   55.0747 C   0  0  0  0  0  0  0  0  0  0  0  0
   27.7945    8.5722   55.0427 C   0  0  0  0  0  0  0  0  0  0  0  0
   28.5629    9.0903   56.0963 C   0  0  0  0  0  0  0  0  0  0  0  0
   27.9885    9.6365   57.2178 C   0  0  0  0  0  0  0  0  0  0  0  0
   26.6108    9.6503   57.2560 C   0  0  0  0  0  0  0  0  0  0  0  0
   25.8530    9.1455   56.2297 C   0  0  0  0  0  0  0  0  0  0  0  0
   28.7916   10.1837   58.3408 C   0  0  0  0  0  0  0  0  0  0  0  0
   28.6005    9.4866   59.5816 N   0  0  0  0  0  0  0  0  0  0  0  0
   29.9049    9.1589   60.1608 C   0  0  0  0  0  0  0  0  0  0  0  0
   30.7641   10.3321   60.4084 C   0  0  0  0  0  0  0  0  0  0  0  0
   30.1501   11.4662   60.9948 N   0  0  0  0  0  0  0  0  0  0  0  0
   30.8790   12.6909   60.8349 C   0  0  0  0  0  0  0  0  0  0  0  0
   28.7452   11.5915   60.8441 C   0  0  0  0  0  0  0  0  0  0  0  0
   27.9926   10.3411   60.6101 C   0  0  0  0  0  0  0  0  0  0  0  0
 15 16  1  0  0  0
 16  9  1  0  0  0
  9 10  2  0  0  0
 10 11  1  0  0  0
 11  7  1  0  0  0
  7  1  1  0  0  0
  1  2  2  0  0  0
  2  3  1  0  0  0
  3  4  2  0  0  0
  4 21  1  0  0  0
 21 22  3  0  0  0
  4  5  1  0  0  0
  5 23  1  0  0  0
 23 25  1  0  0  0
 25 26  2  0  0  0
 26 27  1  0  0  0
 27 28  2  0  0  0
 28 31  1  0  0  0
 31 32  1  0  0  0
 32 33  1  0  0  0
 33 34  1  0  0  0
 34 35  1  0  0  0
 35 36  1  0  0  0
 35 37  1  0  0  0
 37 38  1  0  0  0
 28 29  1  0  0  0
 29 30  2  0  0  0
  5  6  2  0  0  0
 11 12  2  0  0  0
 12 13  1  0  0  0
 13 17  1  0  0  0
 17 18  1  0  0  0
 13 14  2  0  0  0
 14 19  1  0  0  0
 19 20  1  0  0  0
 14  9  1  0  0  0
  6  1  1  0  0  0
 30 25  1  0  0  0
 38 32  1  0  0  0
  7  8  1  0  0  0
 23 24  1  0  0  0
M  END
> <minimizedAffinity>
23.19863

> <CNNscore>
0.5887689590

> <CNNaffinity>
6.4208312035

> <CNN_VS>
3.7803862095

> <CNNaffinity_variance>
0.5104424953

$$$$
[H]c1nc(N([H])c2c([H])c(OC([H])([H])[H])c(OC([H])([H])[H])c(OC([H])([H])[H])c2[H])nc(N([H])c2c([H])c([H])c(C([H])([H])N3C([H])([H])C([H])([H])N(C([H])([H])[H])C([H])([H])C3([H])[H])c([H])c2[H])c1C#N


 38 41  0  0  0  0  0  0  0  0999 V2000
   22.1891    9.2011   52.4322 C   0  0  0  0  0  0  0  0  0  0  0  0
   21.3141    8.4124   53.0666 N   0  0  0  0  0  0  0  0  0  0  0  0
   21.6455    7.4395   53.9297 C   0  0  0  0  0  0  0  0  0  0  0  0
   22.9859    7.2560   54.1655 C   0  0  0  0  0  0  0  0  0  0  0  0
   23.9600    8.0427   53.5385 C   0  0  0  0  0  0  0  0  0  0  0  0
   23.4882    8.9665   52.7100 N   0  0  0  0  0  0  0  0  0  0  0  0
   21.8179   10.2208   51.5250 N   0  0  0  0  0  0  0  0  0  0  0  0
   21.8846    9.9243   50.4845 H   0  0  0  0  0  0  0  0  0  0  0  0
   21.2320   13.8251   51.0585 C   0  0  0  0  0  0  0  0  0  0  0  0
   21.5971   12.5163   50.8469 C   0  0  0  0  0  0  0  0  0  0  0  0
   21.3932   11.5301   51.8292 C   0  0  0  0  0  0  0  0  0  0  0  0
   20.8164   11.9482   52.9959 C   0  0  0  0  0  0  0  0  0  0  0  0
   20.4450   13.2869   53.2066 C   0  0  0  0  0  0  0  0  0  0  0  0
   20.6505   14.2360   52.2376 C   0  0  0  0  0  0  0  0  0  0  0  0
   21.7898   16.1233   50.5368 C   0  0  0  0  0  0  0  0  0  0  0  0
   21.4312   14.8089   50.0882 O   0  0  0  0  0  0  0  0  0  0  0  0
   19.8602   13.6903   54.3979 O   0  0  0  0  0  0  0  0  0  0  0  0
   18.5254   14.1511   54.4650 C   0  0  0  0  0  0  0  0  0  0  0  0
   20.2915   15.5669   52.4221 O   0  0  0  0  0  0  0  0  0  0  0  0
   18.9892   15.9833   51.9998 C   0  0  0  0  0  0  0  0  0  0  0  0
   23.3557    6.2362   55.0718 C   0  0  0  0  0  0  0  0  0  0  0  0
   23.6712    5.3976   55.8033 N   0  0  0  0  0  0  0  0  0  0  0  0
   25.3024    7.7670   53.8362 N   0  0  0  0  0  0  0  0  0  0  0  0
   25.7770    6.9750   53.2831 H   0  0  0  0  0  0  0  0  0  0  0  0
   26.1335    8.4043   54.7951 C   0  0  0  0  0  0  0  0  0  0  0  0
   27.5044    8.4136   54.7837 C   0  0  0  0  0  0  0  0  0  0  0  0
   28.2482    9.0520   55.7877 C   0  0  0  0  0  0  0  0  0  0  0  0
   27.6482    9.7031   56.8375 C   0  0  0  0  0  0  0  0  0  0  0  0
   26.2699    9.6979   56.8547 C   0  0  0  0  0  0  0  0  0  0  0  0
   25.5361    9.0758   55.8765 C   0  0  0  0  0  0  0  0  0  0  0  0
   28.4252   10.3782   57.9080 C   0  0  0  0  0  0  0  0  0  0  0  0
   28.6592    9.5536   59.0601 N   0  0  0  0  0  0  0  0  0  0  0  0
   30.0200    9.7799   59.5513 C   0  0  0  0  0  0  0  0  0  0  0  0
   30.3033   11.1821   59.9116 C   0  0  0  0  0  0  0  0  0  0  0  0
   29.3097   11.8687   60.6521 N   0  0  0  0  0  0  0  0  0  0  0  0
   29.4197   13.2982   60.6187 C   0  0  0  0  0  0  0  0  0  0  0  0
   27.9821   11.3768   60.5645 C   0  0  0  0  0  0  0  0  0  0  0  0
   27.8291    9.9513   60.2048 C   0  0  0  0  0  0  0  0  0  0  0  0
 15 16  1  0  0  0
 16  9  1  0  0  0
  9 10  2  0  0  0
 10 11  1  0  0  0
 11  7  1  0  0  0
  7  1  1  0  0  0
  1  2  2  0  0  0
  2  3  1  0  0  0
  3  4  2  0  0  0
  4 21  1  0  0  0
 21 22  3  0  0  0
  4  5  1  0  0  0
  5 23  1  0  0  0
 23 25  1  0  0  0
 25 26  2  0  0  0
 26 27  1  0  0  0
 27 28  2  0  0  0
 28 31  1  0  0  0
 31 32  1  0  0  0
 32 33  1  0  0  0
 33 34  1  0  0  0
 34 35  1  0  0  0
 35 36  1  0  0  0
 35 37  1  0  0  0
 37 38  1  0  0  0
 28 29  1  0  0  0
 29 30  2  0  0  0
  5  6  2  0  0  0
 11 12  2  0  0  0
 12 13  1  0  0  0
 13 17  1  0  0  0
 17 18  1  0  0  0
 13 14  2  0  0  0
 14 19  1  0  0  0
 19 20  1  0  0  0
 14  9  1  0  0  0
  6  1  1  0  0  0
 30 25  1  0  0  0
 38 32  1  0  0  0
  7  8  1  0  0  0
 23 24  1  0  0  0
M  END
> <minimizedAffinity>
25.70535

> <CNNscore>
0.5509131551

> <CNNaffinity>
6.4494347572

> <CNN_VS>
3.5530784130

> <CNNaffinity_variance>
0.5435023904

$$$$
[H]c1nc(N([H])c2c([H])c(OC([H])([H])[H])c(OC([H])([H])[H])c(OC([H])([H])[H])c2[H])nc(N([H])c2c([H])c([H])c(C([H])([H])N3C([H])([H])C([H])([H])N(C([H])([H])[H])C([H])([H])C3([H])[H])c([H])c2[H])c1C#N


 38 41  0  0  0  0  0  0  0  0999 V2000
   22.5799    8.6048   52.3333 C   0  0  0  0  0  0  0  0  0  0  0  0
   21.7948    7.6118   52.7671 N   0  0  0  0  0  0  0  0  0  0  0  0
   22.1961    6.6118   53.5672 C   0  0  0  0  0  0  0  0  0  0  0  0
   23.5124    6.6268   53.9585 C   0  0  0  0  0  0  0  0  0  0  0  0
   24.3938    7.6333   53.5448 C   0  0  0  0  0  0  0  0  0  0  0  0
   23.8602    8.5578   52.7555 N   0  0  0  0  0  0  0  0  0  0  0  0
   22.1361    9.6491   51.4890 N   0  0  0  0  0  0  0  0  0  0  0  0
   22.2135    9.4185   50.4326 H   0  0  0  0  0  0  0  0  0  0  0  0
   20.7232   12.2502   53.6775 C   0  0  0  0  0  0  0  0  0  0  0  0
   21.2440   11.0646   53.2148 C   0  0  0  0  0  0  0  0  0  0  0  0
   21.6303   10.9082   51.8711 C   0  0  0  0  0  0  0  0  0  0  0  0
   21.4571   11.9956   51.0611 C   0  0  0  0  0  0  0  0  0  0  0  0
   20.9246   13.2049   51.5393 C   0  0  0  0  0  0  0  0  0  0  0  0
   20.5535   13.3406   52.8531 C   0  0  0  0  0  0  0  0  0  0  0  0
   20.4385   11.2733   55.8751 C   0  0  0  0  0  0  0  0  0  0  0  0
   20.3379   12.4126   55.0095 O   0  0  0  0  0  0  0  0  0  0  0  0
   20.7578   14.2969   50.7006 O   0  0  0  0  0  0  0  0  0  0  0  0
   21.4558   15.5109   50.8948 C   0  0  0  0  0  0  0  0  0  0  0  0
   20.0245   14.5268   53.3503 O   0  0  0  0  0  0  0  0  0  0  0  0
   19.2635   15.3541   52.4649 C   0  0  0  0  0  0  0  0  0  0  0  0
   23.9548    5.5822   54.8018 C   0  0  0  0  0  0  0  0  0  0  0  0
   24.3128    4.7368   55.5053 N   0  0  0  0  0  0  0  0  0  0  0  0
   25.7216    7.5510   53.9883 N   0  0  0  0  0  0  0  0  0  0  0  0
   26.3641    6.8450   53.4913 H   0  0  0  0  0  0  0  0  0  0  0  0
   26.3415    8.2874   55.0323 C   0  0  0  0  0  0  0  0  0  0  0  0
   25.6895    8.9267   56.0551 C   0  0  0  0  0  0  0  0  0  0  0  0
   26.3832    9.6528   57.0351 C   0  0  0  0  0  0  0  0  0  0  0  0
   27.7519    9.7652   57.0272 C   0  0  0  0  0  0  0  0  0  0  0  0
   28.4135    9.1243   56.0019 C   0  0  0  0  0  0  0  0  0  0  0  0
   27.7420    8.4126   55.0402 C   0  0  0  0  0  0  0  0  0  0  0  0
   28.4962   10.5347   58.0565 C   0  0  0  0  0  0  0  0  0  0  0  0
   28.6788    9.8232   59.2903 N   0  0  0  0  0  0  0  0  0  0  0  0
   30.0373   10.0522   59.7868 C   0  0  0  0  0  0  0  0  0  0  0  0
   30.3633   11.4734   60.0111 C   0  0  0  0  0  0  0  0  0  0  0  0
   29.3809   12.2640   60.6566 N   0  0  0  0  0  0  0  0  0  0  0  0
   29.5423   13.6784   60.4826 C   0  0  0  0  0  0  0  0  0  0  0  0
   28.0386   11.8105   60.5889 C   0  0  0  0  0  0  0  0  0  0  0  0
   27.8418   10.3619   60.3705 C   0  0  0  0  0  0  0  0  0  0  0  0
 15 16  1  0  0  0
 16  9  1  0  0  0
  9 10  2  0  0  0
 10 11  1  0  0  0
 11  7  1  0  0  0
  7  1  1  0  0  0
  1  2  2  0  0  0
  2  3  1  0  0  0
  3  4  2  0  0  0
  4 21  1  0  0  0
 21 22  3  0  0  0
  4  5  1  0  0  0
  5 23  1  0  0  0
 23 25  1  0  0  0
 25 26  2  0  0  0
 26 27  1  0  0  0
 27 28  2  0  0  0
 28 31  1  0  0  0
 31 32  1  0  0  0
 32 33  1  0  0  0
 33 34  1  0  0  0
 34 35  1  0  0  0
 35 36  1  0  0  0
 35 37  1  0  0  0
 37 38  1  0  0  0
 28 29  1  0  0  0
 29 30  2  0  0  0
  5  6  2  0  0  0
 11 12  2  0  0  0
 12 13  1  0  0  0
 13 17  1  0  0  0
 17 18  1  0  0  0
 13 14  2  0  0  0
 14 19  1  0  0  0
 19 20  1  0  0  0
 14  9  1  0  0  0
  6  1  1  0  0  0
 30 25  1  0  0  0
 38 32  1  0  0  0
  7  8  1  0  0  0
 23 24  1  0  0  0
M  END
> <minimizedAffinity>
26.05218

> <CNNscore>
0.5432174802

> <CNNaffinity>
6.2807507515

> <CNN_VS>
3.4118134975

> <CNNaffinity_variance>
0.7865459323

$$$$
[H]c1nc(N([H])c2c([H])c(OC([H])([H])[H])c(OC([H])([H])[H])c(OC([H])([H])[H])c2[H])nc(N([H])c2c([H])c([H])c(C([H])([H])N3C([H])([H])C([H])([H])N(C([H])([H])[H])C([H])([H])C3([H])[H])c([H])c2[H])c1C#N


 38 41  0  0  0  0  0  0  0  0999 V2000
   27.9815    8.8148   52.5662 C   0  0  0  0  0  0  0  0  0  0  0  0
   29.0294    9.3779   53.1786 N   0  0  0  0  0  0  0  0  0  0  0  0
   29.0779    9.6888   54.4833 C   0  0  0  0  0  0  0  0  0  0  0  0
   27.9602    9.3996   55.2271 C   0  0  0  0  0  0  0  0  0  0  0  0
   26.8257    8.8103   54.6557 C   0  0  0  0  0  0  0  0  0  0  0  0
   26.9182    8.5579   53.3555 N   0  0  0  0  0  0  0  0  0  0  0  0
   27.9512    8.4961   51.1885 N   0  0  0  0  0  0  0  0  0  0  0  0
   27.7774    7.4451   50.9877 H   0  0  0  0  0  0  0  0  0  0  0  0
   27.9029   11.6514   49.2927 C   0  0  0  0  0  0  0  0  0  0  0  0
   27.7856   10.7240   50.3013 C   0  0  0  0  0  0  0  0  0  0  0  0
   28.1233    9.3734   50.0986 C   0  0  0  0  0  0  0  0  0  0  0  0
   28.5698    9.0421   48.8498 C   0  0  0  0  0  0  0  0  0  0  0  0
   28.6879    9.9940   47.8229 C   0  0  0  0  0  0  0  0  0  0  0  0
   28.3548   11.3074   48.0379 C   0  0  0  0  0  0  0  0  0  0  0  0
   26.5751   13.5635   48.6250 C   0  0  0  0  0  0  0  0  0  0  0  0
   27.5698   12.9932   49.4869 O   0  0  0  0  0  0  0  0  0  0  0  0
   29.1440    9.6370   46.5626 O   0  0  0  0  0  0  0  0  0  0  0  0
   28.7333    8.4460   45.9211 C   0  0  0  0  0  0  0  0  0  0  0  0
   28.4632   12.2679   47.0381 O   0  0  0  0  0  0  0  0  0  0  0  0
   29.7709   12.7077   46.6583 C   0  0  0  0  0  0  0  0  0  0  0  0
   27.9915    9.7190   56.6037 C   0  0  0  0  0  0  0  0  0  0  0  0
   28.0028    9.9894   57.7283 N   0  0  0  0  0  0  0  0  0  0  0  0
   25.7309    8.5676   55.4977 N   0  0  0  0  0  0  0  0  0  0  0  0
   25.8916    8.6709   56.5569 H   0  0  0  0  0  0  0  0  0  0  0  0
   24.4123    8.1901   55.1298 C   0  0  0  0  0  0  0  0  0  0  0  0
   24.0265    6.9439   54.7080 C   0  0  0  0  0  0  0  0  0  0  0  0
   22.7011    6.6644   54.3417 C   0  0  0  0  0  0  0  0  0  0  0  0
   21.7157    7.6200   54.3843 C   0  0  0  0  0  0  0  0  0  0  0  0
   22.0969    8.8750   54.8080 C   0  0  0  0  0  0  0  0  0  0  0  0
   23.3908    9.1556   55.1677 C   0  0  0  0  0  0  0  0  0  0  0  0
   20.3109    7.3368   53.9948 C   0  0  0  0  0  0  0  0  0  0  0  0
   20.1786    6.7632   52.6850 N   0  0  0  0  0  0  0  0  0  0  0  0
   19.2971    7.6044   51.8729 C   0  0  0  0  0  0  0  0  0  0  0  0
   19.7596    8.9980   51.7311 C   0  0  0  0  0  0  0  0  0  0  0  0
   21.1372    9.1940   51.4646 N   0  0  0  0  0  0  0  0  0  0  0  0
   21.6191   10.5149   51.7471 C   0  0  0  0  0  0  0  0  0  0  0  0
   22.0229    8.1505   51.8367 C   0  0  0  0  0  0  0  0  0  0  0  0
   21.4413    6.7952   51.9353 C   0  0  0  0  0  0  0  0  0  0  0  0
 15 16  1  0  0  0
 16  9  1  0  0  0
  9 10  2  0  0  0
 10 11  1  0  0  0
 11  7  1  0  0  0
  7  1  1  0  0  0
  1  2  2  0  0  0
  2  3  1  0  0  0
  3  4  2  0  0  0
  4 21  1  0  0  0
 21 22  3  0  0  0
  4  5  1  0  0  0
  5 23  1  0  0  0
 23 25  1  0  0  0
 25 26  2  0  0  0
 26 27  1  0  0  0
 27 28  2  0  0  0
 28 31  1  0  0  0
 31 32  1  0  0  0
 32 33  1  0  0  0
 33 34  1  0  0  0
 34 35  1  0  0  0
 35 36  1  0  0  0
 35 37  1  0  0  0
 37 38  1  0  0  0
 28 29  1  0  0  0
 29 30  2  0  0  0
  5  6  2  0  0  0
 11 12  2  0  0  0
 12 13  1  0  0  0
 13 17  1  0  0  0
 17 18  1  0  0  0
 13 14  2  0  0  0
 14 19  1  0  0  0
 19 20  1  0  0  0
 14  9  1  0  0  0
  6  1  1  0  0  0
 30 25  1  0  0  0
 38 32  1  0  0  0
  7  8  1  0  0  0
 23 24  1  0  0  0
M  END
> <minimizedAffinity>
31.31696

> <CNNscore>
0.4879823327

> <CNNaffinity>
6.2965750694

> <CNN_VS>
3.0726172924

> <CNNaffinity_variance>
0.5490927100

$$$$
[H]c1nc(N([H])c2c([H])c(OC([H])([H])[H])c(OC([H])([H])[H])c(OC([H])([H])[H])c2[H])nc(N([H])c2c([H])c([H])c(C([H])([H])N3C([H])([H])C([H])([H])N(C([H])([H])[H])C([H])([H])C3([H])[H])c([H])c2[H])c1C#N


 38 41  0  0  0  0  0  0  0  0999 V2000
   27.5663    9.7977   56.3167 C   0  0  0  0  0  0  0  0  0  0  0  0
   28.7019    9.8929   55.6154 N   0  0  0  0  0  0  0  0  0  0  0  0
   29.0935    9.0243   54.6702 C   0  0  0  0  0  0  0  0  0  0  0  0
   28.2534    7.9674   54.4191 C   0  0  0  0  0  0  0  0  0  0  0  0
   27.0483    7.8016   55.1128 C   0  0  0  0  0  0  0  0  0  0  0  0
   26.7888    8.7362   56.0193 N   0  0  0  0  0  0  0  0  0  0  0  0
   27.1730   10.7247   57.3099 N   0  0  0  0  0  0  0  0  0  0  0  0
   26.1199   10.9794   57.2762 H   0  0  0  0  0  0  0  0  0  0  0  0
   29.7332   10.9966   59.9411 C   0  0  0  0  0  0  0  0  0  0  0  0
   28.9114   10.5031   58.9551 C   0  0  0  0  0  0  0  0  0  0  0  0
   27.9835   11.3276   58.2931 C   0  0  0  0  0  0  0  0  0  0  0  0
   27.9482   12.6363   58.6865 C   0  0  0  0  0  0  0  0  0  0  0  0
   28.7905   13.1353   59.6945 C   0  0  0  0  0  0  0  0  0  0  0  0
   29.6904   12.3174   60.3296 C   0  0  0  0  0  0  0  0  0  0  0  0
   30.1940    8.9219   61.1023 C   0  0  0  0  0  0  0  0  0  0  0  0
   30.6564   10.1842   60.6021 O   0  0  0  0  0  0  0  0  0  0  0  0
   28.7392   14.4671   60.0783 O   0  0  0  0  0  0  0  0  0  0  0  0
   27.8455   14.9325   61.0700 C   0  0  0  0  0  0  0  0  0  0  0  0
   30.5347   12.7874   61.3297 O   0  0  0  0  0  0  0  0  0  0  0  0
   30.8787   14.1764   61.3301 C   0  0  0  0  0  0  0  0  0  0  0  0
   28.6478    7.0413   53.4266 C   0  0  0  0  0  0  0  0  0  0  0  0
   28.9837    6.2788   52.6242 N   0  0  0  0  0  0  0  0  0  0  0  0
   26.2675    6.6818   54.7919 N   0  0  0  0  0  0  0  0  0  0  0  0
   26.7442    5.7182   54.8421 H   0  0  0  0  0  0  0  0  0  0  0  0
   24.9042    6.6516   54.3958 C   0  0  0  0  0  0  0  0  0  0  0  0
   23.8524    6.2571   55.1819 C   0  0  0  0  0  0  0  0  0  0  0  0
   22.5349    6.2374   54.6994 C   0  0  0  0  0  0  0  0  0  0  0  0
   22.2228    6.6114   53.4154 C   0  0  0  0  0  0  0  0  0  0  0  0
   23.2757    7.0097   52.6200 C   0  0  0  0  0  0  0  0  0  0  0  0
   24.5663    7.0314   53.0848 C   0  0  0  0  0  0  0  0  0  0  0  0
   20.8329    6.5903   52.8927 C   0  0  0  0  0  0  0  0  0  0  0  0
   20.4605    7.7872   52.1923 N   0  0  0  0  0  0  0  0  0  0  0  0
   19.6497    8.6323   53.0714 C   0  0  0  0  0  0  0  0  0  0  0  0
   20.3234    9.0131   54.3273 C   0  0  0  0  0  0  0  0  0  0  0  0
   21.6759    9.4239   54.2322 N   0  0  0  0  0  0  0  0  0  0  0  0
   22.4034    9.3776   55.4673 C   0  0  0  0  0  0  0  0  0  0  0  0
   22.4075    8.9837   53.0995 C   0  0  0  0  0  0  0  0  0  0  0  0
   21.6189    8.6406   51.8973 C   0  0  0  0  0  0  0  0  0  0  0  0
 15 16  1  0  0  0
 16  9  1  0  0  0
  9 10  2  0  0  0
 10 11  1  0  0  0
 11  7  1  0  0  0
  7  1  1  0  0  0
  1  2  2  0  0  0
  2  3  1  0  0  0
  3  4  2  0  0  0
  4 21  1  0  0  0
 21 22  3  0  0  0
  4  5  1  0  0  0
  5 23  1  0  0  0
 23 25  1  0  0  0
 25 26  2  0  0  0
 26 27  1  0  0  0
 27 28  2  0  0  0
 28 31  1  0  0  0
 31 32  1  0  0  0
 32 33  1  0  0  0
 33 34  1  0  0  0
 34 35  1  0  0  0
 35 36  1  0  0  0
 35 37  1  0  0  0
 37 38  1  0  0  0
 28 29  1  0  0  0
 29 30  2  0  0  0
  5  6  2  0  0  0
 11 12  2  0  0  0
 12 13  1  0  0  0
 13 17  1  0  0  0
 17 18  1  0  0  0
 13 14  2  0  0  0
 14 19  1  0  0  0
 19 20  1  0  0  0
 14  9  1  0  0  0
  6  1  1  0  0  0
 30 25  1  0  0  0
 38 32  1  0  0  0
  7  8  1  0  0  0
 23 24  1  0  0  0
M  END
> <minimizedAffinity>
14.84789

> <CNNscore>
0.4108827710

> <CNNaffinity>
6.4087281227

> <CNN_VS>
2.6332359314

> <CNNaffinity_variance>
1.0003674030

$$$$
[H]c1nc(N([H])c2c([H])c(OC([H])([H])[H])c(OC([H])([H])[H])c(OC([H])([H])[H])c2[H])nc(N([H])c2c([H])c([H])c(C([H])([H])N3C([H])([H])C([H])([H])N(C([H])([H])[H])C([H])([H])C3([H])[H])c([H])c2[H])c1C#N


 38 41  0  0  0  0  0  0  0  0999 V2000
   20.8977    6.0346   53.2507 C   0  0  0  0  0  0  0  0  0  0  0  0
   20.0017    7.0007   53.0175 N   0  0  0  0  0  0  0  0  0  0  0  0
   20.3054    8.2874   52.7865 C   0  0  0  0  0  0  0  0  0  0  0  0
   21.6387    8.6164   52.7939 C   0  0  0  0  0  0  0  0  0  0  0  0
   22.6335    7.6596   53.0305 C   0  0  0  0  0  0  0  0  0  0  0  0
   22.1883    6.4272   53.2436 N   0  0  0  0  0  0  0  0  0  0  0  0
   20.5556    4.6838   53.4929 N   0  0  0  0  0  0  0  0  0  0  0  0
   21.4128    4.0355   53.6345 H   0  0  0  0  0  0  0  0  0  0  0  0
   17.6143    2.7297   52.4527 C   0  0  0  0  0  0  0  0  0  0  0  0
   18.8617    3.3076   52.4856 C   0  0  0  0  0  0  0  0  0  0  0  0
   19.2644    4.1220   53.5597 C   0  0  0  0  0  0  0  0  0  0  0  0
   18.3488    4.3030   54.5585 C   0  0  0  0  0  0  0  0  0  0  0  0
   17.0756    3.7098   54.5198 C   0  0  0  0  0  0  0  0  0  0  0  0
   16.6992    2.9176   53.4648 C   0  0  0  0  0  0  0  0  0  0  0  0
   16.9499    2.5557   50.1303 C   0  0  0  0  0  0  0  0  0  0  0  0
   17.2080    1.9203   51.3901 O   0  0  0  0  0  0  0  0  0  0  0  0
   16.1613    3.9056   55.5442 O   0  0  0  0  0  0  0  0  0  0  0  0
   16.3133    3.3066   56.8158 C   0  0  0  0  0  0  0  0  0  0  0  0
   15.4452    2.3194   53.4036 O   0  0  0  0  0  0  0  0  0  0  0  0
   14.3392    3.1065   52.9510 C   0  0  0  0  0  0  0  0  0  0  0  0
   21.9793    9.9668   52.5522 C   0  0  0  0  0  0  0  0  0  0  0  0
   22.2627   11.0735   52.3707 N   0  0  0  0  0  0  0  0  0  0  0  0
   23.9651    8.0994   53.0306 N   0  0  0  0  0  0  0  0  0  0  0  0
   24.4607    8.1698   52.0778 H   0  0  0  0  0  0  0  0  0  0  0  0
   24.7641    8.4662   54.1457 C   0  0  0  0  0  0  0  0  0  0  0  0
   26.1165    8.2711   54.2581 C   0  0  0  0  0  0  0  0  0  0  0  0
   26.8248    8.6459   55.4100 C   0  0  0  0  0  0  0  0  0  0  0  0
   26.2064    9.2285   56.4890 C   0  0  0  0  0  0  0  0  0  0  0  0
   24.8468    9.4280   56.3822 C   0  0  0  0  0  0  0  0  0  0  0  0
   24.1477    9.0641   55.2592 C   0  0  0  0  0  0  0  0  0  0  0  0
   26.9450    9.6250   57.7148 C   0  0  0  0  0  0  0  0  0  0  0  0
   28.3726    9.5493   57.5795 N   0  0  0  0  0  0  0  0  0  0  0  0
   28.9471   10.8872   57.7354 C   0  0  0  0  0  0  0  0  0  0  0  0
   28.6308   11.5303   59.0248 C   0  0  0  0  0  0  0  0  0  0  0  0
   28.7365   10.7268   60.1868 N   0  0  0  0  0  0  0  0  0  0  0  0
   28.0374   11.2352   61.3312 C   0  0  0  0  0  0  0  0  0  0  0  0
   28.6413    9.3223   60.0130 C   0  0  0  0  0  0  0  0  0  0  0  0
   28.9948    8.7974   58.6772 C   0  0  0  0  0  0  0  0  0  0  0  0
 15 16  1  0  0  0
 16  9  1  0  0  0
  9 10  2  0  0  0
 10 11  1  0  0  0
 11  7  1  0  0  0
  7  1  1  0  0  0
  1  2  2  0  0  0
  2  3  1  0  0  0
  3  4  2  0  0  0
  4 21  1  0  0  0
 21 22  3  0  0  0
  4  5  1  0  0  0
  5 23  1  0  0  0
 23 25  1  0  0  0
 25 26  2  0  0  0
 26 27  1  0  0  0
 27 28  2  0  0  0
 28 31  1  0  0  0
 31 32  1  0  0  0
 32 33  1  0  0  0
 33 34  1  0  0  0
 34 35  1  0  0  0
 35 36  1  0  0  0
 35 37  1  0  0  0
 37 38  1  0  0  0
 28 29  1  0  0  0
 29 30  2  0  0  0
  5  6  2  0  0  0
 11 12  2  0  0  0
 12 13  1  0  0  0
 13 17  1  0  0  0
 17 18  1  0  0  0
 13 14  2  0  0  0
 14 19  1  0  0  0
 19 20  1  0  0  0
 14  9  1  0  0  0
  6  1  1  0  0  0
 30 25  1  0  0  0
 38 32  1  0  0  0
  7  8  1  0  0  0
 23 24  1  0  0  0
M  END
> <minimizedAffinity>
28.97682

> <CNNscore>
0.4041457176

> <CNNaffinity>
6.5266008377

> <CNN_VS>
2.6376976967

> <CNNaffinity_variance>
0.6778244972

$$$$
[H]c1nc(N([H])c2c([H])c(OC([H])([H])[H])c(OC([H])([H])[H])c(OC([H])([H])[H])c2[H])nc(N([H])c2c([H])c([H])c(C([H])([H])N3C([H])([H])C([H])([H])N(C([H])([H])[H])C([H])([H])C3([H])[H])c([H])c2[H])c1C#N


 38 41  0  0  0  0  0  0  0  0999 V2000
   20.8928    6.1002   53.3043 C   0  0  0  0  0  0  0  0  0  0  0  0
   19.9872    7.0505   53.0446 N   0  0  0  0  0  0  0  0  0  0  0  0
   20.2774    8.3357   52.7890 C   0  0  0  0  0  0  0  0  0  0  0  0
   21.6066    8.6805   52.7991 C   0  0  0  0  0  0  0  0  0  0  0  0
   22.6109    7.7408   53.0627 C   0  0  0  0  0  0  0  0  0  0  0  0
   22.1786    6.5079   53.2983 N   0  0  0  0  0  0  0  0  0  0  0  0
   20.5647    4.7507   53.5722 N   0  0  0  0  0  0  0  0  0  0  0  0
   21.4050    4.1573   53.9142 H   0  0  0  0  0  0  0  0  0  0  0  0
   17.1385    3.7310   54.4512 C   0  0  0  0  0  0  0  0  0  0  0  0
   18.3841    4.3127   54.4837 C   0  0  0  0  0  0  0  0  0  0  0  0
   19.3071    4.1281   53.4382 C   0  0  0  0  0  0  0  0  0  0  0  0
   18.8948    3.3421   52.3986 C   0  0  0  0  0  0  0  0  0  0  0  0
   17.6207    2.7503   52.3705 C   0  0  0  0  0  0  0  0  0  0  0  0
   16.7323    2.9412   53.3983 C   0  0  0  0  0  0  0  0  0  0  0  0
   16.5446    3.3630   56.7701 C   0  0  0  0  0  0  0  0  0  0  0  0
   16.2174    3.9099   55.4850 O   0  0  0  0  0  0  0  0  0  0  0  0
   17.2216    1.9565   51.3054 O   0  0  0  0  0  0  0  0  0  0  0  0
   17.1106    2.4602   49.9891 C   0  0  0  0  0  0  0  0  0  0  0  0
   15.4658    2.3666   53.3936 O   0  0  0  0  0  0  0  0  0  0  0  0
   14.3563    3.1731   52.9859 C   0  0  0  0  0  0  0  0  0  0  0  0
   21.9332   10.0297   52.5318 C   0  0  0  0  0  0  0  0  0  0  0  0
   22.2063   11.1352   52.3288 N   0  0  0  0  0  0  0  0  0  0  0  0
   23.9372    8.1964   53.0632 N   0  0  0  0  0  0  0  0  0  0  0  0
   24.4202    8.3075   52.1079 H   0  0  0  0  0  0  0  0  0  0  0  0
   24.7455    8.5317   54.1815 C   0  0  0  0  0  0  0  0  0  0  0  0
   26.0859    8.2717   54.3050 C   0  0  0  0  0  0  0  0  0  0  0  0
   26.8037    8.6197   55.4594 C   0  0  0  0  0  0  0  0  0  0  0  0
   26.2072    9.2395   56.5299 C   0  0  0  0  0  0  0  0  0  0  0  0
   24.8597    9.5044   56.4119 C   0  0  0  0  0  0  0  0  0  0  0  0
   24.1515    9.1670   55.2864 C   0  0  0  0  0  0  0  0  0  0  0  0
   26.9559    9.6083   57.7583 C   0  0  0  0  0  0  0  0  0  0  0  0
   28.3823    9.5400   57.6083 N   0  0  0  0  0  0  0  0  0  0  0  0
   28.9490   10.8846   57.7324 C   0  0  0  0  0  0  0  0  0  0  0  0
   28.6424   11.5498   59.0129 C   0  0  0  0  0  0  0  0  0  0  0  0
   28.7669   10.7693   60.1886 N   0  0  0  0  0  0  0  0  0  0  0  0
   28.0770   11.2943   61.3310 C   0  0  0  0  0  0  0  0  0  0  0  0
   28.6799    9.3611   60.0424 C   0  0  0  0  0  0  0  0  0  0  0  0
   29.0222    8.8134   58.7128 C   0  0  0  0  0  0  0  0  0  0  0  0
 15 16  1  0  0  0
 16  9  1  0  0  0
  9 10  2  0  0  0
 10 11  1  0  0  0
 11  7  1  0  0  0
  7  1  1  0  0  0
  1  2  2  0  0  0
  2  3  1  0  0  0
  3  4  2  0  0  0
  4 21  1  0  0  0
 21 22  3  0  0  0
  4  5  1  0  0  0
  5 23  1  0  0  0
 23 25  1  0  0  0
 25 26  2  0  0  0
 26 27  1  0  0  0
 27 28  2  0  0  0
 28 31  1  0  0  0
 31 32  1  0  0  0
 32 33  1  0  0  0
 33 34  1  0  0  0
 34 35  1  0  0  0
 35 36  1  0  0  0
 35 37  1  0  0  0
 37 38  1  0  0  0
 28 29  1  0  0  0
 29 30  2  0  0  0
  5  6  2  0  0  0
 11 12  2  0  0  0
 12 13  1  0  0  0
 13 17  1  0  0  0
 17 18  1  0  0  0
 13 14  2  0  0  0
 14 19  1  0  0  0
 19 20  1  0  0  0
 14  9  1  0  0  0
  6  1  1  0  0  0
 30 25  1  0  0  0
 38 32  1  0  0  0
  7  8  1  0  0  0
 23 24  1  0  0  0
M  END
> <minimizedAffinity>
29.00831

> <CNNscore>
0.3955160975

> <CNNaffinity>
6.5111722946

> <CNN_VS>
2.5752735138

> <CNNaffinity_variance>
0.6779593825

$$$$
[H]c1nc(Br)c([H])c([H])c1OC([H])([H])C([H])([H])C([H])([H])N1C([H])([H])C([H])([H])C2([H])N([H])C2([H])C1([H])[H]


 19 21  0  0  0  0  0  0  0  0999 V2000
   21.3834   10.4374   55.5287 C   0  0  0  0  0  0  0  0  0  0  0  0
   21.4406   10.5045   54.0308 C   0  0  0  0  0  0  0  0  0  0  0  0
   20.9259    6.7212   52.1324 C   0  0  0  0  0  0  0  0  0  0  0  0
   20.9233    7.9964   51.3334 C   0  0  0  0  0  0  0  0  0  0  0  0
   21.6061    9.1404   52.0538 C   0  0  0  0  0  0  0  0  0  0  0  0
   21.0464    9.2936   53.3526 N   0  0  0  0  0  0  0  0  0  0  0  0
   21.3896    8.1448   54.1638 C   0  0  0  0  0  0  0  0  0  0  0  0
   21.0662    6.8392   53.5358 C   0  0  0  0  0  0  0  0  0  0  0  0
   19.7727    6.5479   52.9743 N   0  0  0  0  0  0  0  0  0  0  0  0
   19.0183    7.2465   52.9810 H   0  0  0  0  0  0  0  0  0  0  0  0
   22.6943    9.9989   56.1384 C   0  0  0  0  0  0  0  0  0  0  0  0
   23.4147    9.2415   55.2725 O   0  0  0  0  0  0  0  0  0  0  0  0
   24.6966    8.9524   55.0224 C   0  0  0  0  0  0  0  0  0  0  0  0
   25.2010    8.3221   53.9178 C   0  0  0  0  0  0  0  0  0  0  0  0
   26.5721    8.0650   53.7418 C   0  0  0  0  0  0  0  0  0  0  0  0
   27.4652    8.4577   54.7160 C   0  0  0  0  0  0  0  0  0  0  0  0
   29.3456    8.1338   54.5257 Br  0  0  0  0  0  0  0  0  0  0  0  0
   26.9645    9.0743   55.7962 N   0  0  0  0  0  0  0  0  0  0  0  0
   25.6603    9.3283   55.9818 C   0  0  0  0  0  0  0  0  0  0  0  0
  3  4  1  0  0  0
  4  5  1  0  0  0
  5  6  1  0  0  0
  6  2  1  0  0  0
  2  1  1  0  0  0
  1 11  1  0  0  0
 11 12  1  0  0  0
 12 13  1  0  0  0
 13 14  2  0  0  0
 14 15  1  0  0  0
 15 16  2  0  0  0
 16 17  1  0  0  0
 16 18  1  0  0  0
 18 19  2  0  0  0
  6  7  1  0  0  0
  7  8  1  0  0  0
  8  9  1  0  0  0
  8  3  1  0  0  0
  9  3  1  0  0  0
 19 13  1  0  0  0
  9 10  1  0  0  0
M  END
> <minimizedAffinity>
1.46556

> <CNNscore>
0.6360493302

> <CNNaffinity>
5.5796346664

> <CNN_VS>
3.5489227772

> <CNNaffinity_variance>
0.3951299489

$$$$
[H]c1nc(Br)c([H])c([H])c1OC([H])([H])C([H])([H])C([H])([H])N1C([H])([H])C([H])([H])C2([H])N([H])C2([H])C1([H])[H]


 19 21  0  0  0  0  0  0  0  0999 V2000
   21.2644    8.7872   55.9766 C   0  0  0  0  0  0  0  0  0  0  0  0
   21.2900    7.2906   56.0796 C   0  0  0  0  0  0  0  0  0  0  0  0
   23.6473    5.8177   52.8460 C   0  0  0  0  0  0  0  0  0  0  0  0
   22.2651    6.3648   52.6117 C   0  0  0  0  0  0  0  0  0  0  0  0
   21.8001    7.2784   53.7266 C   0  0  0  0  0  0  0  0  0  0  0  0
   21.9342    6.6164   54.9785 N   0  0  0  0  0  0  0  0  0  0  0  0
   23.3383    6.4268   55.2754 C   0  0  0  0  0  0  0  0  0  0  0  0
   24.1079    5.7790   54.1837 C   0  0  0  0  0  0  0  0  0  0  0  0
   23.6760    4.5620   53.5468 N   0  0  0  0  0  0  0  0  0  0  0  0
   22.8024    4.0957   53.8236 H   0  0  0  0  0  0  0  0  0  0  0  0
   21.8011    9.2853   54.6551 C   0  0  0  0  0  0  0  0  0  0  0  0
   23.0590    9.7783   54.7854 O   0  0  0  0  0  0  0  0  0  0  0  0
   24.3201    9.3449   54.6801 C   0  0  0  0  0  0  0  0  0  0  0  0
   24.9264    8.8296   53.5671 C   0  0  0  0  0  0  0  0  0  0  0  0
   26.2659    8.4024   53.5528 C   0  0  0  0  0  0  0  0  0  0  0  0
   27.0195    8.4983   54.7033 C   0  0  0  0  0  0  0  0  0  0  0  0
   28.8513    7.9323   54.7386 Br  0  0  0  0  0  0  0  0  0  0  0  0
   26.4194    9.0035   55.7907 N   0  0  0  0  0  0  0  0  0  0  0  0
   25.1433    9.4162   55.8236 C   0  0  0  0  0  0  0  0  0  0  0  0
  3  4  1  0  0  0
  4  5  1  0  0  0
  5  6  1  0  0  0
  6  2  1  0  0  0
  2  1  1  0  0  0
  1 11  1  0  0  0
 11 12  1  0  0  0
 12 13  1  0  0  0
 13 14  2  0  0  0
 14 15  1  0  0  0
 15 16  2  0  0  0
 16 17  1  0  0  0
 16 18  1  0  0  0
 18 19  2  0  0  0
  6  7  1  0  0  0
  7  8  1  0  0  0
  8  9  1  0  0  0
  8  3  1  0  0  0
  9  3  1  0  0  0
 19 13  1  0  0  0
  9 10  1  0  0  0
M  END
> <minimizedAffinity>
8.54709

> <CNNscore>
0.5863856077

> <CNNaffinity>
5.3503437042

> <CNN_VS>
3.1373646259

> <CNNaffinity_variance>
0.3216873705

$$$$
[H]c1nc(Br)c([H])c([H])c1OC([H])([H])C([H])([H])C([H])([H])N1C([H])([H])C([H])([H])C2([H])N([H])C2([H])C1([H])[H]


 19 21  0  0  0  0  0  0  0  0999 V2000
   20.7605    8.6606   52.3010 C   0  0  0  0  0  0  0  0  0  0  0  0
   20.9099    7.1678   52.3179 C   0  0  0  0  0  0  0  0  0  0  0  0
   22.8764    6.1235   55.9544 C   0  0  0  0  0  0  0  0  0  0  0  0
   23.1313    5.3542   54.6865 C   0  0  0  0  0  0  0  0  0  0  0  0
   22.7748    6.1409   53.4423 C   0  0  0  0  0  0  0  0  0  0  0  0
   21.4407    6.6238   53.5443 N   0  0  0  0  0  0  0  0  0  0  0  0
   21.3672    7.6191   54.5928 C   0  0  0  0  0  0  0  0  0  0  0  0
   21.9316    7.1755   55.8922 C   0  0  0  0  0  0  0  0  0  0  0  0
   21.5649    5.9284   56.5117 N   0  0  0  0  0  0  0  0  0  0  0  0
   20.8956    5.2876   56.0660 H   0  0  0  0  0  0  0  0  0  0  0  0
   22.0916    9.3751   52.2998 C   0  0  0  0  0  0  0  0  0  0  0  0
   23.0945    8.5549   52.7046 O   0  0  0  0  0  0  0  0  0  0  0  0
   24.1871    8.6137   53.4740 C   0  0  0  0  0  0  0  0  0  0  0  0
   25.4250    8.1040   53.1916 C   0  0  0  0  0  0  0  0  0  0  0  0
   26.5193    8.2203   54.0668 C   0  0  0  0  0  0  0  0  0  0  0  0
   26.3576    8.8739   55.2699 C   0  0  0  0  0  0  0  0  0  0  0  0
   27.8170    9.0628   56.4994 Br  0  0  0  0  0  0  0  0  0  0  0  0
   25.1421    9.3705   55.5410 N   0  0  0  0  0  0  0  0  0  0  0  0
   24.0866    9.2697   54.7191 C   0  0  0  0  0  0  0  0  0  0  0  0
  3  4  1  0  0  0
  4  5  1  0  0  0
  5  6  1  0  0  0
  6  2  1  0  0  0
  2  1  1  0  0  0
  1 11  1  0  0  0
 11 12  1  0  0  0
 12 13  1  0  0  0
 13 14  2  0  0  0
 14 15  1  0  0  0
 15 16  2  0  0  0
 16 17  1  0  0  0
 16 18  1  0  0  0
 18 19  2  0  0  0
  6  7  1  0  0  0
  7  8  1  0  0  0
  8  9  1  0  0  0
  8  3  1  0  0  0
  9  3  1  0  0  0
 19 13  1  0  0  0
  9 10  1  0  0  0
M  END
> <minimizedAffinity>
3.16848

> <CNNscore>
0.5035816431

> <CNNaffinity>
5.3511643410

> <CNN_VS>
2.6947481632

> <CNNaffinity_variance>
0.2118358612

$$$$
[H]c1nc(Br)c([H])c([H])c1OC([H])([H])C([H])([H])C([H])([H])N1C([H])([H])C([H])([H])C2([H])N([H])C2([H])C1([H])[H]


 19 21  0  0  0  0  0  0  0  0999 V2000
   24.7753    7.0097   52.8715 C   0  0  0  0  0  0  0  0  0  0  0  0
   25.0829    7.1416   54.3341 C   0  0  0  0  0  0  0  0  0  0  0  0
   28.4405    9.4107   55.6608 C   0  0  0  0  0  0  0  0  0  0  0  0
   27.0495    9.7348   56.1347 C   0  0  0  0  0  0  0  0  0  0  0  0
   26.0944    8.5685   55.9888 C   0  0  0  0  0  0  0  0  0  0  0  0
   26.1302    8.0815   54.6527 N   0  0  0  0  0  0  0  0  0  0  0  0
   27.4216    7.4811   54.3931 C   0  0  0  0  0  0  0  0  0  0  0  0
   28.5754    8.3518   54.7315 C   0  0  0  0  0  0  0  0  0  0  0  0
   28.6794    9.7135   54.2752 N   0  0  0  0  0  0  0  0  0  0  0  0
   27.9440   10.1404   53.6972 H   0  0  0  0  0  0  0  0  0  0  0  0
   24.0566    8.2188   52.3202 C   0  0  0  0  0  0  0  0  0  0  0  0
   22.7711    8.2711   52.7529 O   0  0  0  0  0  0  0  0  0  0  0  0
   22.0471    8.9322   53.6629 C   0  0  0  0  0  0  0  0  0  0  0  0
   22.1944   10.2372   54.0464 C   0  0  0  0  0  0  0  0  0  0  0  0
   21.3772   10.8484   55.0137 C   0  0  0  0  0  0  0  0  0  0  0  0
   20.3763   10.1155   55.6153 C   0  0  0  0  0  0  0  0  0  0  0  0
   19.2320   10.9001   56.9390 Br  0  0  0  0  0  0  0  0  0  0  0  0
   20.2376    8.8371   55.2357 N   0  0  0  0  0  0  0  0  0  0  0  0
   21.0070    8.2370   54.3150 C   0  0  0  0  0  0  0  0  0  0  0  0
  3  4  1  0  0  0
  4  5  1  0  0  0
  5  6  1  0  0  0
  6  2  1  0  0  0
  2  1  1  0  0  0
  1 11  1  0  0  0
 11 12  1  0  0  0
 12 13  1  0  0  0
 13 14  2  0  0  0
 14 15  1  0  0  0
 15 16  2  0  0  0
 16 17  1  0  0  0
 16 18  1  0  0  0
 18 19  2  0  0  0
  6  7  1  0  0  0
  7  8  1  0  0  0
  8  9  1  0  0  0
  8  3  1  0  0  0
  9  3  1  0  0  0
 19 13  1  0  0  0
  9 10  1  0  0  0
M  END
> <minimizedAffinity>
14.88383

> <CNNscore>
0.4988600016

> <CNNaffinity>
4.8982410431

> <CNN_VS>
2.4435365200

> <CNNaffinity_variance>
0.1797527373

$$$$
[H]c1nc(Br)c([H])c([H])c1OC([H])([H])C([H])([H])C([H])([H])N1C([H])([H])C([H])([H])C2([H])N([H])C2([H])C1([H])[H]


 19 21  0  0  0  0  0  0  0  0999 V2000
   24.7951    7.7923   54.3042 C   0  0  0  0  0  0  0  0  0  0  0  0
   24.1163    6.7232   53.4994 C   0  0  0  0  0  0  0  0  0  0  0  0
   20.0045    6.8331   52.3754 C   0  0  0  0  0  0  0  0  0  0  0  0
   21.0447    7.5795   51.5846 C   0  0  0  0  0  0  0  0  0  0  0  0
   22.4428    7.0371   51.7972 C   0  0  0  0  0  0  0  0  0  0  0  0
   22.7313    6.9830   53.1890 N   0  0  0  0  0  0  0  0  0  0  0  0
   21.8937    5.9828   53.8163 C   0  0  0  0  0  0  0  0  0  0  0  0
   20.4462    6.1316   53.5225 C   0  0  0  0  0  0  0  0  0  0  0  0
   19.7473    7.3806   53.6803 N   0  0  0  0  0  0  0  0  0  0  0  0
   20.2343    8.2283   53.9988 H   0  0  0  0  0  0  0  0  0  0  0  0
   23.8710    8.4297   55.3152 C   0  0  0  0  0  0  0  0  0  0  0  0
   22.7147    8.8441   54.7375 O   0  0  0  0  0  0  0  0  0  0  0  0
   22.2751    9.8710   54.0016 C   0  0  0  0  0  0  0  0  0  0  0  0
   22.1530    9.9189   52.6397 C   0  0  0  0  0  0  0  0  0  0  0  0
   21.6740   11.0484   51.9528 C   0  0  0  0  0  0  0  0  0  0  0  0
   21.3059   12.1691   52.6664 C   0  0  0  0  0  0  0  0  0  0  0  0
   20.6444   13.7357   51.7801 Br  0  0  0  0  0  0  0  0  0  0  0  0
   21.4285   12.1160   54.0005 N   0  0  0  0  0  0  0  0  0  0  0  0
   21.8831   11.0480   54.6733 C   0  0  0  0  0  0  0  0  0  0  0  0
  3  4  1  0  0  0
  4  5  1  0  0  0
  5  6  1  0  0  0
  6  2  1  0  0  0
  2  1  1  0  0  0
  1 11  1  0  0  0
 11 12  1  0  0  0
 12 13  1  0  0  0
 13 14  2  0  0  0
 14 15  1  0  0  0
 15 16  2  0  0  0
 16 17  1  0  0  0
 16 18  1  0  0  0
 18 19  2  0  0  0
  6  7  1  0  0  0
  7  8  1  0  0  0
  8  9  1  0  0  0
  8  3  1  0  0  0
  9  3  1  0  0  0
 19 13  1  0  0  0
  9 10  1  0  0  0
M  END
> <minimizedAffinity>
8.90672

> <CNNscore>
0.4953656793

> <CNNaffinity>
5.2052903175

> <CNN_VS>
2.5785222054

> <CNNaffinity_variance>
0.1411623657

$$$$
[H]c1nc(Br)c([H])c([H])c1OC([H])([H])C([H])([H])C([H])([H])N1C([H])([H])C([H])([H])C2([H])N([H])C2([H])C1([H])[H]


 19 21  0  0  0  0  0  0  0  0999 V2000
   23.6455    9.7807   55.5918 C   0  0  0  0  0  0  0  0  0  0  0  0
   24.2780    8.5502   55.0114 C   0  0  0  0  0  0  0  0  0  0  0  0
   28.5128    8.9983   55.2309 C   0  0  0  0  0  0  0  0  0  0  0  0
   27.8777    8.1420   54.1688 C   0  0  0  0  0  0  0  0  0  0  0  0
   26.4252    8.4942   53.9236 C   0  0  0  0  0  0  0  0  0  0  0  0
   25.7120    8.4787   55.1543 N   0  0  0  0  0  0  0  0  0  0  0  0
   26.1745    9.5641   55.9931 C   0  0  0  0  0  0  0  0  0  0  0  0
   27.6478    9.6103   56.1692 C   0  0  0  0  0  0  0  0  0  0  0  0
   28.4185    8.4589   56.5609 N   0  0  0  0  0  0  0  0  0  0  0  0
   27.9708    7.5483   56.7271 H   0  0  0  0  0  0  0  0  0  0  0  0
   22.2685   10.0438   55.0284 C   0  0  0  0  0  0  0  0  0  0  0  0
   22.0078    9.2438   53.9634 O   0  0  0  0  0  0  0  0  0  0  0  0
   21.4319    8.0621   53.7160 C   0  0  0  0  0  0  0  0  0  0  0  0
   20.3552    7.8210   52.9070 C   0  0  0  0  0  0  0  0  0  0  0  0
   19.8211    6.5360   52.7051 C   0  0  0  0  0  0  0  0  0  0  0  0
   20.3942    5.4567   53.3434 C   0  0  0  0  0  0  0  0  0  0  0  0
   19.7071    3.6828   53.1018 Br  0  0  0  0  0  0  0  0  0  0  0  0
   21.4485    5.6997   54.1353 N   0  0  0  0  0  0  0  0  0  0  0  0
   21.9719    6.9178   54.3400 C   0  0  0  0  0  0  0  0  0  0  0  0
  3  4  1  0  0  0
  4  5  1  0  0  0
  5  6  1  0  0  0
  6  2  1  0  0  0
  2  1  1  0  0  0
  1 11  1  0  0  0
 11 12  1  0  0  0
 12 13  1  0  0  0
 13 14  2  0  0  0
 14 15  1  0  0  0
 15 16  2  0  0  0
 16 17  1  0  0  0
 16 18  1  0  0  0
 18 19  2  0  0  0
  6  7  1  0  0  0
  7  8  1  0  0  0
  8  9  1  0  0  0
  8  3  1  0  0  0
  9  3  1  0  0  0
 19 13  1  0  0  0
  9 10  1  0  0  0
M  END
> <minimizedAffinity>
6.46931

> <CNNscore>
0.4725376666

> <CNNaffinity>
5.1588010788

> <CNN_VS>
2.4377279282

> <CNNaffinity_variance>
0.0894706473

$$$$
[H]c1nc(Br)c([H])c([H])c1OC([H])([H])C([H])([H])C([H])([H])N1C([H])([H])C([H])([H])C2([H])N([H])C2([H])C1([H])[H]


 19 21  0  0  0  0  0  0  0  0999 V2000
   26.0466    8.0506   54.5175 C   0  0  0  0  0  0  0  0  0  0  0  0
   27.3948    8.6761   54.7229 C   0  0  0  0  0  0  0  0  0  0  0  0
   28.5756   10.6064   58.3371 C   0  0  0  0  0  0  0  0  0  0  0  0
   27.9342    9.2452   58.3587 C   0  0  0  0  0  0  0  0  0  0  0  0
   28.0523    8.5209   57.0338 C   0  0  0  0  0  0  0  0  0  0  0  0
   27.5656    9.3514   55.9865 N   0  0  0  0  0  0  0  0  0  0  0  0
   28.4503   10.4849   55.8195 C   0  0  0  0  0  0  0  0  0  0  0  0
   28.7306   11.2268   57.0744 C   0  0  0  0  0  0  0  0  0  0  0  0
   27.6874   11.6733   57.9608 N   0  0  0  0  0  0  0  0  0  0  0  0
   26.6973   11.4846   57.7577 H   0  0  0  0  0  0  0  0  0  0  0  0
   24.9462    9.0777   54.3879 C   0  0  0  0  0  0  0  0  0  0  0  0
   23.9538    8.6403   53.5716 O   0  0  0  0  0  0  0  0  0  0  0  0
   23.0006    7.7019   53.5685 C   0  0  0  0  0  0  0  0  0  0  0  0
   23.0925    6.4293   54.0624 C   0  0  0  0  0  0  0  0  0  0  0  0
   22.0284    5.5113   54.0171 C   0  0  0  0  0  0  0  0  0  0  0  0
   20.8295    5.8917   53.4525 C   0  0  0  0  0  0  0  0  0  0  0  0
   19.3456    4.6803   53.3666 Br  0  0  0  0  0  0  0  0  0  0  0  0
   20.7461    7.1397   52.9697 N   0  0  0  0  0  0  0  0  0  0  0  0
   21.7498    8.0294   53.0040 C   0  0  0  0  0  0  0  0  0  0  0  0
  3  4  1  0  0  0
  4  5  1  0  0  0
  5  6  1  0  0  0
  6  2  1  0  0  0
  2  1  1  0  0  0
  1 11  1  0  0  0
 11 12  1  0  0  0
 12 13  1  0  0  0
 13 14  2  0  0  0
 14 15  1  0  0  0
 15 16  2  0  0  0
 16 17  1  0  0  0
 16 18  1  0  0  0
 18 19  2  0  0  0
  6  7  1  0  0  0
  7  8  1  0  0  0
  8  9  1  0  0  0
  8  3  1  0  0  0
  9  3  1  0  0  0
 19 13  1  0  0  0
  9 10  1  0  0  0
M  END
> <minimizedAffinity>
9.32321

> <CNNscore>
0.4662965536

> <CNNaffinity>
5.0808315277

> <CNN_VS>
2.3691742420

> <CNNaffinity_variance>
0.2240090072

$$$$
[H]c1nc(Br)c([H])c([H])c1OC([H])([H])C([H])([H])C([H])([H])N1C([H])([H])C([H])([H])C2([H])N([H])C2([H])C1([H])[H]


 19 21  0  0  0  0  0  0  0  0999 V2000
   26.8547    8.9132   52.2834 C   0  0  0  0  0  0  0  0  0  0  0  0
   28.1678    9.0562   51.5716 C   0  0  0  0  0  0  0  0  0  0  0  0
   28.5585   10.0844   47.4518 C   0  0  0  0  0  0  0  0  0  0  0  0
   28.1976   11.1229   48.4794 C   0  0  0  0  0  0  0  0  0  0  0  0
   28.5948   10.7196   49.8842 C   0  0  0  0  0  0  0  0  0  0  0  0
   28.0683    9.4322   50.1821 N   0  0  0  0  0  0  0  0  0  0  0  0
   28.7264    8.4400   49.3587 C   0  0  0  0  0  0  0  0  0  0  0  0
   28.7217    8.7545   47.9080 C   0  0  0  0  0  0  0  0  0  0  0  0
   27.5234    9.1187   47.1974 N   0  0  0  0  0  0  0  0  0  0  0  0
   26.6166    9.1828   47.6778 H   0  0  0  0  0  0  0  0  0  0  0  0
   27.0166    8.4199   53.7022 C   0  0  0  0  0  0  0  0  0  0  0  0
   25.9482    7.6802   54.0944 O   0  0  0  0  0  0  0  0  0  0  0  0
   24.6196    7.6794   53.9390 C   0  0  0  0  0  0  0  0  0  0  0  0
   23.7422    8.6561   54.3237 C   0  0  0  0  0  0  0  0  0  0  0  0
   22.3551    8.5664   54.1121 C   0  0  0  0  0  0  0  0  0  0  0  0
   21.8357    7.4508   53.4906 C   0  0  0  0  0  0  0  0  0  0  0  0
   19.9521    7.2782   53.1754 Br  0  0  0  0  0  0  0  0  0  0  0  0
   22.7006    6.4970   53.1166 N   0  0  0  0  0  0  0  0  0  0  0  0
   24.0265    6.5646   53.3097 C   0  0  0  0  0  0  0  0  0  0  0  0
  3  4  1  0  0  0
  4  5  1  0  0  0
  5  6  1  0  0  0
  6  2  1  0  0  0
  2  1  1  0  0  0
  1 11  1  0  0  0
 11 12  1  0  0  0
 12 13  1  0  0  0
 13 14  2  0  0  0
 14 15  1  0  0  0
 15 16  2  0  0  0
 16 17  1  0  0  0
 16 18  1  0  0  0
 18 19  2  0  0  0
  6  7  1  0  0  0
  7  8  1  0  0  0
  8  9  1  0  0  0
  8  3  1  0  0  0
  9  3  1  0  0  0
 19 13  1  0  0  0
  9 10  1  0  0  0
M  END
> <minimizedAffinity>
11.92645

> <CNNscore>
0.4657969773

> <CNNaffinity>
5.1746416092

> <CNN_VS>
2.4103324413

> <CNNaffinity_variance>
0.0442942232

$$$$
[H]c1nc(Br)c([H])c([H])c1OC([H])([H])C([H])([H])C([H])([H])N1C([H])([H])C([H])([H])C2([H])N([H])C2([H])C1([H])[H]


 19 21  0  0  0  0  0  0  0  0999 V2000
   25.2190    7.8668   52.9915 C   0  0  0  0  0  0  0  0  0  0  0  0
   24.3690    6.6391   53.1377 C   0  0  0  0  0  0  0  0  0  0  0  0
   20.2513    7.6167   52.6170 C   0  0  0  0  0  0  0  0  0  0  0  0
   20.6679    6.2704   53.1448 C   0  0  0  0  0  0  0  0  0  0  0  0
   22.0640    6.2780   53.7320 C   0  0  0  0  0  0  0  0  0  0  0  0
   22.9807    6.8155   52.7865 N   0  0  0  0  0  0  0  0  0  0  0  0
   22.7010    8.2222   52.5900 C   0  0  0  0  0  0  0  0  0  0  0  0
   21.2830    8.5203   52.2674 C   0  0  0  0  0  0  0  0  0  0  0  0
   20.5623    7.8304   51.2291 N   0  0  0  0  0  0  0  0  0  0  0  0
   21.0079    7.0904   50.6713 H   0  0  0  0  0  0  0  0  0  0  0  0
   25.9471    8.2215   54.2669 C   0  0  0  0  0  0  0  0  0  0  0  0
   25.0792    8.5445   55.2593 O   0  0  0  0  0  0  0  0  0  0  0  0
   23.8447    9.0436   55.3867 C   0  0  0  0  0  0  0  0  0  0  0  0
   23.4298   10.3103   55.0784 C   0  0  0  0  0  0  0  0  0  0  0  0
   22.1022   10.7432   55.2437 C   0  0  0  0  0  0  0  0  0  0  0  0
   21.1607    9.8660   55.7384 C   0  0  0  0  0  0  0  0  0  0  0  0
   19.3362   10.4035   55.9816 Br  0  0  0  0  0  0  0  0  0  0  0  0
   21.5737    8.6264   56.0392 N   0  0  0  0  0  0  0  0  0  0  0  0
   22.8352    8.1952   55.8883 C   0  0  0  0  0  0  0  0  0  0  0  0
  3  4  1  0  0  0
  4  5  1  0  0  0
  5  6  1  0  0  0
  6  2  1  0  0  0
  2  1  1  0  0  0
  1 11  1  0  0  0
 11 12  1  0  0  0
 12 13  1  0  0  0
 13 14  2  0  0  0
 14 15  1  0  0  0
 15 16  2  0  0  0
 16 17  1  0  0  0
 16 18  1  0  0  0
 18 19  2  0  0  0
  6  7  1  0  0  0
  7  8  1  0  0  0
  8  9  1  0  0  0
  8  3  1  0  0  0
  9  3  1  0  0  0
 19 13  1  0  0  0
  9 10  1  0  0  0
M  END
> <minimizedAffinity>
8.00322

> <CNNscore>
0.4605893493

> <CNNaffinity>
5.6796936989

> <CNN_VS>
2.6160063744

> <CNNaffinity_variance>
0.3532806337

$$$$
[H]OC([H])([H])C1([H])C([H])([H])C([H])([H])[C@@]2([H])[C@@]([H])(O[H])C([H])([H])[C@]([H])(O[H])[N+]12C([H])([H])O[H]


 18 19  0  0  0  0  0  0  0  0999 V2000
   23.1402    7.6488   53.0859 C   0  0  0  0  0  0  0  0  0  0  0  0
   24.0924    6.6826   53.3571 O   0  0  0  0  0  0  0  0  0  0  0  0
   22.2072    7.8395   54.1535 N   0  0  0  0  0  0  0  0  0  0  0  0
   22.6036    8.7861   55.1397 C   0  0  0  0  0  0  0  0  0  0  0  0
   21.8373   10.0633   54.9034 C   0  0  0  0  0  0  0  0  0  0  0  0
   21.3706    9.8658   53.4598 C   0  0  0  0  0  0  0  0  0  0  0  0
   21.0282    8.3736   53.5035 C   0  0  0  0  0  0  0  0  0  0  0  0
   20.9329    7.7745   52.1483 C   0  0  0  0  0  0  0  0  0  0  0  0
   20.6827    8.7786   51.2167 O   0  0  0  0  0  0  0  0  0  0  0  0
   22.2655    7.1196   51.9533 C   0  0  0  0  0  0  0  0  0  0  0  0
   24.0589    5.9115   52.7331 H   0  0  0  0  0  0  0  0  0  0  0  0
   21.5405    9.1020   50.8646 H   0  0  0  0  0  0  0  0  0  0  0  0
   21.9486    6.5512   54.7768 C   0  0  0  0  0  0  0  0  0  0  0  0
   21.9098    6.6657   56.1705 O   0  0  0  0  0  0  0  0  0  0  0  0
   22.7716    6.3805   56.5482 H   0  0  0  0  0  0  0  0  0  0  0  0
   24.0813    9.0052   55.2439 C   0  0  0  0  0  0  0  0  0  0  0  0
   24.2816   10.1535   56.0243 O   0  0  0  0  0  0  0  0  0  0  0  0
   23.4515   10.5011   56.4032 H   0  0  0  0  0  0  0  0  0  0  0  0
  1  2  1  0  0  0
  1  3  1  0  0  0
  3 13  1  0  0  0
 13 14  1  0  0  0
  3  4  1  0  0  0
  4 16  1  0  0  0
 16 17  1  0  0  0
  4  5  1  0  0  0
  5  6  1  0  0  0
  6  7  1  0  0  0
  7  8  1  0  0  0
  8  9  1  0  0  0
  8 10  1  0  0  0
 10  1  1  0  0  0
  7  3  1  0  0  0
  2 11  1  0  0  0
 14 15  1  0  0  0
 17 18  1  0  0  0
  9 12  1  0  0  0
M  CHG 1   3   1
M  END
> <minimizedAffinity>
-4.44802

> <CNNscore>
0.5210364461

> <CNNaffinity>
4.9471063614

> <CNN_VS>
2.5776226521

> <CNNaffinity_variance>
0.6804786325

$$$$
[H]OC([H])([H])C1([H])C([H])([H])C([H])([H])[C@@]2([H])[C@@]([H])(O[H])C([H])([H])[C@]([H])(O[H])[N+]12C([H])([H])O[H]


 18 19  0  0  0  0  0  0  0  0999 V2000
   22.3563    7.4494   55.2258 C   0  0  0  0  0  0  0  0  0  0  0  0
   21.6364    7.1529   56.3693 O   0  0  0  0  0  0  0  0  0  0  0  0
   21.5307    7.8113   54.1150 N   0  0  0  0  0  0  0  0  0  0  0  0
   21.2033    9.1940   54.0315 C   0  0  0  0  0  0  0  0  0  0  0  0
   22.0622    9.8188   52.9609 C   0  0  0  0  0  0  0  0  0  0  0  0
   23.1722    8.7747   52.8250 C   0  0  0  0  0  0  0  0  0  0  0  0
   22.3385    7.4965   52.9548 C   0  0  0  0  0  0  0  0  0  0  0  0
   23.1694    6.3085   53.2753 C   0  0  0  0  0  0  0  0  0  0  0  0
   24.4853    6.5479   52.8881 O   0  0  0  0  0  0  0  0  0  0  0  0
   23.0181    6.1568   54.7575 C   0  0  0  0  0  0  0  0  0  0  0  0
   21.7573    6.2176   56.6786 H   0  0  0  0  0  0  0  0  0  0  0  0
   24.9740    6.9260   53.6514 H   0  0  0  0  0  0  0  0  0  0  0  0
   20.3148    7.0148   54.1641 C   0  0  0  0  0  0  0  0  0  0  0  0
   19.9480    6.5781   52.8867 O   0  0  0  0  0  0  0  0  0  0  0  0
   19.2399    7.1600   52.5308 H   0  0  0  0  0  0  0  0  0  0  0  0
   21.2635    9.9347   55.3315 C   0  0  0  0  0  0  0  0  0  0  0  0
   22.6168   10.0757   55.6724 O   0  0  0  0  0  0  0  0  0  0  0  0
   23.2172    9.7597   54.9701 H   0  0  0  0  0  0  0  0  0  0  0  0
  1  2  1  0  0  0
  1  3  1  0  0  0
  3 13  1  0  0  0
 13 14  1  0  0  0
  3  4  1  0  0  0
  4 16  1  0  0  0
 16 17  1  0  0  0
  4  5  1  0  0  0
  5  6  1  0  0  0
  6  7  1  0  0  0
  7  8  1  0  0  0
  8  9  1  0  0  0
  8 10  1  0  0  0
 10  1  1  0  0  0
  7  3  1  0  0  0
  2 11  1  0  0  0
 14 15  1  0  0  0
 17 18  1  0  0  0
  9 12  1  0  0  0
M  CHG 1   3   1
M  END
> <minimizedAffinity>
-5.14535

> <CNNscore>
0.4754166305

> <CNNaffinity>
4.7837805748

> <CNN_VS>
2.2742888927

> <CNNaffinity_variance>
0.6507827640

$$$$
[H]OC([H])([H])C1([H])C([H])([H])C([H])([H])[C@@]2([H])[C@@]([H])(O[H])C([H])([H])[C@]([H])(O[H])[N+]12C([H])([H])O[H]


 18 19  0  0  0  0  0  0  0  0999 V2000
   20.8751    7.8087   54.0267 C   0  0  0  0  0  0  0  0  0  0  0  0
   20.1670    8.1328   55.1701 O   0  0  0  0  0  0  0  0  0  0  0  0
   22.1872    8.3776   53.9931 N   0  0  0  0  0  0  0  0  0  0  0  0
   23.2018    7.5916   54.6083 C   0  0  0  0  0  0  0  0  0  0  0  0
   24.0033    6.9203   53.5215 C   0  0  0  0  0  0  0  0  0  0  0  0
   23.0488    7.0415   52.3319 C   0  0  0  0  0  0  0  0  0  0  0  0
   22.5060    8.4516   52.5821 C   0  0  0  0  0  0  0  0  0  0  0  0
   21.2503    8.7160   51.8351 C   0  0  0  0  0  0  0  0  0  0  0  0
   21.1660    7.8451   50.7520 O   0  0  0  0  0  0  0  0  0  0  0  0
   20.1752    8.4850   52.8517 C   0  0  0  0  0  0  0  0  0  0  0  0
   19.3412    8.6522   54.9873 H   0  0  0  0  0  0  0  0  0  0  0  0
   20.6712    7.0437   51.0304 H   0  0  0  0  0  0  0  0  0  0  0  0
   22.1361    9.6939   54.6094 C   0  0  0  0  0  0  0  0  0  0  0  0
   22.8310    9.7080   55.8234 O   0  0  0  0  0  0  0  0  0  0  0  0
   22.1944    9.6234   56.5679 H   0  0  0  0  0  0  0  0  0  0  0  0
   22.7110    6.6309   55.6468 C   0  0  0  0  0  0  0  0  0  0  0  0
   23.5152    5.4842   55.5718 O   0  0  0  0  0  0  0  0  0  0  0  0
   24.2601    5.5864   54.9486 H   0  0  0  0  0  0  0  0  0  0  0  0
  1  2  1  0  0  0
  1  3  1  0  0  0
  3 13  1  0  0  0
 13 14  1  0  0  0
  3  4  1  0  0  0
  4 16  1  0  0  0
 16 17  1  0  0  0
  4  5  1  0  0  0
  5  6  1  0  0  0
  6  7  1  0  0  0
  7  8  1  0  0  0
  8  9  1  0  0  0
  8 10  1  0  0  0
 10  1  1  0  0  0
  7  3  1  0  0  0
  2 11  1  0  0  0
 14 15  1  0  0  0
 17 18  1  0  0  0
  9 12  1  0  0  0
M  CHG 1   3   1
M  END
> <minimizedAffinity>
-4.14144

> <CNNscore>
0.4727177620

> <CNNaffinity>
4.7438282967

> <CNN_VS>
2.2424919605

> <CNNaffinity_variance>
0.5717767477

$$$$
[H]OC([H])([H])C1([H])C([H])([H])C([H])([H])[C@@]2([H])[C@@]([H])(O[H])C([H])([H])[C@]([H])(O[H])[N+]12C([H])([H])O[H]


 18 19  0  0  0  0  0  0  0  0999 V2000
   21.4618    7.4908   54.1697 C   0  0  0  0  0  0  0  0  0  0  0  0
   21.4069    6.1528   53.8227 O   0  0  0  0  0  0  0  0  0  0  0  0
   22.3754    8.2463   53.3690 N   0  0  0  0  0  0  0  0  0  0  0  0
   21.8268    8.7814   52.1696 C   0  0  0  0  0  0  0  0  0  0  0  0
   21.5704   10.2522   52.3826 C   0  0  0  0  0  0  0  0  0  0  0  0
   21.5872   10.3374   53.9102 C   0  0  0  0  0  0  0  0  0  0  0  0
   22.7369    9.3704   54.2077 C   0  0  0  0  0  0  0  0  0  0  0  0
   22.7416    8.9137   55.6205 C   0  0  0  0  0  0  0  0  0  0  0  0
   22.0463    9.8309   56.4041 O   0  0  0  0  0  0  0  0  0  0  0  0
   22.0749    7.5739   55.5644 C   0  0  0  0  0  0  0  0  0  0  0  0
   21.6938    5.5451   54.5531 H   0  0  0  0  0  0  0  0  0  0  0  0
   21.1070    9.5496   56.4589 H   0  0  0  0  0  0  0  0  0  0  0  0
   23.5221    7.4068   53.0597 C   0  0  0  0  0  0  0  0  0  0  0  0
   24.6961    8.1645   52.9921 O   0  0  0  0  0  0  0  0  0  0  0  0
   24.9121    8.3534   52.0517 H   0  0  0  0  0  0  0  0  0  0  0  0
   20.6287    8.0521   51.6452 C   0  0  0  0  0  0  0  0  0  0  0  0
   20.9151    7.6670   50.3272 O   0  0  0  0  0  0  0  0  0  0  0  0
   21.8366    7.8617   50.0695 H   0  0  0  0  0  0  0  0  0  0  0  0
  1  2  1  0  0  0
  1  3  1  0  0  0
  3 13  1  0  0  0
 13 14  1  0  0  0
  3  4  1  0  0  0
  4 16  1  0  0  0
 16 17  1  0  0  0
  4  5  1  0  0  0
  5  6  1  0  0  0
  6  7  1  0  0  0
  7  8  1  0  0  0
  8  9  1  0  0  0
  8 10  1  0  0  0
 10  1  1  0  0  0
  7  3  1  0  0  0
  2 11  1  0  0  0
 14 15  1  0  0  0
 17 18  1  0  0  0
  9 12  1  0  0  0
M  CHG 1   3   1
M  END
> <minimizedAffinity>
-5.05969

> <CNNscore>
0.4655269682

> <CNNaffinity>
4.7481207848

> <CNN_VS>
2.2103781700

> <CNNaffinity_variance>
0.4289622903

$$$$
[H]OC([H])([H])C1([H])C([H])([H])C([H])([H])[C@@]2([H])[C@@]([H])(O[H])C([H])([H])[C@]([H])(O[H])[N+]12C([H])([H])O[H]


 18 19  0  0  0  0  0  0  0  0999 V2000
   22.0708    8.6928   52.6145 C   0  0  0  0  0  0  0  0  0  0  0  0
   21.7366    8.4499   51.2942 O   0  0  0  0  0  0  0  0  0  0  0  0
   21.4923    7.7548   53.5266 N   0  0  0  0  0  0  0  0  0  0  0  0
   22.2620    6.5791   53.7525 C   0  0  0  0  0  0  0  0  0  0  0  0
   22.9418    6.7097   55.0923 C   0  0  0  0  0  0  0  0  0  0  0  0
   22.8441    8.2183   55.3280 C   0  0  0  0  0  0  0  0  0  0  0  0
   21.4350    8.4715   54.7840 C   0  0  0  0  0  0  0  0  0  0  0  0
   21.1906    9.9064   54.4905 C   0  0  0  0  0  0  0  0  0  0  0  0
   22.0767   10.6857   55.2294 O   0  0  0  0  0  0  0  0  0  0  0  0
   21.4159   10.0117   53.0138 C   0  0  0  0  0  0  0  0  0  0  0  0
   21.2262    9.1907   50.8751 H   0  0  0  0  0  0  0  0  0  0  0  0
   22.8780   10.8516   54.6864 H   0  0  0  0  0  0  0  0  0  0  0  0
   20.1681    7.3968   53.0434 C   0  0  0  0  0  0  0  0  0  0  0  0
   19.9458    6.0205   53.1592 O   0  0  0  0  0  0  0  0  0  0  0  0
   20.0934    5.5889   52.2882 H   0  0  0  0  0  0  0  0  0  0  0  0
   23.2122    6.2273   52.6499 C   0  0  0  0  0  0  0  0  0  0  0  0
   24.5115    6.3158   53.1709 O   0  0  0  0  0  0  0  0  0  0  0  0
   24.5211    6.4866   54.1323 H   0  0  0  0  0  0  0  0  0  0  0  0
  1  2  1  0  0  0
  1  3  1  0  0  0
  3 13  1  0  0  0
 13 14  1  0  0  0
  3  4  1  0  0  0
  4 16  1  0  0  0
 16 17  1  0  0  0
  4  5  1  0  0  0
  5  6  1  0  0  0
  6  7  1  0  0  0
  7  8  1  0  0  0
  8  9  1  0  0  0
  8 10  1  0  0  0
 10  1  1  0  0  0
  7  3  1  0  0  0
  2 11  1  0  0  0
 14 15  1  0  0  0
 17 18  1  0  0  0
  9 12  1  0  0  0
M  CHG 1   3   1
M  END
> <minimizedAffinity>
-5.22983

> <CNNscore>
0.4510113299

> <CNNaffinity>
4.8484067917

> <CNN_VS>
2.1866862774

> <CNNaffinity_variance>
1.1475062370

$$$$
[H]OC([H])([H])C1([H])C([H])([H])C([H])([H])[C@@]2([H])[C@@]([H])(O[H])C([H])([H])[C@]([H])(O[H])[N+]12C([H])([H])O[H]


 18 19  0  0  0  0  0  0  0  0999 V2000
   21.7880    8.4338   54.7532 C   0  0  0  0  0  0  0  0  0  0  0  0
   21.7670    9.6495   55.4130 O   0  0  0  0  0  0  0  0  0  0  0  0
   22.4612    8.4857   53.4920 N   0  0  0  0  0  0  0  0  0  0  0  0
   23.8651    8.2580   53.5474 C   0  0  0  0  0  0  0  0  0  0  0  0
   24.1346    6.8520   53.0733 C   0  0  0  0  0  0  0  0  0  0  0  0
   22.7477    6.2213   53.2137 C   0  0  0  0  0  0  0  0  0  0  0  0
   21.8844    7.3929   52.7365 C   0  0  0  0  0  0  0  0  0  0  0  0
   20.4623    7.2492   53.1387 C   0  0  0  0  0  0  0  0  0  0  0  0
   20.1868    5.9074   53.3881 O   0  0  0  0  0  0  0  0  0  0  0  0
   20.3503    8.1031   54.3639 C   0  0  0  0  0  0  0  0  0  0  0  0
   20.8507   10.0022   55.5584 H   0  0  0  0  0  0  0  0  0  0  0  0
   20.3332    5.7283   54.3426 H   0  0  0  0  0  0  0  0  0  0  0  0
   22.1908    9.7754   52.8766 C   0  0  0  0  0  0  0  0  0  0  0  0
   21.4854    9.6225   51.6782 O   0  0  0  0  0  0  0  0  0  0  0  0
   22.1079    9.6857   50.9197 H   0  0  0  0  0  0  0  0  0  0  0  0
   24.4997    8.5575   54.8702 C   0  0  0  0  0  0  0  0  0  0  0  0
   25.8739    8.3067   54.7432 O   0  0  0  0  0  0  0  0  0  0  0  0
   26.1346    8.0911   53.8271 H   0  0  0  0  0  0  0  0  0  0  0  0
  1  2  1  0  0  0
  1  3  1  0  0  0
  3 13  1  0  0  0
 13 14  1  0  0  0
  3  4  1  0  0  0
  4 16  1  0  0  0
 16 17  1  0  0  0
  4  5  1  0  0  0
  5  6  1  0  0  0
  6  7  1  0  0  0
  7  8  1  0  0  0
  8  9  1  0  0  0
  8 10  1  0  0  0
 10  1  1  0  0  0
  7  3  1  0  0  0
  2 11  1  0  0  0
 14 15  1  0  0  0
 17 18  1  0  0  0
  9 12  1  0  0  0
M  CHG 1   3   1
M  END
> <minimizedAffinity>
-4.34043

> <CNNscore>
0.4129644334

> <CNNaffinity>
4.6039590836

> <CNN_VS>
1.9012713432

> <CNNaffinity_variance>
0.9618406296

$$$$
[H]OC([H])([H])C1([H])C([H])([H])C([H])([H])[C@@]2([H])[C@@]([H])(O[H])C([H])([H])[C@]([H])(O[H])[N+]12C([H])([H])O[H]


 18 19  0  0  0  0  0  0  0  0999 V2000
   22.4590    8.2050   52.9864 C   0  0  0  0  0  0  0  0  0  0  0  0
   22.3933    7.1687   52.0724 O   0  0  0  0  0  0  0  0  0  0  0  0
   22.8264    7.7777   54.3013 N   0  0  0  0  0  0  0  0  0  0  0  0
   24.2268    7.7293   54.5509 C   0  0  0  0  0  0  0  0  0  0  0  0
   24.6017    8.9352   55.3752 C   0  0  0  0  0  0  0  0  0  0  0  0
   23.3931    9.8430   55.1383 C   0  0  0  0  0  0  0  0  0  0  0  0
   22.2760    8.7958   55.1721 C   0  0  0  0  0  0  0  0  0  0  0  0
   21.0148    9.2933   54.5667 C   0  0  0  0  0  0  0  0  0  0  0  0
   21.0113   10.6855   54.5868 O   0  0  0  0  0  0  0  0  0  0  0  0
   21.0401    8.7321   53.1785 C   0  0  0  0  0  0  0  0  0  0  0  0
   21.4871    7.0393   51.6890 H   0  0  0  0  0  0  0  0  0  0  0  0
   21.3870   11.0134   53.7407 H   0  0  0  0  0  0  0  0  0  0  0  0
   22.2324    6.4729   54.5460 C   0  0  0  0  0  0  0  0  0  0  0  0
   22.2037    6.1822   55.9141 O   0  0  0  0  0  0  0  0  0  0  0  0
   22.9560    5.5911   56.1407 H   0  0  0  0  0  0  0  0  0  0  0  0
   25.0788    7.5717   53.3297 C   0  0  0  0  0  0  0  0  0  0  0  0
   26.3592    8.0490   53.6464 O   0  0  0  0  0  0  0  0  0  0  0  0
   26.4508    8.2848   54.5896 H   0  0  0  0  0  0  0  0  0  0  0  0
  1  2  1  0  0  0
  1  3  1  0  0  0
  3 13  1  0  0  0
 13 14  1  0  0  0
  3  4  1  0  0  0
  4 16  1  0  0  0
 16 17  1  0  0  0
  4  5  1  0  0  0
  5  6  1  0  0  0
  6  7  1  0  0  0
  7  8  1  0  0  0
  8  9  1  0  0  0
  8 10  1  0  0  0
 10  1  1  0  0  0
  7  3  1  0  0  0
  2 11  1  0  0  0
 14 15  1  0  0  0
 17 18  1  0  0  0
  9 12  1  0  0  0
M  CHG 1   3   1
M  END
> <minimizedAffinity>
-3.87922

> <CNNscore>
0.4049050212

> <CNNaffinity>
4.3791055679

> <CNN_VS>
1.7731218338

> <CNNaffinity_variance>
0.8991651535

$$$$
[H]OC([H])([H])C1([H])C([H])([H])C([H])([H])[C@@]2([H])[C@@]([H])(O[H])C([H])([H])[C@]([H])(O[H])[N+]12C([H])([H])O[H]


 18 19  0  0  0  0  0  0  0  0999 V2000
   23.1001    7.5111   53.8756 C   0  0  0  0  0  0  0  0  0  0  0  0
   23.8402    6.8039   52.9451 O   0  0  0  0  0  0  0  0  0  0  0  0
   21.9652    8.1739   53.3107 N   0  0  0  0  0  0  0  0  0  0  0  0
   20.7775    7.3918   53.2506 C   0  0  0  0  0  0  0  0  0  0  0  0
   19.8618    7.8372   54.3629 C   0  0  0  0  0  0  0  0  0  0  0  0
   20.8432    8.5724   55.2778 C   0  0  0  0  0  0  0  0  0  0  0  0
   21.7047    9.2700   54.2210 C   0  0  0  0  0  0  0  0  0  0  0  0
   23.0032    9.7385   54.7680 C   0  0  0  0  0  0  0  0  0  0  0  0
   22.8986    9.8773   56.1495 O   0  0  0  0  0  0  0  0  0  0  0  0
   23.9682    8.6674   54.3628 C   0  0  0  0  0  0  0  0  0  0  0  0
   24.7707    7.1354   52.8486 H   0  0  0  0  0  0  0  0  0  0  0  0
   23.1791    9.0364   56.5723 H   0  0  0  0  0  0  0  0  0  0  0  0
   22.3189    8.6435   51.9805 C   0  0  0  0  0  0  0  0  0  0  0  0
   21.2187    8.5871   51.1183 O   0  0  0  0  0  0  0  0  0  0  0  0
   21.2772    7.7781   50.5626 H   0  0  0  0  0  0  0  0  0  0  0  0
   20.9990    5.9109   53.2373 C   0  0  0  0  0  0  0  0  0  0  0  0
   19.7380    5.2972   53.2661 O   0  0  0  0  0  0  0  0  0  0  0  0
   19.0052    5.9385   53.1930 H   0  0  0  0  0  0  0  0  0  0  0  0
  1  2  1  0  0  0
  1  3  1  0  0  0
  3 13  1  0  0  0
 13 14  1  0  0  0
  3  4  1  0  0  0
  4 16  1  0  0  0
 16 17  1  0  0  0
  4  5  1  0  0  0
  5  6  1  0  0  0
  6  7  1  0  0  0
  7  8  1  0  0  0
  8  9  1  0  0  0
  8 10  1  0  0  0
 10  1  1  0  0  0
  7  3  1  0  0  0
  2 11  1  0  0  0
 14 15  1  0  0  0
 17 18  1  0  0  0
  9 12  1  0  0  0
M  CHG 1   3   1
M  END
> <minimizedAffinity>
-1.85831

> <CNNscore>
0.4027436376

> <CNNaffinity>
4.6185302734

> <CNN_VS>
1.8600836992

> <CNNaffinity_variance>
0.8005462885

$$$$
[H]OC([H])([H])C1([H])C([H])([H])C([H])([H])[C@@]2([H])[C@@]([H])(O[H])C([H])([H])[C@]([H])(O[H])[N+]12C([H])([H])O[H]


 18 19  0  0  0  0  0  0  0  0999 V2000
   22.3898    8.1531   52.6478 C   0  0  0  0  0  0  0  0  0  0  0  0
   22.4253    7.0249   51.8480 O   0  0  0  0  0  0  0  0  0  0  0  0
   21.5857    7.9910   53.8198 N   0  0  0  0  0  0  0  0  0  0  0  0
   22.2652    7.4517   54.9482 C   0  0  0  0  0  0  0  0  0  0  0  0
   22.5571    8.5786   55.9069 C   0  0  0  0  0  0  0  0  0  0  0  0
   22.3997    9.7943   54.9914 C   0  0  0  0  0  0  0  0  0  0  0  0
   21.1905    9.3401   54.1685 C   0  0  0  0  0  0  0  0  0  0  0  0
   21.0350   10.1181   52.9135 C   0  0  0  0  0  0  0  0  0  0  0  0
   21.6883   11.3406   53.0447 O   0  0  0  0  0  0  0  0  0  0  0  0
   21.6516    9.2385   51.8700 C   0  0  0  0  0  0  0  0  0  0  0  0
   22.0476    7.1730   50.9422 H   0  0  0  0  0  0  0  0  0  0  0  0
   22.6068   11.2441   52.7105 H   0  0  0  0  0  0  0  0  0  0  0  0
   20.4416    7.1583   53.4838 C   0  0  0  0  0  0  0  0  0  0  0  0
   20.7906    5.8036   53.4769 O   0  0  0  0  0  0  0  0  0  0  0  0
   20.9450    5.5084   52.5519 H   0  0  0  0  0  0  0  0  0  0  0  0
   23.4783    6.6365   54.6220 C   0  0  0  0  0  0  0  0  0  0  0  0
   23.4399    5.4868   55.4246 O   0  0  0  0  0  0  0  0  0  0  0  0
   22.6126    5.4131   55.9381 H   0  0  0  0  0  0  0  0  0  0  0  0
  1  2  1  0  0  0
  1  3  1  0  0  0
  3 13  1  0  0  0
 13 14  1  0  0  0
  3  4  1  0  0  0
  4 16  1  0  0  0
 16 17  1  0  0  0
  4  5  1  0  0  0
  5  6  1  0  0  0
  6  7  1  0  0  0
  7  8  1  0  0  0
  8  9  1  0  0  0
  8 10  1  0  0  0
 10  1  1  0  0  0
  7  3  1  0  0  0
  2 11  1  0  0  0
 14 15  1  0  0  0
 17 18  1  0  0  0
  9 12  1  0  0  0
M  CHG 1   3   1
M  END
> <minimizedAffinity>
-3.81458

> <CNNscore>
0.3930301368

> <CNNaffinity>
4.5344662666

> <CNN_VS>
1.7821818590

> <CNNaffinity_variance>
0.6589746475

$$$$
[H]c1nc(N([H])c2c([H])c([H])c(C(F)(F)F)c([H])c2OC([H])(C([H])([H])[H])C([H])([H])[H])nc(N([H])c2c([H])c([H])c([H])c([H])c2S(=O)(=O)C([H])(C([H])([H])[H])C([H])([H])[H])c1Cl


 37 39  0  0  0  0  0  0  0  0999 V2000
   27.7243    9.4726   52.2193 C   0  0  0  0  0  0  0  0  0  0  0  0
   28.3493    9.0588   53.3135 N   0  0  0  0  0  0  0  0  0  0  0  0
   27.7702    8.2889   54.2474 C   0  0  0  0  0  0  0  0  0  0  0  0
   26.4624    7.8725   54.1166 C   0  0  0  0  0  0  0  0  0  0  0  0
   25.6845    6.8688   55.3102 Cl  0  0  0  0  0  0  0  0  0  0  0  0
   25.7790    8.2900   52.9715 C   0  0  0  0  0  0  0  0  0  0  0  0
   26.4141    9.0478   52.1035 N   0  0  0  0  0  0  0  0  0  0  0  0
   28.2529   10.1689   51.1181 N   0  0  0  0  0  0  0  0  0  0  0  0
   28.4926   11.2129   51.2652 H   0  0  0  0  0  0  0  0  0  0  0  0
   28.2677   10.5116   48.7137 C   0  0  0  0  0  0  0  0  0  0  0  0
   28.3444    9.9560   47.4689 C   0  0  0  0  0  0  0  0  0  0  0  0
   28.6363    8.6371   47.1915 C   0  0  0  0  0  0  0  0  0  0  0  0
   28.8664    7.8371   48.2899 C   0  0  0  0  0  0  0  0  0  0  0  0
   28.7964    8.3539   49.5754 C   0  0  0  0  0  0  0  0  0  0  0  0
   28.5042    9.6576   49.8391 C   0  0  0  0  0  0  0  0  0  0  0  0
   28.6821    8.0911   45.7953 C   0  0  0  0  0  0  0  0  0  0  0  0
   29.5174    8.9739   45.0892 F   0  0  0  0  0  0  0  0  0  0  0  0
   29.1241    6.7998   45.7340 F   0  0  0  0  0  0  0  0  0  0  0  0
   27.4360    8.2451   45.2095 F   0  0  0  0  0  0  0  0  0  0  0  0
   27.9996   11.7934   49.0236 O   0  0  0  0  0  0  0  0  0  0  0  0
   26.4854   13.4749   48.1620 C   0  0  0  0  0  0  0  0  0  0  0  0
   27.9703   12.9947   48.3777 C   0  0  0  0  0  0  0  0  0  0  0  0
   28.6111   12.9975   47.0233 C   0  0  0  0  0  0  0  0  0  0  0  0
   24.4784    7.7632   52.7411 N   0  0  0  0  0  0  0  0  0  0  0  0
   24.0990    7.8953   51.7741 H   0  0  0  0  0  0  0  0  0  0  0  0
   23.6555    7.0957   53.6666 C   0  0  0  0  0  0  0  0  0  0  0  0
   24.0761    6.0978   54.5434 C   0  0  0  0  0  0  0  0  0  0  0  0
   23.2372    5.4745   55.4449 C   0  0  0  0  0  0  0  0  0  0  0  0
   21.9186    5.8530   55.4819 C   0  0  0  0  0  0  0  0  0  0  0  0
   21.4746    6.8547   54.6031 C   0  0  0  0  0  0  0  0  0  0  0  0
   22.3125    7.4626   53.7194 C   0  0  0  0  0  0  0  0  0  0  0  0
   21.6854    8.7083   52.6679 S   0  0  0  0  0  0  0  0  0  0  0  0
   20.4053    8.2178   51.9885 O   0  0  0  0  0  0  0  0  0  0  0  0
   22.6490    9.0916   51.6089 O   0  0  0  0  0  0  0  0  0  0  0  0
   21.2133   10.1793   53.5576 C   0  0  0  0  0  0  0  0  0  0  0  0
   21.7377   11.3997   52.8613 C   0  0  0  0  0  0  0  0  0  0  0  0
   21.9870   10.1308   54.9034 C   0  0  0  0  0  0  0  0  0  0  0  0
 21 22  1  0  0  0
 22 23  1  0  0  0
 22 20  1  0  0  0
 20 10  1  0  0  0
 10 11  2  0  0  0
 11 12  1  0  0  0
 12 13  2  0  0  0
 13 14  1  0  0  0
 14 15  2  0  0  0
 15  8  1  0  0  0
  8  1  1  0  0  0
  1  2  2  0  0  0
  2  3  1  0  0  0
  3  4  2  0  0  0
  4  5  1  0  0  0
  4  6  1  0  0  0
  6 24  1  0  0  0
 24 26  1  0  0  0
 26 27  2  0  0  0
 27 28  1  0  0  0
 28 29  2  0  0  0
 29 30  1  0  0  0
 30 31  2  0  0  0
 31 32  1  0  0  0
 32 33  2  0  0  0
 32 34  2  0  0  0
 32 35  1  0  0  0
 35 36  1  0  0  0
 35 37  1  0  0  0
  6  7  2  0  0  0
 12 16  1  0  0  0
 16 17  1  0  0  0
 16 18  1  0  0  0
 16 19  1  0  0  0
 15 10  1  0  0  0
  7  1  1  0  0  0
 31 26  1  0  0  0
  8  9  1  0  0  0
 24 25  1  0  0  0
M  END
> <minimizedAffinity>
24.99728

> <CNNscore>
0.6104093790

> <CNNaffinity>
7.0253663063

> <CNN_VS>
4.2883496284

> <CNNaffinity_variance>
0.2404590547

$$$$
[H]c1nc(N([H])c2c([H])c([H])c(C(F)(F)F)c([H])c2OC([H])(C([H])([H])[H])C([H])([H])[H])nc(N([H])c2c([H])c([H])c([H])c([H])c2S(=O)(=O)C([H])(C([H])([H])[H])C([H])([H])[H])c1Cl


 37 39  0  0  0  0  0  0  0  0999 V2000
   27.4222    9.1348   52.2620 C   0  0  0  0  0  0  0  0  0  0  0  0
   28.0266    8.3167   53.1134 N   0  0  0  0  0  0  0  0  0  0  0  0
   27.3653    7.5251   53.9714 C   0  0  0  0  0  0  0  0  0  0  0  0
   25.9872    7.5154   54.0145 C   0  0  0  0  0  0  0  0  0  0  0  0
   25.1005    6.4952   55.1144 Cl  0  0  0  0  0  0  0  0  0  0  0  0
   25.3225    8.3647   53.1261 C   0  0  0  0  0  0  0  0  0  0  0  0
   26.0414    9.1143   52.3183 N   0  0  0  0  0  0  0  0  0  0  0  0
   27.9924    9.9119   51.2384 N   0  0  0  0  0  0  0  0  0  0  0  0
   28.1844   10.9527   51.4598 H   0  0  0  0  0  0  0  0  0  0  0  0
   28.1231   10.3883   48.8604 C   0  0  0  0  0  0  0  0  0  0  0  0
   28.2980    9.9074   47.5946 C   0  0  0  0  0  0  0  0  0  0  0  0
   28.6733    8.6219   47.2655 C   0  0  0  0  0  0  0  0  0  0  0  0
   28.8834    7.7743   48.3317 C   0  0  0  0  0  0  0  0  0  0  0  0
   28.7151    8.2146   49.6364 C   0  0  0  0  0  0  0  0  0  0  0  0
   28.3408    9.4856   49.9511 C   0  0  0  0  0  0  0  0  0  0  0  0
   28.8254    8.1575   45.8475 C   0  0  0  0  0  0  0  0  0  0  0  0
   27.5289    8.2142   45.3076 F   0  0  0  0  0  0  0  0  0  0  0  0
   29.7185    8.9002   45.1282 F   0  0  0  0  0  0  0  0  0  0  0  0
   29.1459    6.8096   45.8461 F   0  0  0  0  0  0  0  0  0  0  0  0
   27.7716   11.6361   49.2214 O   0  0  0  0  0  0  0  0  0  0  0  0
   26.3427   13.4260   48.4357 C   0  0  0  0  0  0  0  0  0  0  0  0
   27.8031   12.8841   48.6712 C   0  0  0  0  0  0  0  0  0  0  0  0
   28.4996   12.9715   47.3474 C   0  0  0  0  0  0  0  0  0  0  0  0
   23.9054    8.2744   53.0504 N   0  0  0  0  0  0  0  0  0  0  0  0
   23.5280    7.6955   52.2635 H   0  0  0  0  0  0  0  0  0  0  0  0
   22.9680    8.8783   53.9082 C   0  0  0  0  0  0  0  0  0  0  0  0
   23.2758    9.7588   54.9434 C   0  0  0  0  0  0  0  0  0  0  0  0
   22.3234   10.3387   55.7568 C   0  0  0  0  0  0  0  0  0  0  0  0
   21.0031   10.0337   55.5394 C   0  0  0  0  0  0  0  0  0  0  0  0
   20.6731    9.1451   54.5028 C   0  0  0  0  0  0  0  0  0  0  0  0
   21.6220    8.5807   53.7068 C   0  0  0  0  0  0  0  0  0  0  0  0
   21.1291    7.4942   52.4311 S   0  0  0  0  0  0  0  0  0  0  0  0
   21.9927    7.7261   51.1896 O   0  0  0  0  0  0  0  0  0  0  0  0
   19.7106    7.6829   52.0451 O   0  0  0  0  0  0  0  0  0  0  0  0
   21.3716    5.7812   52.8612 C   0  0  0  0  0  0  0  0  0  0  0  0
   20.0915    5.1849   53.3662 C   0  0  0  0  0  0  0  0  0  0  0  0
   22.3189    5.7802   54.0920 C   0  0  0  0  0  0  0  0  0  0  0  0
 21 22  1  0  0  0
 22 23  1  0  0  0
 22 20  1  0  0  0
 20 10  1  0  0  0
 10 11  2  0  0  0
 11 12  1  0  0  0
 12 13  2  0  0  0
 13 14  1  0  0  0
 14 15  2  0  0  0
 15  8  1  0  0  0
  8  1  1  0  0  0
  1  2  2  0  0  0
  2  3  1  0  0  0
  3  4  2  0  0  0
  4  5  1  0  0  0
  4  6  1  0  0  0
  6 24  1  0  0  0
 24 26  1  0  0  0
 26 27  2  0  0  0
 27 28  1  0  0  0
 28 29  2  0  0  0
 29 30  1  0  0  0
 30 31  2  0  0  0
 31 32  1  0  0  0
 32 33  2  0  0  0
 32 34  2  0  0  0
 32 35  1  0  0  0
 35 36  1  0  0  0
 35 37  1  0  0  0
  6  7  2  0  0  0
 12 16  1  0  0  0
 16 17  1  0  0  0
 16 18  1  0  0  0
 16 19  1  0  0  0
 15 10  1  0  0  0
  7  1  1  0  0  0
 31 26  1  0  0  0
  8  9  1  0  0  0
 24 25  1  0  0  0
M  END
> <minimizedAffinity>
26.71886

> <CNNscore>
0.5713351965

> <CNNaffinity>
6.9317903519

> <CNN_VS>
3.9603757858

> <CNNaffinity_variance>
0.2244281769

$$$$
[H]c1nc(N([H])c2c([H])c([H])c(C(F)(F)F)c([H])c2OC([H])(C([H])([H])[H])C([H])([H])[H])nc(N([H])c2c([H])c([H])c([H])c([H])c2S(=O)(=O)C([H])(C([H])([H])[H])C([H])([H])[H])c1Cl


 37 39  0  0  0  0  0  0  0  0999 V2000
   27.8771    9.2202   56.6939 C   0  0  0  0  0  0  0  0  0  0  0  0
   28.6356    9.3869   55.6187 N   0  0  0  0  0  0  0  0  0  0  0  0
   28.2269    9.0938   54.3748 C   0  0  0  0  0  0  0  0  0  0  0  0
   26.9637    8.5938   54.1393 C   0  0  0  0  0  0  0  0  0  0  0  0
   26.4028    8.2080   52.5351 Cl  0  0  0  0  0  0  0  0  0  0  0  0
   26.1400    8.4109   55.2531 C   0  0  0  0  0  0  0  0  0  0  0  0
   26.6146    8.7175   56.4413 N   0  0  0  0  0  0  0  0  0  0  0  0
   28.1410    9.6031   58.0207 N   0  0  0  0  0  0  0  0  0  0  0  0
   28.0702    8.8346   58.7780 H   0  0  0  0  0  0  0  0  0  0  0  0
   29.3404   10.9800   59.6222 C   0  0  0  0  0  0  0  0  0  0  0  0
   29.5307   12.2176   60.1665 C   0  0  0  0  0  0  0  0  0  0  0  0
   28.9757   13.3937   59.7078 C   0  0  0  0  0  0  0  0  0  0  0  0
   28.1637   13.2740   58.6007 C   0  0  0  0  0  0  0  0  0  0  0  0
   27.9363   12.0378   58.0138 C   0  0  0  0  0  0  0  0  0  0  0  0
   28.4866   10.8812   58.4764 C   0  0  0  0  0  0  0  0  0  0  0  0
   29.2132   14.7176   60.3717 C   0  0  0  0  0  0  0  0  0  0  0  0
   28.0581   14.9501   61.1380 F   0  0  0  0  0  0  0  0  0  0  0  0
   30.3507   14.7467   61.1279 F   0  0  0  0  0  0  0  0  0  0  0  0
   29.2003   15.7138   59.4089 F   0  0  0  0  0  0  0  0  0  0  0  0
   29.8736    9.8142   60.0317 O   0  0  0  0  0  0  0  0  0  0  0  0
   30.6887    7.7752   61.0518 C   0  0  0  0  0  0  0  0  0  0  0  0
   29.4687    8.7231   60.7436 C   0  0  0  0  0  0  0  0  0  0  0  0
   28.4405    7.8725   60.0622 C   0  0  0  0  0  0  0  0  0  0  0  0
   24.7884    8.0303   55.0283 N   0  0  0  0  0  0  0  0  0  0  0  0
   24.6245    7.0088   54.8661 H   0  0  0  0  0  0  0  0  0  0  0  0
   23.6622    8.8728   54.9959 C   0  0  0  0  0  0  0  0  0  0  0  0
   23.5829   10.1323   55.5868 C   0  0  0  0  0  0  0  0  0  0  0  0
   22.4605   10.9330   55.5226 C   0  0  0  0  0  0  0  0  0  0  0  0
   21.3623   10.4678   54.8437 C   0  0  0  0  0  0  0  0  0  0  0  0
   21.4216    9.1988   54.2444 C   0  0  0  0  0  0  0  0  0  0  0  0
   22.5351    8.4192   54.3141 C   0  0  0  0  0  0  0  0  0  0  0  0
   22.5334    6.8575   53.5318 S   0  0  0  0  0  0  0  0  0  0  0  0
   22.4072    5.7516   54.5816 O   0  0  0  0  0  0  0  0  0  0  0  0
   23.7718    6.6135   52.7549 O   0  0  0  0  0  0  0  0  0  0  0  0
   21.1364    6.6390   52.4461 C   0  0  0  0  0  0  0  0  0  0  0  0
   21.0146    7.8066   51.5129 C   0  0  0  0  0  0  0  0  0  0  0  0
   19.8761    6.7242   53.3498 C   0  0  0  0  0  0  0  0  0  0  0  0
 21 22  1  0  0  0
 22 23  1  0  0  0
 22 20  1  0  0  0
 20 10  1  0  0  0
 10 11  2  0  0  0
 11 12  1  0  0  0
 12 13  2  0  0  0
 13 14  1  0  0  0
 14 15  2  0  0  0
 15  8  1  0  0  0
  8  1  1  0  0  0
  1  2  2  0  0  0
  2  3  1  0  0  0
  3  4  2  0  0  0
  4  5  1  0  0  0
  4  6  1  0  0  0
  6 24  1  0  0  0
 24 26  1  0  0  0
 26 27  2  0  0  0
 27 28  1  0  0  0
 28 29  2  0  0  0
 29 30  1  0  0  0
 30 31  2  0  0  0
 31 32  1  0  0  0
 32 33  2  0  0  0
 32 34  2  0  0  0
 32 35  1  0  0  0
 35 36  1  0  0  0
 35 37  1  0  0  0
  6  7  2  0  0  0
 12 16  1  0  0  0
 16 17  1  0  0  0
 16 18  1  0  0  0
 16 19  1  0  0  0
 15 10  1  0  0  0
  7  1  1  0  0  0
 31 26  1  0  0  0
  8  9  1  0  0  0
 24 25  1  0  0  0
M  END
> <minimizedAffinity>
6.15752

> <CNNscore>
0.5487513542

> <CNNaffinity>
7.0452842712

> <CNN_VS>
3.8661093712

> <CNNaffinity_variance>
0.4879857600

$$$$
[H]c1nc(N([H])c2c([H])c([H])c(C(F)(F)F)c([H])c2OC([H])(C([H])([H])[H])C([H])([H])[H])nc(N([H])c2c([H])c([H])c([H])c([H])c2S(=O)(=O)C([H])(C([H])([H])[H])C([H])([H])[H])c1Cl


 37 39  0  0  0  0  0  0  0  0999 V2000
   27.6602    8.7412   52.2696 C   0  0  0  0  0  0  0  0  0  0  0  0
   28.3713    8.6857   53.3878 N   0  0  0  0  0  0  0  0  0  0  0  0
   27.8208    8.6335   54.6103 C   0  0  0  0  0  0  0  0  0  0  0  0
   26.4520    8.6313   54.7758 C   0  0  0  0  0  0  0  0  0  0  0  0
   25.7078    8.5597   56.3500 Cl  0  0  0  0  0  0  0  0  0  0  0  0
   25.6763    8.6853   53.6148 C   0  0  0  0  0  0  0  0  0  0  0  0
   26.2902    8.7393   52.4524 N   0  0  0  0  0  0  0  0  0  0  0  0
   28.1113    8.6729   50.9397 N   0  0  0  0  0  0  0  0  0  0  0  0
   28.4501    7.7098   50.5839 H   0  0  0  0  0  0  0  0  0  0  0  0
   28.3438    9.3942   48.6322 C   0  0  0  0  0  0  0  0  0  0  0  0
   28.5798   10.4187   47.7611 C   0  0  0  0  0  0  0  0  0  0  0  0
   28.6654   11.7547   48.0923 C   0  0  0  0  0  0  0  0  0  0  0  0
   28.4917   12.0467   49.4279 C   0  0  0  0  0  0  0  0  0  0  0  0
   28.2532   11.0404   50.3525 C   0  0  0  0  0  0  0  0  0  0  0  0
   28.1737    9.7232   50.0159 C   0  0  0  0  0  0  0  0  0  0  0  0
   28.9495   12.8259   47.0817 C   0  0  0  0  0  0  0  0  0  0  0  0
   27.7944   13.6267   47.0693 F   0  0  0  0  0  0  0  0  0  0  0  0
   30.0761   13.5468   47.3603 F   0  0  0  0  0  0  0  0  0  0  0  0
   28.9930   12.2556   45.8198 F   0  0  0  0  0  0  0  0  0  0  0  0
   28.2400    8.0833   48.3463 O   0  0  0  0  0  0  0  0  0  0  0  0
   30.0460    6.5440   47.8650 C   0  0  0  0  0  0  0  0  0  0  0  0
   28.7068    7.2264   47.3929 C   0  0  0  0  0  0  0  0  0  0  0  0
   29.0052    7.8599   46.0682 C   0  0  0  0  0  0  0  0  0  0  0  0
   24.2675    8.5438   53.7463 N   0  0  0  0  0  0  0  0  0  0  0  0
   23.7159    9.4334   53.7128 H   0  0  0  0  0  0  0  0  0  0  0  0
   23.5457    7.3488   53.9202 C   0  0  0  0  0  0  0  0  0  0  0  0
   24.0868    6.1372   54.3453 C   0  0  0  0  0  0  0  0  0  0  0  0
   23.3405    4.9884   54.5134 C   0  0  0  0  0  0  0  0  0  0  0  0
   21.9950    5.0369   54.2475 C   0  0  0  0  0  0  0  0  0  0  0  0
   21.4316    6.2485   53.8143 C   0  0  0  0  0  0  0  0  0  0  0  0
   22.1786    7.3749   53.6535 C   0  0  0  0  0  0  0  0  0  0  0  0
   21.4005    8.8457   53.1223 S   0  0  0  0  0  0  0  0  0  0  0  0
   19.9040    8.7829   53.4344 O   0  0  0  0  0  0  0  0  0  0  0  0
   21.5564    9.0730   51.6660 O   0  0  0  0  0  0  0  0  0  0  0  0
   22.0020   10.2860   53.9836 C   0  0  0  0  0  0  0  0  0  0  0  0
   21.2863   10.4471   55.2917 C   0  0  0  0  0  0  0  0  0  0  0  0
   21.5536   11.5081   53.1364 C   0  0  0  0  0  0  0  0  0  0  0  0
 21 22  1  0  0  0
 22 23  1  0  0  0
 22 20  1  0  0  0
 20 10  1  0  0  0
 10 11  2  0  0  0
 11 12  1  0  0  0
 12 13  2  0  0  0
 13 14  1  0  0  0
 14 15  2  0  0  0
 15  8  1  0  0  0
  8  1  1  0  0  0
  1  2  2  0  0  0
  2  3  1  0  0  0
  3  4  2  0  0  0
  4  5  1  0  0  0
  4  6  1  0  0  0
  6 24  1  0  0  0
 24 26  1  0  0  0
 26 27  2  0  0  0
 27 28  1  0  0  0
 28 29  2  0  0  0
 29 30  1  0  0  0
 30 31  2  0  0  0
 31 32  1  0  0  0
 32 33  2  0  0  0
 32 34  2  0  0  0
 32 35  1  0  0  0
 35 36  1  0  0  0
 35 37  1  0  0  0
  6  7  2  0  0  0
 12 16  1  0  0  0
 16 17  1  0  0  0
 16 18  1  0  0  0
 16 19  1  0  0  0
 15 10  1  0  0  0
  7  1  1  0  0  0
 31 26  1  0  0  0
  8  9  1  0  0  0
 24 25  1  0  0  0
M  END
> <minimizedAffinity>
33.05184

> <CNNscore>
0.5453719497

> <CNNaffinity>
6.7015433311

> <CNN_VS>
3.6548337936

> <CNNaffinity_variance>
0.0728333369

$$$$
[H]c1nc(N([H])c2c([H])c([H])c(C(F)(F)F)c([H])c2OC([H])(C([H])([H])[H])C([H])([H])[H])nc(N([H])c2c([H])c([H])c([H])c([H])c2S(=O)(=O)C([H])(C([H])([H])[H])C([H])([H])[H])c1Cl


 37 39  0  0  0  0  0  0  0  0999 V2000
   27.7939    8.8979   52.5030 C   0  0  0  0  0  0  0  0  0  0  0  0
   28.7373    9.1473   53.4013 N   0  0  0  0  0  0  0  0  0  0  0  0
   28.5057    9.1887   54.7223 C   0  0  0  0  0  0  0  0  0  0  0  0
   27.2440    8.9657   55.2317 C   0  0  0  0  0  0  0  0  0  0  0  0
   26.9131    9.0083   56.9421 Cl  0  0  0  0  0  0  0  0  0  0  0  0
   26.2298    8.6966   54.3090 C   0  0  0  0  0  0  0  0  0  0  0  0
   26.5350    8.6777   53.0293 N   0  0  0  0  0  0  0  0  0  0  0  0
   27.9322    8.7048   51.1172 N   0  0  0  0  0  0  0  0  0  0  0  0
   27.9844    7.6837   50.7655 H   0  0  0  0  0  0  0  0  0  0  0  0
   28.6089    9.3511   48.8759 C   0  0  0  0  0  0  0  0  0  0  0  0
   28.8445   10.3604   47.9871 C   0  0  0  0  0  0  0  0  0  0  0  0
   28.5546   11.6938   48.1862 C   0  0  0  0  0  0  0  0  0  0  0  0
   27.9759   12.0000   49.3990 C   0  0  0  0  0  0  0  0  0  0  0  0
   27.7199   11.0104   50.3368 C   0  0  0  0  0  0  0  0  0  0  0  0
   28.0130    9.6963   50.1319 C   0  0  0  0  0  0  0  0  0  0  0  0
   28.8625   12.7530   47.1700 C   0  0  0  0  0  0  0  0  0  0  0  0
   29.9946   13.4176   47.6722 F   0  0  0  0  0  0  0  0  0  0  0  0
   29.0694   12.2543   45.9150 F   0  0  0  0  0  0  0  0  0  0  0  0
   27.8579   13.7069   47.1940 F   0  0  0  0  0  0  0  0  0  0  0  0
   28.8645    8.0400   48.7133 O   0  0  0  0  0  0  0  0  0  0  0  0
   29.1367    7.8194   46.3175 C   0  0  0  0  0  0  0  0  0  0  0  0
   29.4126    7.2379   47.7554 C   0  0  0  0  0  0  0  0  0  0  0  0
   28.8985    5.8305   47.7426 C   0  0  0  0  0  0  0  0  0  0  0  0
   24.9520    8.3257   54.8109 N   0  0  0  0  0  0  0  0  0  0  0  0
   24.6352    8.8353   55.6692 H   0  0  0  0  0  0  0  0  0  0  0  0
   24.0815    7.3537   54.2849 C   0  0  0  0  0  0  0  0  0  0  0  0
   24.4710    6.1166   53.7756 C   0  0  0  0  0  0  0  0  0  0  0  0
   23.5822    5.1854   53.2775 C   0  0  0  0  0  0  0  0  0  0  0  0
   22.2441    5.4903   53.2807 C   0  0  0  0  0  0  0  0  0  0  0  0
   21.8322    6.7342   53.7868 C   0  0  0  0  0  0  0  0  0  0  0  0
   22.7188    7.6436   54.2761 C   0  0  0  0  0  0  0  0  0  0  0  0
   22.1254    9.1638   54.8987 S   0  0  0  0  0  0  0  0  0  0  0  0
   23.3028   10.0694   55.2652 O   0  0  0  0  0  0  0  0  0  0  0  0
   21.2864    8.9900   56.1082 O   0  0  0  0  0  0  0  0  0  0  0  0
   21.1862   10.0771   53.6896 C   0  0  0  0  0  0  0  0  0  0  0  0
   21.6324    9.7174   52.3037 C   0  0  0  0  0  0  0  0  0  0  0  0
   21.5994   11.5642   53.8627 C   0  0  0  0  0  0  0  0  0  0  0  0
 21 22  1  0  0  0
 22 23  1  0  0  0
 22 20  1  0  0  0
 20 10  1  0  0  0
 10 11  2  0  0  0
 11 12  1  0  0  0
 12 13  2  0  0  0
 13 14  1  0  0  0
 14 15  2  0  0  0
 15  8  1  0  0  0
  8  1  1  0  0  0
  1  2  2  0  0  0
  2  3  1  0  0  0
  3  4  2  0  0  0
  4  5  1  0  0  0
  4  6  1  0  0  0
  6 24  1  0  0  0
 24 26  1  0  0  0
 26 27  2  0  0  0
 27 28  1  0  0  0
 28 29  2  0  0  0
 29 30  1  0  0  0
 30 31  2  0  0  0
 31 32  1  0  0  0
 32 33  2  0  0  0
 32 34  2  0  0  0
 32 35  1  0  0  0
 35 36  1  0  0  0
 35 37  1  0  0  0
  6  7  2  0  0  0
 12 16  1  0  0  0
 16 17  1  0  0  0
 16 18  1  0  0  0
 16 19  1  0  0  0
 15 10  1  0  0  0
  7  1  1  0  0  0
 31 26  1  0  0  0
  8  9  1  0  0  0
 24 25  1  0  0  0
M  END
> <minimizedAffinity>
28.39749

> <CNNscore>
0.5387343168

> <CNNaffinity>
6.7178435326

> <CNN_VS>
3.6191327572

> <CNNaffinity_variance>
0.1480522752

$$$$
[H]c1nc(N([H])c2c([H])c([H])c(C(F)(F)F)c([H])c2OC([H])(C([H])([H])[H])C([H])([H])[H])nc(N([H])c2c([H])c([H])c([H])c([H])c2S(=O)(=O)C([H])(C([H])([H])[H])C([H])([H])[H])c1Cl


 37 39  0  0  0  0  0  0  0  0999 V2000
   27.7823    8.8487   52.4239 C   0  0  0  0  0  0  0  0  0  0  0  0
   28.6864    9.1654   53.3413 N   0  0  0  0  0  0  0  0  0  0  0  0
   28.4265    9.1837   54.6575 C   0  0  0  0  0  0  0  0  0  0  0  0
   27.1758    8.8636   55.1414 C   0  0  0  0  0  0  0  0  0  0  0  0
   26.8093    8.8741   56.8450 Cl  0  0  0  0  0  0  0  0  0  0  0  0
   26.2031    8.5220   54.1981 C   0  0  0  0  0  0  0  0  0  0  0  0
   26.5337    8.5315   52.9246 N   0  0  0  0  0  0  0  0  0  0  0  0
   27.9619    8.6723   51.0406 N   0  0  0  0  0  0  0  0  0  0  0  0
   28.0632    7.6569   50.6832 H   0  0  0  0  0  0  0  0  0  0  0  0
   28.6482    9.3564   48.8135 C   0  0  0  0  0  0  0  0  0  0  0  0
   28.8665   10.3793   47.9360 C   0  0  0  0  0  0  0  0  0  0  0  0
   28.5368   11.7024   48.1423 C   0  0  0  0  0  0  0  0  0  0  0  0
   27.9346   11.9819   49.3501 C   0  0  0  0  0  0  0  0  0  0  0  0
   27.6948   10.9776   50.2764 C   0  0  0  0  0  0  0  0  0  0  0  0
   28.0272    9.6741   50.0646 C   0  0  0  0  0  0  0  0  0  0  0  0
   28.8276   12.7784   47.1388 C   0  0  0  0  0  0  0  0  0  0  0  0
   30.0112   13.3856   47.5925 F   0  0  0  0  0  0  0  0  0  0  0  0
   28.9436   12.3089   45.8610 F   0  0  0  0  0  0  0  0  0  0  0  0
   27.8637   13.7680   47.2462 F   0  0  0  0  0  0  0  0  0  0  0  0
   28.9426    8.0543   48.6434 O   0  0  0  0  0  0  0  0  0  0  0  0
   29.1333    7.8537   46.2380 C   0  0  0  0  0  0  0  0  0  0  0  0
   29.4674    7.2664   47.6612 C   0  0  0  0  0  0  0  0  0  0  0  0
   28.9722    5.8522   47.6562 C   0  0  0  0  0  0  0  0  0  0  0  0
   24.9477    8.0532   54.6737 N   0  0  0  0  0  0  0  0  0  0  0  0
   24.9079    7.0380   54.9278 H   0  0  0  0  0  0  0  0  0  0  0  0
   23.7659    8.7999   54.8318 C   0  0  0  0  0  0  0  0  0  0  0  0
   23.6729   10.0310   55.4778 C   0  0  0  0  0  0  0  0  0  0  0  0
   22.4936   10.7373   55.6022 C   0  0  0  0  0  0  0  0  0  0  0  0
   21.3500   10.2022   55.0644 C   0  0  0  0  0  0  0  0  0  0  0  0
   21.4229    8.9602   54.4124 C   0  0  0  0  0  0  0  0  0  0  0  0
   22.5925    8.2740   54.2955 C   0  0  0  0  0  0  0  0  0  0  0  0
   22.6020    6.7406   53.4593 S   0  0  0  0  0  0  0  0  0  0  0  0
   22.3249    5.6078   54.4498 O   0  0  0  0  0  0  0  0  0  0  0  0
   23.9000    6.4653   52.7989 O   0  0  0  0  0  0  0  0  0  0  0  0
   21.3119    6.6224   52.2347 C   0  0  0  0  0  0  0  0  0  0  0  0
   20.9847    7.9811   51.6903 C   0  0  0  0  0  0  0  0  0  0  0  0
   20.0335    6.1875   53.0020 C   0  0  0  0  0  0  0  0  0  0  0  0
 21 22  1  0  0  0
 22 23  1  0  0  0
 22 20  1  0  0  0
 20 10  1  0  0  0
 10 11  2  0  0  0
 11 12  1  0  0  0
 12 13  2  0  0  0
 13 14  1  0  0  0
 14 15  2  0  0  0
 15  8  1  0  0  0
  8  1  1  0  0  0
  1  2  2  0  0  0
  2  3  1  0  0  0
  3  4  2  0  0  0
  4  5  1  0  0  0
  4  6  1  0  0  0
  6 24  1  0  0  0
 24 26  1  0  0  0
 26 27  2  0  0  0
 27 28  1  0  0  0
 28 29  2  0  0  0
 29 30  1  0  0  0
 30 31  2  0  0  0
 31 32  1  0  0  0
 32 33  2  0  0  0
 32 34  2  0  0  0
 32 35  1  0  0  0
 35 36  1  0  0  0
 35 37  1  0  0  0
  6  7  2  0  0  0
 12 16  1  0  0  0
 16 17  1  0  0  0
 16 18  1  0  0  0
 16 19  1  0  0  0
 15 10  1  0  0  0
  7  1  1  0  0  0
 31 26  1  0  0  0
  8  9  1  0  0  0
 24 25  1  0  0  0
M  END
> <minimizedAffinity>
27.73113

> <CNNscore>
0.5235071182

> <CNNaffinity>
6.7836027145

> <CNN_VS>
3.5512642860

> <CNNaffinity_variance>
0.1254533678

$$$$
[H]c1nc(N([H])c2c([H])c([H])c(C(F)(F)F)c([H])c2OC([H])(C([H])([H])[H])C([H])([H])[H])nc(N([H])c2c([H])c([H])c([H])c([H])c2S(=O)(=O)C([H])(C([H])([H])[H])C([H])([H])[H])c1Cl


 37 39  0  0  0  0  0  0  0  0999 V2000
   22.7287    6.2525   53.8649 C   0  0  0  0  0  0  0  0  0  0  0  0
   22.3285    6.9496   54.9199 N   0  0  0  0  0  0  0  0  0  0  0  0
   23.0280    7.9707   55.4379 C   0  0  0  0  0  0  0  0  0  0  0  0
   24.2292    8.3637   54.8868 C   0  0  0  0  0  0  0  0  0  0  0  0
   25.1579    9.6885   55.5343 Cl  0  0  0  0  0  0  0  0  0  0  0  0
   24.6749    7.6497   53.7713 C   0  0  0  0  0  0  0  0  0  0  0  0
   23.9347    6.6578   53.3248 N   0  0  0  0  0  0  0  0  0  0  0  0
   22.0340    5.2546   53.1588 N   0  0  0  0  0  0  0  0  0  0  0  0
   22.6060    4.6542   52.4650 H   0  0  0  0  0  0  0  0  0  0  0  0
   19.7526    6.0276   53.4700 C   0  0  0  0  0  0  0  0  0  0  0  0
   18.4518    5.7088   53.7354 C   0  0  0  0  0  0  0  0  0  0  0  0
   17.9336    4.4331   53.8094 C   0  0  0  0  0  0  0  0  0  0  0  0
   18.8346    3.4135   53.5901 C   0  0  0  0  0  0  0  0  0  0  0  0
   20.1677    3.6860   53.3203 C   0  0  0  0  0  0  0  0  0  0  0  0
   20.6707    4.9498   53.2526 C   0  0  0  0  0  0  0  0  0  0  0  0
   16.4939    4.1579   54.1277 C   0  0  0  0  0  0  0  0  0  0  0  0
   16.4865    3.7976   55.4863 F   0  0  0  0  0  0  0  0  0  0  0  0
   15.6710    5.2172   53.8686 F   0  0  0  0  0  0  0  0  0  0  0  0
   16.0955    3.0112   53.4598 F   0  0  0  0  0  0  0  0  0  0  0  0
   20.2922    7.2568   53.3764 O   0  0  0  0  0  0  0  0  0  0  0  0
   20.8074    7.7106   51.0545 C   0  0  0  0  0  0  0  0  0  0  0  0
   20.3408    8.2615   52.4547 C   0  0  0  0  0  0  0  0  0  0  0  0
   21.2742    9.3833   52.7944 C   0  0  0  0  0  0  0  0  0  0  0  0
   25.8365    8.1193   53.0989 N   0  0  0  0  0  0  0  0  0  0  0  0
   25.8115    8.0613   52.0535 H   0  0  0  0  0  0  0  0  0  0  0  0
   27.0043    8.6423   53.6837 C   0  0  0  0  0  0  0  0  0  0  0  0
   27.2803    8.6618   55.0494 C   0  0  0  0  0  0  0  0  0  0  0  0
   28.4451    9.1758   55.5824 C   0  0  0  0  0  0  0  0  0  0  0  0
   29.3824    9.6975   54.7265 C   0  0  0  0  0  0  0  0  0  0  0  0
   29.1207    9.6902   53.3465 C   0  0  0  0  0  0  0  0  0  0  0  0
   27.9683    9.1792   52.8333 C   0  0  0  0  0  0  0  0  0  0  0  0
   27.7232    9.1967   51.1040 S   0  0  0  0  0  0  0  0  0  0  0  0
   26.2953    9.6457   50.7869 O   0  0  0  0  0  0  0  0  0  0  0  0
   27.9320    7.8639   50.4904 O   0  0  0  0  0  0  0  0  0  0  0  0
   28.7810   10.3687   50.2761 C   0  0  0  0  0  0  0  0  0  0  0  0
   28.0248   11.6273   49.9702 C   0  0  0  0  0  0  0  0  0  0  0  0
   29.0965    9.7514   48.8863 C   0  0  0  0  0  0  0  0  0  0  0  0
 21 22  1  0  0  0
 22 23  1  0  0  0
 22 20  1  0  0  0
 20 10  1  0  0  0
 10 11  2  0  0  0
 11 12  1  0  0  0
 12 13  2  0  0  0
 13 14  1  0  0  0
 14 15  2  0  0  0
 15  8  1  0  0  0
  8  1  1  0  0  0
  1  2  2  0  0  0
  2  3  1  0  0  0
  3  4  2  0  0  0
  4  5  1  0  0  0
  4  6  1  0  0  0
  6 24  1  0  0  0
 24 26  1  0  0  0
 26 27  2  0  0  0
 27 28  1  0  0  0
 28 29  2  0  0  0
 29 30  1  0  0  0
 30 31  2  0  0  0
 31 32  1  0  0  0
 32 33  2  0  0  0
 32 34  2  0  0  0
 32 35  1  0  0  0
 35 36  1  0  0  0
 35 37  1  0  0  0
  6  7  2  0  0  0
 12 16  1  0  0  0
 16 17  1  0  0  0
 16 18  1  0  0  0
 16 19  1  0  0  0
 15 10  1  0  0  0
  7  1  1  0  0  0
 31 26  1  0  0  0
  8  9  1  0  0  0
 24 25  1  0  0  0
M  END
> <minimizedAffinity>
35.79241

> <CNNscore>
0.5138023496

> <CNNaffinity>
6.9305353165

> <CNN_VS>
3.5609252453

> <CNNaffinity_variance>
0.1925769001

$$$$
[H]c1nc(N([H])c2c([H])c([H])c(C(F)(F)F)c([H])c2OC([H])(C([H])([H])[H])C([H])([H])[H])nc(N([H])c2c([H])c([H])c([H])c([H])c2S(=O)(=O)C([H])(C([H])([H])[H])C([H])([H])[H])c1Cl


 37 39  0  0  0  0  0  0  0  0999 V2000
   21.6084    7.8547   52.0596 C   0  0  0  0  0  0  0  0  0  0  0  0
   21.0808    6.8164   52.6941 N   0  0  0  0  0  0  0  0  0  0  0  0
   21.7670    6.0536   53.5587 C   0  0  0  0  0  0  0  0  0  0  0  0
   23.0902    6.3152   53.8449 C   0  0  0  0  0  0  0  0  0  0  0  0
   24.0062    5.3455   54.9662 Cl  0  0  0  0  0  0  0  0  0  0  0  0
   23.6726    7.4058   53.1938 C   0  0  0  0  0  0  0  0  0  0  0  0
   22.9353    8.1031   52.3563 N   0  0  0  0  0  0  0  0  0  0  0  0
   20.9674    8.7969   51.2361 N   0  0  0  0  0  0  0  0  0  0  0  0
   20.2965    8.4135   50.4798 H   0  0  0  0  0  0  0  0  0  0  0  0
   21.2382   10.8091   52.5689 C   0  0  0  0  0  0  0  0  0  0  0  0
   21.1934   12.1726   52.6232 C   0  0  0  0  0  0  0  0  0  0  0  0
   21.0337   13.0173   51.5449 C   0  0  0  0  0  0  0  0  0  0  0  0
   20.9129   12.3981   50.3195 C   0  0  0  0  0  0  0  0  0  0  0  0
   20.9485   11.0155   50.2129 C   0  0  0  0  0  0  0  0  0  0  0  0
   21.1033   10.1896   51.2845 C   0  0  0  0  0  0  0  0  0  0  0  0
   20.9720   14.5095   51.6835 C   0  0  0  0  0  0  0  0  0  0  0  0
   20.1604   14.9382   50.6191 F   0  0  0  0  0  0  0  0  0  0  0  0
   20.4952   14.9205   52.8961 F   0  0  0  0  0  0  0  0  0  0  0  0
   22.2214   15.0404   51.4062 F   0  0  0  0  0  0  0  0  0  0  0  0
   21.4057    9.9536   53.5941 O   0  0  0  0  0  0  0  0  0  0  0  0
   21.6417   10.8541   55.8292 C   0  0  0  0  0  0  0  0  0  0  0  0
   20.9434    9.8174   54.8704 C   0  0  0  0  0  0  0  0  0  0  0  0
   21.1672    8.4673   55.4807 C   0  0  0  0  0  0  0  0  0  0  0  0
   24.9900    7.7837   53.5728 N   0  0  0  0  0  0  0  0  0  0  0  0
   25.7534    7.4892   52.9192 H   0  0  0  0  0  0  0  0  0  0  0  0
   25.3717    8.4984   54.7229 C   0  0  0  0  0  0  0  0  0  0  0  0
   24.4972    9.0017   55.6840 C   0  0  0  0  0  0  0  0  0  0  0  0
   24.9141    9.6897   56.8055 C   0  0  0  0  0  0  0  0  0  0  0  0
   26.2593    9.8925   56.9868 C   0  0  0  0  0  0  0  0  0  0  0  0
   27.1564    9.3959   56.0269 C   0  0  0  0  0  0  0  0  0  0  0  0
   26.7324    8.7179   54.9255 C   0  0  0  0  0  0  0  0  0  0  0  0
   27.9125    8.1219   53.7840 S   0  0  0  0  0  0  0  0  0  0  0  0
   27.6008    8.6610   52.3865 O   0  0  0  0  0  0  0  0  0  0  0  0
   27.9306    6.6416   53.7113 O   0  0  0  0  0  0  0  0  0  0  0  0
   29.5632    8.6869   54.1503 C   0  0  0  0  0  0  0  0  0  0  0  0
   29.9829    8.2204   55.5125 C   0  0  0  0  0  0  0  0  0  0  0  0
   29.4674   10.2320   54.2755 C   0  0  0  0  0  0  0  0  0  0  0  0
 21 22  1  0  0  0
 22 23  1  0  0  0
 22 20  1  0  0  0
 20 10  1  0  0  0
 10 11  2  0  0  0
 11 12  1  0  0  0
 12 13  2  0  0  0
 13 14  1  0  0  0
 14 15  2  0  0  0
 15  8  1  0  0  0
  8  1  1  0  0  0
  1  2  2  0  0  0
  2  3  1  0  0  0
  3  4  2  0  0  0
  4  5  1  0  0  0
  4  6  1  0  0  0
  6 24  1  0  0  0
 24 26  1  0  0  0
 26 27  2  0  0  0
 27 28  1  0  0  0
 28 29  2  0  0  0
 29 30  1  0  0  0
 30 31  2  0  0  0
 31 32  1  0  0  0
 32 33  2  0  0  0
 32 34  2  0  0  0
 32 35  1  0  0  0
 35 36  1  0  0  0
 35 37  1  0  0  0
  6  7  2  0  0  0
 12 16  1  0  0  0
 16 17  1  0  0  0
 16 18  1  0  0  0
 16 19  1  0  0  0
 15 10  1  0  0  0
  7  1  1  0  0  0
 31 26  1  0  0  0
  8  9  1  0  0  0
 24 25  1  0  0  0
M  END
> <minimizedAffinity>
29.76326

> <CNNscore>
0.4935477674

> <CNNaffinity>
6.8071379662

> <CNN_VS>
3.3596477509

> <CNNaffinity_variance>
0.4137068689

$$$$
[H]c1nc(N([H])c2c([H])c([H])c(C(F)(F)F)c([H])c2OC([H])(C([H])([H])[H])C([H])([H])[H])nc(N([H])c2c([H])c([H])c([H])c([H])c2S(=O)(=O)C([H])(C([H])([H])[H])C([H])([H])[H])c1Cl


 37 39  0  0  0  0  0  0  0  0999 V2000
   25.2717    7.6312   54.3774 C   0  0  0  0  0  0  0  0  0  0  0  0
   25.3523    6.4209   53.8409 N   0  0  0  0  0  0  0  0  0  0  0  0
   24.2840    5.6411   53.6156 C   0  0  0  0  0  0  0  0  0  0  0  0
   23.0117    6.0664   53.9342 C   0  0  0  0  0  0  0  0  0  0  0  0
   21.6046    5.0784   53.6494 Cl  0  0  0  0  0  0  0  0  0  0  0  0
   22.8949    7.3396   54.4979 C   0  0  0  0  0  0  0  0  0  0  0  0
   23.9902    8.0424   54.6920 N   0  0  0  0  0  0  0  0  0  0  0  0
   26.2908    8.5850   54.5459 N   0  0  0  0  0  0  0  0  0  0  0  0
   26.6681    9.0648   53.6535 H   0  0  0  0  0  0  0  0  0  0  0  0
   28.3087    8.9615   55.8442 C   0  0  0  0  0  0  0  0  0  0  0  0
   28.8685    9.1822   57.0697 C   0  0  0  0  0  0  0  0  0  0  0  0
   28.1791    9.4335   58.2373 C   0  0  0  0  0  0  0  0  0  0  0  0
   26.8060    9.4582   58.1215 C   0  0  0  0  0  0  0  0  0  0  0  0
   26.1897    9.2362   56.8987 C   0  0  0  0  0  0  0  0  0  0  0  0
   26.8795    8.9855   55.7515 C   0  0  0  0  0  0  0  0  0  0  0  0
   28.8629    9.6457   59.5553 C   0  0  0  0  0  0  0  0  0  0  0  0
   29.3069    8.3694   59.9419 F   0  0  0  0  0  0  0  0  0  0  0  0
   29.8831   10.5524   59.4952 F   0  0  0  0  0  0  0  0  0  0  0  0
   27.9146    9.9886   60.5055 F   0  0  0  0  0  0  0  0  0  0  0  0
   28.9463    8.7269   54.6825 O   0  0  0  0  0  0  0  0  0  0  0  0
   29.7654   10.9032   54.0077 C   0  0  0  0  0  0  0  0  0  0  0  0
   29.3347    9.4464   53.5905 C   0  0  0  0  0  0  0  0  0  0  0  0
   28.2828    9.6077   52.5357 C   0  0  0  0  0  0  0  0  0  0  0  0
   21.5880    7.8597   54.7069 N   0  0  0  0  0  0  0  0  0  0  0  0
   20.8128    7.1556   54.7057 H   0  0  0  0  0  0  0  0  0  0  0  0
   21.2307    9.2056   54.9074 C   0  0  0  0  0  0  0  0  0  0  0  0
   20.8939    9.7740   56.1342 C   0  0  0  0  0  0  0  0  0  0  0  0
   20.5589   11.1039   56.2897 C   0  0  0  0  0  0  0  0  0  0  0  0
   20.5545   11.9120   55.1805 C   0  0  0  0  0  0  0  0  0  0  0  0
   20.8876   11.3564   53.9341 C   0  0  0  0  0  0  0  0  0  0  0  0
   21.2173   10.0433   53.7943 C   0  0  0  0  0  0  0  0  0  0  0  0
   21.6310    9.4315   52.2115 S   0  0  0  0  0  0  0  0  0  0  0  0
   23.1120    9.0494   52.1738 O   0  0  0  0  0  0  0  0  0  0  0  0
   21.3863   10.4258   51.1399 O   0  0  0  0  0  0  0  0  0  0  0  0
   20.7477    7.9374   51.8044 C   0  0  0  0  0  0  0  0  0  0  0  0
   21.6006    7.0436   50.9542 C   0  0  0  0  0  0  0  0  0  0  0  0
   19.5821    8.3708   50.8740 C   0  0  0  0  0  0  0  0  0  0  0  0
 21 22  1  0  0  0
 22 23  1  0  0  0
 22 20  1  0  0  0
 20 10  1  0  0  0
 10 11  2  0  0  0
 11 12  1  0  0  0
 12 13  2  0  0  0
 13 14  1  0  0  0
 14 15  2  0  0  0
 15  8  1  0  0  0
  8  1  1  0  0  0
  1  2  2  0  0  0
  2  3  1  0  0  0
  3  4  2  0  0  0
  4  5  1  0  0  0
  4  6  1  0  0  0
  6 24  1  0  0  0
 24 26  1  0  0  0
 26 27  2  0  0  0
 27 28  1  0  0  0
 28 29  2  0  0  0
 29 30  1  0  0  0
 30 31  2  0  0  0
 31 32  1  0  0  0
 32 33  2  0  0  0
 32 34  2  0  0  0
 32 35  1  0  0  0
 35 36  1  0  0  0
 35 37  1  0  0  0
  6  7  2  0  0  0
 12 16  1  0  0  0
 16 17  1  0  0  0
 16 18  1  0  0  0
 16 19  1  0  0  0
 15 10  1  0  0  0
  7  1  1  0  0  0
 31 26  1  0  0  0
  8  9  1  0  0  0
 24 25  1  0  0  0
M  END
> <minimizedAffinity>
29.43261

> <CNNscore>
0.4219069183

> <CNNaffinity>
6.3850331306

> <CNN_VS>
2.6938896179

> <CNNaffinity_variance>
0.4658954144

$$$$
[H]OC([H])([H])[C@@]1([H])O[C@]([H])(n2c([H])c([H])c(=O)n([H])c2=O)[C@]([H])(O[H])[C@]1([H])O[H]


 21 22  0  0  0  0  0  0  0  0999 V2000
   22.7057    8.1130   52.9023 C   0  0  0  0  0  0  0  0  0  0  0  0
   23.6061    8.7656   52.0845 O   0  0  0  0  0  0  0  0  0  0  0  0
   21.3765    8.8673   52.9221 C   0  0  0  0  0  0  0  0  0  0  0  0
   21.5147   10.0311   52.1755 O   0  0  0  0  0  0  0  0  0  0  0  0
   21.1760    9.2773   54.3807 C   0  0  0  0  0  0  0  0  0  0  0  0
   22.4473    9.2537   54.9095 O   0  0  0  0  0  0  0  0  0  0  0  0
   23.0909    8.1485   54.3577 C   0  0  0  0  0  0  0  0  0  0  0  0
   23.4201    8.4409   51.1487 H   0  0  0  0  0  0  0  0  0  0  0  0
   21.4312    9.7879   51.2280 H   0  0  0  0  0  0  0  0  0  0  0  0
   24.4988    8.2819   54.5789 N   0  0  0  0  0  0  0  0  0  0  0  0
   25.3515    7.4718   53.9257 C   0  0  0  0  0  0  0  0  0  0  0  0
   24.8800    6.6257   53.1437 O   0  0  0  0  0  0  0  0  0  0  0  0
   26.6923    7.5492   54.0923 N   0  0  0  0  0  0  0  0  0  0  0  0
   27.2695    8.4383   54.9201 C   0  0  0  0  0  0  0  0  0  0  0  0
   28.5184    8.5129   55.0774 O   0  0  0  0  0  0  0  0  0  0  0  0
   26.4023    9.2910   55.6097 C   0  0  0  0  0  0  0  0  0  0  0  0
   25.0412    9.1849   55.4162 C   0  0  0  0  0  0  0  0  0  0  0  0
   27.3544    6.9086   53.5750 H   0  0  0  0  0  0  0  0  0  0  0  0
   20.2439    8.2911   55.0669 C   0  0  0  0  0  0  0  0  0  0  0  0
   19.6164    7.5335   54.0877 O   0  0  0  0  0  0  0  0  0  0  0  0
   20.1556    7.4983   53.2519 H   0  0  0  0  0  0  0  0  0  0  0  0
  1  2  1  0  0  0
  1  3  1  0  0  0
  3  4  1  0  0  0
  3  5  1  0  0  0
  5 19  1  0  0  0
 19 20  1  0  0  0
  5  6  1  0  0  0
  6  7  1  0  0  0
  7 10  1  0  0  0
 10 11  1  0  0  0
 11 12  2  0  0  0
 11 13  1  0  0  0
 13 14  1  0  0  0
 14 15  2  0  0  0
 14 16  1  0  0  0
 16 17  2  0  0  0
  7  1  1  0  0  0
 17 10  1  0  0  0
  2  8  1  0  0  0
  4  9  1  0  0  0
 20 21  1  0  0  0
 13 18  1  0  0  0
M  END
> <minimizedAffinity>
-0.43387

> <CNNscore>
0.6812123656

> <CNNaffinity>
4.6891441345

> <CNN_VS>
3.1943030357

> <CNNaffinity_variance>
0.1316439509

$$$$
[H]OC([H])([H])[C@@]1([H])O[C@]([H])(n2c([H])c([H])c(=O)n([H])c2=O)[C@]([H])(O[H])[C@]1([H])O[H]


 21 22  0  0  0  0  0  0  0  0999 V2000
   22.1856    7.3845   54.7416 C   0  0  0  0  0  0  0  0  0  0  0  0
   22.9519    6.4311   55.3812 O   0  0  0  0  0  0  0  0  0  0  0  0
   21.3141    6.7236   53.6739 C   0  0  0  0  0  0  0  0  0  0  0  0
   21.6291    5.3714   53.6174 O   0  0  0  0  0  0  0  0  0  0  0  0
   21.7577    7.3550   52.3547 C   0  0  0  0  0  0  0  0  0  0  0  0
   23.0258    7.8216   52.6203 O   0  0  0  0  0  0  0  0  0  0  0  0
   22.9993    8.3423   53.9119 C   0  0  0  0  0  0  0  0  0  0  0  0
   22.3702    6.0469   56.1090 H   0  0  0  0  0  0  0  0  0  0  0  0
   21.1632    4.9266   54.3583 H   0  0  0  0  0  0  0  0  0  0  0  0
   24.3466    8.5005   54.3686 N   0  0  0  0  0  0  0  0  0  0  0  0
   24.5952    9.2692   55.4445 C   0  0  0  0  0  0  0  0  0  0  0  0
   23.6336    9.8215   56.0104 O   0  0  0  0  0  0  0  0  0  0  0  0
   25.8467    9.4573   55.9242 N   0  0  0  0  0  0  0  0  0  0  0  0
   26.9304    8.8920   55.3630 C   0  0  0  0  0  0  0  0  0  0  0  0
   28.0976    9.0653   55.8076 O   0  0  0  0  0  0  0  0  0  0  0  0
   26.6958    8.0886   54.2432 C   0  0  0  0  0  0  0  0  0  0  0  0
   25.4079    7.9183   53.7809 C   0  0  0  0  0  0  0  0  0  0  0  0
   26.0324   10.0628   56.7699 H   0  0  0  0  0  0  0  0  0  0  0  0
   20.7976    8.4702   51.9717 C   0  0  0  0  0  0  0  0  0  0  0  0
   20.0756    8.0587   50.8599 O   0  0  0  0  0  0  0  0  0  0  0  0
   20.0312    7.0662   50.8003 H   0  0  0  0  0  0  0  0  0  0  0  0
  1  2  1  0  0  0
  1  3  1  0  0  0
  3  4  1  0  0  0
  3  5  1  0  0  0
  5 19  1  0  0  0
 19 20  1  0  0  0
  5  6  1  0  0  0
  6  7  1  0  0  0
  7 10  1  0  0  0
 10 11  1  0  0  0
 11 12  2  0  0  0
 11 13  1  0  0  0
 13 14  1  0  0  0
 14 15  2  0  0  0
 14 16  1  0  0  0
 16 17  2  0  0  0
  7  1  1  0  0  0
 17 10  1  0  0  0
  2  8  1  0  0  0
  4  9  1  0  0  0
 20 21  1  0  0  0
 13 18  1  0  0  0
M  END
> <minimizedAffinity>
-3.96606

> <CNNscore>
0.6103045940

> <CNNaffinity>
5.0374441147

> <CNN_VS>
3.0743753910

> <CNNaffinity_variance>
0.0552684292

$$$$
[H]OC([H])([H])[C@@]1([H])O[C@]([H])(n2c([H])c([H])c(=O)n([H])c2=O)[C@]([H])(O[H])[C@]1([H])O[H]


 21 22  0  0  0  0  0  0  0  0999 V2000
   26.2009    8.8242   53.5917 C   0  0  0  0  0  0  0  0  0  0  0  0
   25.9726    7.8151   52.6780 O   0  0  0  0  0  0  0  0  0  0  0  0
   27.4630    8.5217   54.3992 C   0  0  0  0  0  0  0  0  0  0  0  0
   27.9439    7.2740   54.0216 O   0  0  0  0  0  0  0  0  0  0  0  0
   26.9889    8.4129   55.8481 C   0  0  0  0  0  0  0  0  0  0  0  0
   25.6465    8.1267   55.7372 O   0  0  0  0  0  0  0  0  0  0  0  0
   25.1598    8.8891   54.6779 C   0  0  0  0  0  0  0  0  0  0  0  0
   26.5308    8.0386   51.8693 H   0  0  0  0  0  0  0  0  0  0  0  0
   28.4372    7.3879   53.1804 H   0  0  0  0  0  0  0  0  0  0  0  0
   23.8852    8.3680   54.2873 N   0  0  0  0  0  0  0  0  0  0  0  0
   22.7633    8.9242   54.7796 C   0  0  0  0  0  0  0  0  0  0  0  0
   22.8756    9.8826   55.5661 O   0  0  0  0  0  0  0  0  0  0  0  0
   21.5299    8.4765   54.4482 N   0  0  0  0  0  0  0  0  0  0  0  0
   21.3349    7.4467   53.6055 C   0  0  0  0  0  0  0  0  0  0  0  0
   20.1869    7.0275   53.2948 O   0  0  0  0  0  0  0  0  0  0  0  0
   22.4871    6.8532   53.0813 C   0  0  0  0  0  0  0  0  0  0  0  0
   23.7284    7.3344   53.4402 C   0  0  0  0  0  0  0  0  0  0  0  0
   20.6542    8.9196   54.8399 H   0  0  0  0  0  0  0  0  0  0  0  0
   27.2442    9.7262   56.5709 C   0  0  0  0  0  0  0  0  0  0  0  0
   28.1953    9.5015   57.5566 O   0  0  0  0  0  0  0  0  0  0  0  0
   28.7677    8.7167   57.3394 H   0  0  0  0  0  0  0  0  0  0  0  0
  1  2  1  0  0  0
  1  3  1  0  0  0
  3  4  1  0  0  0
  3  5  1  0  0  0
  5 19  1  0  0  0
 19 20  1  0  0  0
  5  6  1  0  0  0
  6  7  1  0  0  0
  7 10  1  0  0  0
 10 11  1  0  0  0
 11 12  2  0  0  0
 11 13  1  0  0  0
 13 14  1  0  0  0
 14 15  2  0  0  0
 14 16  1  0  0  0
 16 17  2  0  0  0
  7  1  1  0  0  0
 17 10  1  0  0  0
  2  8  1  0  0  0
  4  9  1  0  0  0
 20 21  1  0  0  0
 13 18  1  0  0  0
M  END
> <minimizedAffinity>
-0.15419

> <CNNscore>
0.5932769179

> <CNNaffinity>
4.9631609917

> <CNN_VS>
2.9445288181

> <CNNaffinity_variance>
0.0741323680

$$$$
[H]OC([H])([H])[C@@]1([H])O[C@]([H])(n2c([H])c([H])c(=O)n([H])c2=O)[C@]([H])(O[H])[C@]1([H])O[H]


 21 22  0  0  0  0  0  0  0  0999 V2000
   22.6676    9.0875   54.5934 C   0  0  0  0  0  0  0  0  0  0  0  0
   23.0847    9.6836   55.7664 O   0  0  0  0  0  0  0  0  0  0  0  0
   21.4775    8.1688   54.8691 C   0  0  0  0  0  0  0  0  0  0  0  0
   21.2379    8.1503   56.2376 O   0  0  0  0  0  0  0  0  0  0  0  0
   21.9533    6.7734   54.4662 C   0  0  0  0  0  0  0  0  0  0  0  0
   23.3262    6.8607   54.5276 O   0  0  0  0  0  0  0  0  0  0  0  0
   23.6711    8.1156   54.0311 C   0  0  0  0  0  0  0  0  0  0  0  0
   22.5005   10.4953   55.8908 H   0  0  0  0  0  0  0  0  0  0  0  0
   20.7380    8.9647   56.4628 H   0  0  0  0  0  0  0  0  0  0  0  0
   25.0228    8.4000   54.4065 N   0  0  0  0  0  0  0  0  0  0  0  0
   25.9962    8.3290   53.4804 C   0  0  0  0  0  0  0  0  0  0  0  0
   25.6827    8.0148   52.3173 O   0  0  0  0  0  0  0  0  0  0  0  0
   27.2921    8.5864   53.7736 N   0  0  0  0  0  0  0  0  0  0  0  0
   27.7013    8.9309   55.0076 C   0  0  0  0  0  0  0  0  0  0  0  0
   28.9080    9.1714   55.2837 O   0  0  0  0  0  0  0  0  0  0  0  0
   26.7063    9.0111   55.9864 C   0  0  0  0  0  0  0  0  0  0  0  0
   25.3956    8.7423   55.6533 C   0  0  0  0  0  0  0  0  0  0  0  0
   28.0500    8.5281   53.0397 H   0  0  0  0  0  0  0  0  0  0  0  0
   21.4548    6.4458   53.0675 C   0  0  0  0  0  0  0  0  0  0  0  0
   20.0776    6.6177   53.0461 O   0  0  0  0  0  0  0  0  0  0  0  0
   19.7786    7.2576   53.7473 H   0  0  0  0  0  0  0  0  0  0  0  0
  1  2  1  0  0  0
  1  3  1  0  0  0
  3  4  1  0  0  0
  3  5  1  0  0  0
  5 19  1  0  0  0
 19 20  1  0  0  0
  5  6  1  0  0  0
  6  7  1  0  0  0
  7 10  1  0  0  0
 10 11  1  0  0  0
 11 12  2  0  0  0
 11 13  1  0  0  0
 13 14  1  0  0  0
 14 15  2  0  0  0
 14 16  1  0  0  0
 16 17  2  0  0  0
  7  1  1  0  0  0
 17 10  1  0  0  0
  2  8  1  0  0  0
  4  9  1  0  0  0
 20 21  1  0  0  0
 13 18  1  0  0  0
M  END
> <minimizedAffinity>
-1.69208

> <CNNscore>
0.5760829449

> <CNNaffinity>
4.7901296616

> <CNN_VS>
2.7595119476

> <CNNaffinity_variance>
0.0902382508

$$$$
[H]OC([H])([H])[C@@]1([H])O[C@]([H])(n2c([H])c([H])c(=O)n([H])c2=O)[C@]([H])(O[H])[C@]1([H])O[H]


 21 22  0  0  0  0  0  0  0  0999 V2000
   22.4204    7.2387   54.9416 C   0  0  0  0  0  0  0  0  0  0  0  0
   23.2519    6.1951   55.2949 O   0  0  0  0  0  0  0  0  0  0  0  0
   21.4214    6.7746   53.8819 C   0  0  0  0  0  0  0  0  0  0  0  0
   21.7179    5.4618   53.5364 O   0  0  0  0  0  0  0  0  0  0  0  0
   21.7064    7.6476   52.6603 C   0  0  0  0  0  0  0  0  0  0  0  0
   23.0005    8.0767   52.8540 O   0  0  0  0  0  0  0  0  0  0  0  0
   23.1343    8.3471   54.2138 C   0  0  0  0  0  0  0  0  0  0  0  0
   22.7600    5.6730   56.0027 H   0  0  0  0  0  0  0  0  0  0  0  0
   21.3420    4.8794   54.2317 H   0  0  0  0  0  0  0  0  0  0  0  0
   24.5281    8.4388   54.5266 N   0  0  0  0  0  0  0  0  0  0  0  0
   25.4169    7.7332   53.8038 C   0  0  0  0  0  0  0  0  0  0  0  0
   24.9902    7.0178   52.8786 O   0  0  0  0  0  0  0  0  0  0  0  0
   26.7468    7.7782   54.0508 N   0  0  0  0  0  0  0  0  0  0  0  0
   27.2764    8.5286   55.0333 C   0  0  0  0  0  0  0  0  0  0  0  0
   28.5150    8.5726   55.2657 O   0  0  0  0  0  0  0  0  0  0  0  0
   26.3711    9.2707   55.7976 C   0  0  0  0  0  0  0  0  0  0  0  0
   25.0225    9.2016   55.5187 C   0  0  0  0  0  0  0  0  0  0  0  0
   27.4374    7.2204   53.4778 H   0  0  0  0  0  0  0  0  0  0  0  0
   20.7148    8.7993   52.6107 C   0  0  0  0  0  0  0  0  0  0  0  0
   21.0969    9.6575   51.5889 O   0  0  0  0  0  0  0  0  0  0  0  0
   21.6323    9.1845   50.8959 H   0  0  0  0  0  0  0  0  0  0  0  0
  1  2  1  0  0  0
  1  3  1  0  0  0
  3  4  1  0  0  0
  3  5  1  0  0  0
  5 19  1  0  0  0
 19 20  1  0  0  0
  5  6  1  0  0  0
  6  7  1  0  0  0
  7 10  1  0  0  0
 10 11  1  0  0  0
 11 12  2  0  0  0
 11 13  1  0  0  0
 13 14  1  0  0  0
 14 15  2  0  0  0
 14 16  1  0  0  0
 16 17  2  0  0  0
  7  1  1  0  0  0
 17 10  1  0  0  0
  2  8  1  0  0  0
  4  9  1  0  0  0
 20 21  1  0  0  0
 13 18  1  0  0  0
M  END
> <minimizedAffinity>
-3.13457

> <CNNscore>
0.5484383106

> <CNNaffinity>
4.9272761345

> <CNN_VS>
2.7023069859

> <CNNaffinity_variance>
0.0937749594

$$$$
[H]OC([H])([H])[C@@]1([H])O[C@]([H])(n2c([H])c([H])c(=O)n([H])c2=O)[C@]([H])(O[H])[C@]1([H])O[H]


 21 22  0  0  0  0  0  0  0  0999 V2000
   22.6914   10.0118   54.9751 C   0  0  0  0  0  0  0  0  0  0  0  0
   22.3375    9.0937   55.9432 O   0  0  0  0  0  0  0  0  0  0  0  0
   21.5749   11.0408   54.7984 C   0  0  0  0  0  0  0  0  0  0  0  0
   20.5059   10.6804   55.6096 O   0  0  0  0  0  0  0  0  0  0  0  0
   21.1227   10.8884   53.3465 C   0  0  0  0  0  0  0  0  0  0  0  0
   21.5240    9.6159   53.0060 O   0  0  0  0  0  0  0  0  0  0  0  0
   22.7712    9.4178   53.5935 C   0  0  0  0  0  0  0  0  0  0  0  0
   22.5927    9.5064   56.8265 H   0  0  0  0  0  0  0  0  0  0  0  0
   20.7138   10.9742   56.5230 H   0  0  0  0  0  0  0  0  0  0  0  0
   23.0636    8.0166   53.5840 N   0  0  0  0  0  0  0  0  0  0  0  0
   24.3197    7.6039   53.3348 C   0  0  0  0  0  0  0  0  0  0  0  0
   25.1922    8.4652   53.1190 O   0  0  0  0  0  0  0  0  0  0  0  0
   24.6583    6.2937   53.3123 N   0  0  0  0  0  0  0  0  0  0  0  0
   23.7678    5.3111   53.5364 C   0  0  0  0  0  0  0  0  0  0  0  0
   24.0803    4.0897   53.5161 O   0  0  0  0  0  0  0  0  0  0  0  0
   22.4557    5.7169   53.7977 C   0  0  0  0  0  0  0  0  0  0  0  0
   22.1452    7.0602   53.8131 C   0  0  0  0  0  0  0  0  0  0  0  0
   25.6476    5.9789   53.1157 H   0  0  0  0  0  0  0  0  0  0  0  0
   21.7856   11.9547   52.4886 C   0  0  0  0  0  0  0  0  0  0  0  0
   21.4847   11.6914   51.1594 O   0  0  0  0  0  0  0  0  0  0  0  0
   20.6424   11.1684   51.0724 H   0  0  0  0  0  0  0  0  0  0  0  0
  1  2  1  0  0  0
  1  3  1  0  0  0
  3  4  1  0  0  0
  3  5  1  0  0  0
  5 19  1  0  0  0
 19 20  1  0  0  0
  5  6  1  0  0  0
  6  7  1  0  0  0
  7 10  1  0  0  0
 10 11  1  0  0  0
 11 12  2  0  0  0
 11 13  1  0  0  0
 13 14  1  0  0  0
 14 15  2  0  0  0
 14 16  1  0  0  0
 16 17  2  0  0  0
  7  1  1  0  0  0
 17 10  1  0  0  0
  2  8  1  0  0  0
  4  9  1  0  0  0
 20 21  1  0  0  0
 13 18  1  0  0  0
M  END
> <minimizedAffinity>
3.19618

> <CNNscore>
0.4433643520

> <CNNaffinity>
4.6090488434

> <CNN_VS>
2.0434880257

> <CNNaffinity_variance>
0.0526041910

$$$$
[H]OC([H])([H])[C@@]1([H])O[C@]([H])(n2c([H])c([H])c(=O)n([H])c2=O)[C@]([H])(O[H])[C@]1([H])O[H]


 21 22  0  0  0  0  0  0  0  0999 V2000
   20.9757    7.4124   54.3019 C   0  0  0  0  0  0  0  0  0  0  0  0
   20.2861    8.4176   54.9494 O   0  0  0  0  0  0  0  0  0  0  0  0
   21.7561    6.5771   55.3166 C   0  0  0  0  0  0  0  0  0  0  0  0
   21.5987    7.1453   56.5748 O   0  0  0  0  0  0  0  0  0  0  0  0
   23.2227    6.7398   54.9184 C   0  0  0  0  0  0  0  0  0  0  0  0
   23.2421    7.9117   54.1956 O   0  0  0  0  0  0  0  0  0  0  0  0
   22.0846    7.9246   53.4209 C   0  0  0  0  0  0  0  0  0  0  0  0
   19.4203    8.0068   55.2611 H   0  0  0  0  0  0  0  0  0  0  0  0
   20.7256    6.8608   56.9222 H   0  0  0  0  0  0  0  0  0  0  0  0
   21.8712    9.2557   52.9399 N   0  0  0  0  0  0  0  0  0  0  0  0
   21.3882    9.4416   51.6980 C   0  0  0  0  0  0  0  0  0  0  0  0
   21.1416    8.4379   51.0041 O   0  0  0  0  0  0  0  0  0  0  0  0
   21.1652   10.6748   51.1869 N   0  0  0  0  0  0  0  0  0  0  0  0
   21.4089   11.8014   51.8799 C   0  0  0  0  0  0  0  0  0  0  0  0
   21.2020   12.9517   51.4065 O   0  0  0  0  0  0  0  0  0  0  0  0
   21.9114   11.6322   53.1735 C   0  0  0  0  0  0  0  0  0  0  0  0
   22.1269   10.3613   53.6630 C   0  0  0  0  0  0  0  0  0  0  0  0
   20.7856   10.8112   50.2104 H   0  0  0  0  0  0  0  0  0  0  0  0
   23.6656    5.5419   54.0931 C   0  0  0  0  0  0  0  0  0  0  0  0
   24.4742    6.0001   53.0621 O   0  0  0  0  0  0  0  0  0  0  0  0
   24.9016    6.8691   53.2920 H   0  0  0  0  0  0  0  0  0  0  0  0
  1  2  1  0  0  0
  1  3  1  0  0  0
  3  4  1  0  0  0
  3  5  1  0  0  0
  5 19  1  0  0  0
 19 20  1  0  0  0
  5  6  1  0  0  0
  6  7  1  0  0  0
  7 10  1  0  0  0
 10 11  1  0  0  0
 11 12  2  0  0  0
 11 13  1  0  0  0
 13 14  1  0  0  0
 14 15  2  0  0  0
 14 16  1  0  0  0
 16 17  2  0  0  0
  7  1  1  0  0  0
 17 10  1  0  0  0
  2  8  1  0  0  0
  4  9  1  0  0  0
 20 21  1  0  0  0
 13 18  1  0  0  0
M  END
> <minimizedAffinity>
-0.09512

> <CNNscore>
0.4394384325

> <CNNaffinity>
4.6012539864

> <CNN_VS>
2.0219678879

> <CNNaffinity_variance>
0.0355807096

$$$$
[H]OC([H])([H])[C@@]1([H])O[C@]([H])(n2c([H])c([H])c(=O)n([H])c2=O)[C@]([H])(O[H])[C@]1([H])O[H]


 21 22  0  0  0  0  0  0  0  0999 V2000
   24.0530    8.1201   55.3324 C   0  0  0  0  0  0  0  0  0  0  0  0
   23.1021    9.1009   55.5294 O   0  0  0  0  0  0  0  0  0  0  0  0
   25.4524    8.7023   55.5304 C   0  0  0  0  0  0  0  0  0  0  0  0
   25.3370   10.0674   55.7627 O   0  0  0  0  0  0  0  0  0  0  0  0
   26.1501    8.5222   54.1826 C   0  0  0  0  0  0  0  0  0  0  0  0
   25.1124    8.4067   53.2848 O   0  0  0  0  0  0  0  0  0  0  0  0
   24.1275    7.6425   53.9061 C   0  0  0  0  0  0  0  0  0  0  0  0
   22.9361    9.1340   56.5229 H   0  0  0  0  0  0  0  0  0  0  0  0
   25.0882   10.1885   56.7048 H   0  0  0  0  0  0  0  0  0  0  0  0
   22.9032    7.7977   53.1810 N   0  0  0  0  0  0  0  0  0  0  0  0
   22.0063    6.7948   53.1732 C   0  0  0  0  0  0  0  0  0  0  0  0
   22.2768    5.7562   53.8040 O   0  0  0  0  0  0  0  0  0  0  0  0
   20.8316    6.8816   52.5068 N   0  0  0  0  0  0  0  0  0  0  0  0
   20.4751    7.9725   51.8056 C   0  0  0  0  0  0  0  0  0  0  0  0
   19.3813    8.0562   51.1838 O   0  0  0  0  0  0  0  0  0  0  0  0
   21.3921    9.0277   51.7998 C   0  0  0  0  0  0  0  0  0  0  0  0
   22.5798    8.9059   52.4896 C   0  0  0  0  0  0  0  0  0  0  0  0
   20.1333    6.0887   52.5063 H   0  0  0  0  0  0  0  0  0  0  0  0
   27.0254    7.2793   54.2206 C   0  0  0  0  0  0  0  0  0  0  0  0
   28.3499    7.6774   54.1032 O   0  0  0  0  0  0  0  0  0  0  0  0
   28.4781    8.6150   54.4118 H   0  0  0  0  0  0  0  0  0  0  0  0
  1  2  1  0  0  0
  1  3  1  0  0  0
  3  4  1  0  0  0
  3  5  1  0  0  0
  5 19  1  0  0  0
 19 20  1  0  0  0
  5  6  1  0  0  0
  6  7  1  0  0  0
  7 10  1  0  0  0
 10 11  1  0  0  0
 11 12  2  0  0  0
 11 13  1  0  0  0
 13 14  1  0  0  0
 14 15  2  0  0  0
 14 16  1  0  0  0
 16 17  2  0  0  0
  7  1  1  0  0  0
 17 10  1  0  0  0
  2  8  1  0  0  0
  4  9  1  0  0  0
 20 21  1  0  0  0
 13 18  1  0  0  0
M  END
> <minimizedAffinity>
0.90924

> <CNNscore>
0.4309008718

> <CNNaffinity>
4.7510542870

> <CNN_VS>
2.0472333431

> <CNNaffinity_variance>
0.0198554881

$$$$
[H]OC([H])([H])[C@@]1([H])O[C@]([H])(n2c([H])c([H])c(=O)n([H])c2=O)[C@]([H])(O[H])[C@]1([H])O[H]


 21 22  0  0  0  0  0  0  0  0999 V2000
   22.3935    9.3466   54.6905 C   0  0  0  0  0  0  0  0  0  0  0  0
   21.8027    8.6883   55.7501 O   0  0  0  0  0  0  0  0  0  0  0  0
   21.9890   10.8206   54.7005 C   0  0  0  0  0  0  0  0  0  0  0  0
   21.0763   11.0239   55.7283 O   0  0  0  0  0  0  0  0  0  0  0  0
   21.2507   11.0372   53.3800 C   0  0  0  0  0  0  0  0  0  0  0  0
   20.8354    9.7742   53.0212 O   0  0  0  0  0  0  0  0  0  0  0  0
   21.8713    8.9028   53.3494 C   0  0  0  0  0  0  0  0  0  0  0  0
   22.4060    8.8374   56.5434 H   0  0  0  0  0  0  0  0  0  0  0  0
   21.5833   11.0955   56.5660 H   0  0  0  0  0  0  0  0  0  0  0  0
   21.3627    7.5649   53.3423 N   0  0  0  0  0  0  0  0  0  0  0  0
   22.1946    6.5388   53.5977 C   0  0  0  0  0  0  0  0  0  0  0  0
   23.3903    6.7928   53.8336 O   0  0  0  0  0  0  0  0  0  0  0  0
   21.7738    5.2525   53.6055 N   0  0  0  0  0  0  0  0  0  0  0  0
   20.4978    4.9061   53.3594 C   0  0  0  0  0  0  0  0  0  0  0  0
   20.1027    3.7086   53.3660 O   0  0  0  0  0  0  0  0  0  0  0  0
   19.6151    5.9565   53.0914 C   0  0  0  0  0  0  0  0  0  0  0  0
   20.0774    7.2556   53.0915 C   0  0  0  0  0  0  0  0  0  0  0  0
   22.4345    4.4530   53.8071 H   0  0  0  0  0  0  0  0  0  0  0  0
   22.1965   11.6488   52.3584 C   0  0  0  0  0  0  0  0  0  0  0  0
   21.4796   11.8942   51.1954 O   0  0  0  0  0  0  0  0  0  0  0  0
   20.5082   12.0050   51.3819 H   0  0  0  0  0  0  0  0  0  0  0  0
  1  2  1  0  0  0
  1  3  1  0  0  0
  3  4  1  0  0  0
  3  5  1  0  0  0
  5 19  1  0  0  0
 19 20  1  0  0  0
  5  6  1  0  0  0
  6  7  1  0  0  0
  7 10  1  0  0  0
 10 11  1  0  0  0
 11 12  2  0  0  0
 11 13  1  0  0  0
 13 14  1  0  0  0
 14 15  2  0  0  0
 14 16  1  0  0  0
 16 17  2  0  0  0
  7  1  1  0  0  0
 17 10  1  0  0  0
  2  8  1  0  0  0
  4  9  1  0  0  0
 20 21  1  0  0  0
 13 18  1  0  0  0
M  END
> <minimizedAffinity>
5.28144

> <CNNscore>
0.4255426228

> <CNNaffinity>
4.9020996094

> <CNN_VS>
2.0860524178

> <CNNaffinity_variance>
0.1778001040

$$$$
[H]c1c([H])c(N2C(=O)C(=O)N(c3c([H])c([H])c(C#N)c([H])c3[H])C(C([H])([H])[H])(C([H])([H])[H])C2=O)c([H])c([H])c1C#N


 27 29  0  0  0  0  0  0  0  0999 V2000
   22.3551    5.6616   53.4723 C   0  0  0  0  0  0  0  0  0  0  0  0
   22.2423    4.4163   53.2011 O   0  0  0  0  0  0  0  0  0  0  0  0
   21.1908    6.4760   53.5589 N   0  0  0  0  0  0  0  0  0  0  0  0
   21.3546    7.8913   53.5465 C   0  0  0  0  0  0  0  0  0  0  0  0
   20.2993    8.6085   54.3792 C   0  0  0  0  0  0  0  0  0  0  0  0
   21.2407    8.4785   52.1368 C   0  0  0  0  0  0  0  0  0  0  0  0
   22.6770    8.3332   54.0602 C   0  0  0  0  0  0  0  0  0  0  0  0
   22.7787    9.4826   54.6112 O   0  0  0  0  0  0  0  0  0  0  0  0
   23.8645    7.5541   53.9827 N   0  0  0  0  0  0  0  0  0  0  0  0
   23.6901    6.1739   53.6783 C   0  0  0  0  0  0  0  0  0  0  0  0
   24.7141    5.4463   53.5997 O   0  0  0  0  0  0  0  0  0  0  0  0
   19.9441    5.8003   53.6525 C   0  0  0  0  0  0  0  0  0  0  0  0
   18.7958    6.5624   53.6528 C   0  0  0  0  0  0  0  0  0  0  0  0
   17.5317    6.0017   53.7399 C   0  0  0  0  0  0  0  0  0  0  0  0
   17.4361    4.6246   53.8292 C   0  0  0  0  0  0  0  0  0  0  0  0
   18.5577    3.8213   53.8325 C   0  0  0  0  0  0  0  0  0  0  0  0
   19.8142    4.4301   53.7426 C   0  0  0  0  0  0  0  0  0  0  0  0
   16.1365    4.0222   53.9205 C   0  0  0  0  0  0  0  0  0  0  0  0
   15.0811    3.5400   53.9834 N   0  0  0  0  0  0  0  0  0  0  0  0
   25.1583    8.1200   54.1974 C   0  0  0  0  0  0  0  0  0  0  0  0
   25.6290    8.5319   55.4227 C   0  0  0  0  0  0  0  0  0  0  0  0
   26.8781    9.0701   55.5850 C   0  0  0  0  0  0  0  0  0  0  0  0
   27.7327    9.2247   54.5077 C   0  0  0  0  0  0  0  0  0  0  0  0
   27.2663    8.8137   53.2773 C   0  0  0  0  0  0  0  0  0  0  0  0
   26.0000    8.2688   53.1158 C   0  0  0  0  0  0  0  0  0  0  0  0
   29.0406    9.7880   54.6753 C   0  0  0  0  0  0  0  0  0  0  0  0
   30.1026   10.2605   54.7974 N   0  0  0  0  0  0  0  0  0  0  0  0
  1  2  2  0  0  0
  1  3  1  0  0  0
  3 12  1  0  0  0
 12 13  2  0  0  0
 13 14  1  0  0  0
 14 15  2  0  0  0
 15 18  1  0  0  0
 18 19  3  0  0  0
 15 16  1  0  0  0
 16 17  2  0  0  0
  3  4  1  0  0  0
  4  5  1  0  0  0
  4  6  1  0  0  0
  4  7  1  0  0  0
  7  8  2  0  0  0
  7  9  1  0  0  0
  9 20  1  0  0  0
 20 21  2  0  0  0
 21 22  1  0  0  0
 22 23  2  0  0  0
 23 26  1  0  0  0
 26 27  3  0  0  0
 23 24  1  0  0  0
 24 25  2  0  0  0
  9 10  1  0  0  0
 10 11  2  0  0  0
 10  1  1  0  0  0
 17 12  1  0  0  0
 25 20  1  0  0  0
M  END
> <minimizedAffinity>
21.83247

> <CNNscore>
0.6718215346

> <CNNaffinity>
6.1180086136

> <CNN_VS>
4.1102099419

> <CNNaffinity_variance>
0.4556068778

$$$$
[H]c1c([H])c(N2C(=O)C(=O)N(c3c([H])c([H])c(C#N)c([H])c3[H])C(C([H])([H])[H])(C([H])([H])[H])C2=O)c([H])c([H])c1C#N


 27 29  0  0  0  0  0  0  0  0999 V2000
   24.8950    9.6734   56.3284 C   0  0  0  0  0  0  0  0  0  0  0  0
   24.6084   10.6644   57.0853 O   0  0  0  0  0  0  0  0  0  0  0  0
   26.2521    9.2754   56.1662 N   0  0  0  0  0  0  0  0  0  0  0  0
   26.5731    8.3927   55.0947 C   0  0  0  0  0  0  0  0  0  0  0  0
   27.7288    7.4594   55.4334 C   0  0  0  0  0  0  0  0  0  0  0  0
   27.0022    9.1431   53.8307 C   0  0  0  0  0  0  0  0  0  0  0  0
   25.4346    7.5310   54.6835 C   0  0  0  0  0  0  0  0  0  0  0  0
   25.6746    6.3833   54.1734 O   0  0  0  0  0  0  0  0  0  0  0  0
   24.0668    7.8970   54.8189 N   0  0  0  0  0  0  0  0  0  0  0  0
   23.7957    9.0055   55.6708 C   0  0  0  0  0  0  0  0  0  0  0  0
   22.5987    9.3644   55.8202 O   0  0  0  0  0  0  0  0  0  0  0  0
   27.1872    9.7982   57.0999 C   0  0  0  0  0  0  0  0  0  0  0  0
   27.4505   11.1504   57.0607 C   0  0  0  0  0  0  0  0  0  0  0  0
   28.3449   11.7588   57.9267 C   0  0  0  0  0  0  0  0  0  0  0  0
   28.9888   10.9655   58.8591 C   0  0  0  0  0  0  0  0  0  0  0  0
   28.7570    9.6077   58.9358 C   0  0  0  0  0  0  0  0  0  0  0  0
   27.8458    9.0353   58.0415 C   0  0  0  0  0  0  0  0  0  0  0  0
   29.9196   11.5747   59.7662 C   0  0  0  0  0  0  0  0  0  0  0  0
   30.6694   12.0793   60.4967 N   0  0  0  0  0  0  0  0  0  0  0  0
   23.0233    7.1954   54.1414 C   0  0  0  0  0  0  0  0  0  0  0  0
   22.2407    7.7412   53.1503 C   0  0  0  0  0  0  0  0  0  0  0  0
   21.2491    7.0324   52.5254 C   0  0  0  0  0  0  0  0  0  0  0  0
   20.9882    5.7177   52.8690 C   0  0  0  0  0  0  0  0  0  0  0  0
   21.7693    5.1654   53.8616 C   0  0  0  0  0  0  0  0  0  0  0  0
   22.7734    5.8861   54.4932 C   0  0  0  0  0  0  0  0  0  0  0  0
   19.9505    4.9739   52.2162 C   0  0  0  0  0  0  0  0  0  0  0  0
   19.1169    4.3649   51.6683 N   0  0  0  0  0  0  0  0  0  0  0  0
  1  2  2  0  0  0
  1  3  1  0  0  0
  3 12  1  0  0  0
 12 13  2  0  0  0
 13 14  1  0  0  0
 14 15  2  0  0  0
 15 18  1  0  0  0
 18 19  3  0  0  0
 15 16  1  0  0  0
 16 17  2  0  0  0
  3  4  1  0  0  0
  4  5  1  0  0  0
  4  6  1  0  0  0
  4  7  1  0  0  0
  7  8  2  0  0  0
  7  9  1  0  0  0
  9 20  1  0  0  0
 20 21  2  0  0  0
 21 22  1  0  0  0
 22 23  2  0  0  0
 23 26  1  0  0  0
 26 27  3  0  0  0
 23 24  1  0  0  0
 24 25  2  0  0  0
  9 10  1  0  0  0
 10 11  2  0  0  0
 10  1  1  0  0  0
 17 12  1  0  0  0
 25 20  1  0  0  0
M  END
> <minimizedAffinity>
30.49031

> <CNNscore>
0.5972793698

> <CNNaffinity>
5.6168417931

> <CNN_VS>
3.3548238277

> <CNNaffinity_variance>
0.2723329663

$$$$
[H]c1c([H])c(N2C(=O)C(=O)N(c3c([H])c([H])c(C#N)c([H])c3[H])C(C([H])([H])[H])(C([H])([H])[H])C2=O)c([H])c([H])c1C#N


 27 29  0  0  0  0  0  0  0  0999 V2000
   24.9827    7.8707   54.3483 C   0  0  0  0  0  0  0  0  0  0  0  0
   25.2964    7.0968   53.3789 O   0  0  0  0  0  0  0  0  0  0  0  0
   23.6136    8.1614   54.6080 N   0  0  0  0  0  0  0  0  0  0  0  0
   23.3073    9.2525   55.4716 C   0  0  0  0  0  0  0  0  0  0  0  0
   22.0339    9.0211   56.2756 C   0  0  0  0  0  0  0  0  0  0  0  0
   23.0818   10.5578   54.7034 C   0  0  0  0  0  0  0  0  0  0  0  0
   24.3847    9.5444   56.4525 C   0  0  0  0  0  0  0  0  0  0  0  0
   24.0771   10.0670   57.5782 O   0  0  0  0  0  0  0  0  0  0  0  0
   25.7636    9.2791   56.2262 N   0  0  0  0  0  0  0  0  0  0  0  0
   26.0650    8.4131   55.1367 C   0  0  0  0  0  0  0  0  0  0  0  0
   27.2728    8.1504   54.8998 O   0  0  0  0  0  0  0  0  0  0  0  0
   22.6523    7.3271   53.9759 C   0  0  0  0  0  0  0  0  0  0  0  0
   22.4755    6.0545   54.4745 C   0  0  0  0  0  0  0  0  0  0  0  0
   21.5644    5.1632   53.9307 C   0  0  0  0  0  0  0  0  0  0  0  0
   20.8123    5.5820   52.8480 C   0  0  0  0  0  0  0  0  0  0  0  0
   20.9547    6.8465   52.3151 C   0  0  0  0  0  0  0  0  0  0  0  0
   21.8867    7.7137   52.8958 C   0  0  0  0  0  0  0  0  0  0  0  0
   19.8624    4.6752   52.2687 C   0  0  0  0  0  0  0  0  0  0  0  0
   19.1029    3.9335   51.7958 N   0  0  0  0  0  0  0  0  0  0  0  0
   26.7891    9.8466   57.0427 C   0  0  0  0  0  0  0  0  0  0  0  0
   27.2002   11.1573   56.9690 C   0  0  0  0  0  0  0  0  0  0  0  0
   28.1887   11.6618   57.7719 C   0  0  0  0  0  0  0  0  0  0  0  0
   28.8254   10.8631   58.7053 C   0  0  0  0  0  0  0  0  0  0  0  0
   28.4174    9.5486   58.7838 C   0  0  0  0  0  0  0  0  0  0  0  0
   27.4156    9.0401   57.9688 C   0  0  0  0  0  0  0  0  0  0  0  0
   29.8605   11.3891   59.5467 C   0  0  0  0  0  0  0  0  0  0  0  0
   30.6902   11.8274   60.2434 N   0  0  0  0  0  0  0  0  0  0  0  0
  1  2  2  0  0  0
  1  3  1  0  0  0
  3 12  1  0  0  0
 12 13  2  0  0  0
 13 14  1  0  0  0
 14 15  2  0  0  0
 15 18  1  0  0  0
 18 19  3  0  0  0
 15 16  1  0  0  0
 16 17  2  0  0  0
  3  4  1  0  0  0
  4  5  1  0  0  0
  4  6  1  0  0  0
  4  7  1  0  0  0
  7  8  2  0  0  0
  7  9  1  0  0  0
  9 20  1  0  0  0
 20 21  2  0  0  0
 21 22  1  0  0  0
 22 23  2  0  0  0
 23 26  1  0  0  0
 26 27  3  0  0  0
 23 24  1  0  0  0
 24 25  2  0  0  0
  9 10  1  0  0  0
 10 11  2  0  0  0
 10  1  1  0  0  0
 17 12  1  0  0  0
 25 20  1  0  0  0
M  END
> <minimizedAffinity>
29.16710

> <CNNscore>
0.5620107651

> <CNNaffinity>
5.4759874344

> <CNN_VS>
3.0775640011

> <CNNaffinity_variance>
0.0883583874

$$$$
[H]c1c([H])c(N2C(=O)C(=O)N(c3c([H])c([H])c(C#N)c([H])c3[H])C(C([H])([H])[H])(C([H])([H])[H])C2=O)c([H])c([H])c1C#N


 27 29  0  0  0  0  0  0  0  0999 V2000
   23.4707    8.9918   55.7098 C   0  0  0  0  0  0  0  0  0  0  0  0
   22.2396    9.1065   56.0387 O   0  0  0  0  0  0  0  0  0  0  0  0
   23.8169    8.4550   54.4375 N   0  0  0  0  0  0  0  0  0  0  0  0
   25.1650    8.0477   54.2210 C   0  0  0  0  0  0  0  0  0  0  0  0
   25.6097    8.2450   52.7771 C   0  0  0  0  0  0  0  0  0  0  0  0
   25.3800    6.5618   54.5222 C   0  0  0  0  0  0  0  0  0  0  0  0
   26.1416    8.7758   55.0720 C   0  0  0  0  0  0  0  0  0  0  0  0
   27.3368    8.9391   54.6481 O   0  0  0  0  0  0  0  0  0  0  0  0
   25.8377    9.3167   56.3519 N   0  0  0  0  0  0  0  0  0  0  0  0
   24.4549    9.4252   56.6745 C   0  0  0  0  0  0  0  0  0  0  0  0
   24.1395    9.8987   57.7971 O   0  0  0  0  0  0  0  0  0  0  0  0
   22.7746    8.3693   53.4753 C   0  0  0  0  0  0  0  0  0  0  0  0
   22.2899    9.5445   52.9431 C   0  0  0  0  0  0  0  0  0  0  0  0
   21.2758    9.5703   51.9992 C   0  0  0  0  0  0  0  0  0  0  0  0
   20.7411    8.3632   51.5863 C   0  0  0  0  0  0  0  0  0  0  0  0
   21.1945    7.1619   52.0909 C   0  0  0  0  0  0  0  0  0  0  0  0
   22.2201    7.1829   53.0424 C   0  0  0  0  0  0  0  0  0  0  0  0
   19.6896    8.3663   50.6093 C   0  0  0  0  0  0  0  0  0  0  0  0
   18.8303    8.3641   49.8270 N   0  0  0  0  0  0  0  0  0  0  0  0
   26.8578    9.7283   57.2630 C   0  0  0  0  0  0  0  0  0  0  0  0
   27.5564    8.8710   58.0812 C   0  0  0  0  0  0  0  0  0  0  0  0
   28.5285    9.3079   58.9416 C   0  0  0  0  0  0  0  0  0  0  0  0
   28.8543   10.6501   59.0261 C   0  0  0  0  0  0  0  0  0  0  0  0
   28.1574   11.5140   58.2084 C   0  0  0  0  0  0  0  0  0  0  0  0
   27.1728   11.0684   57.3376 C   0  0  0  0  0  0  0  0  0  0  0  0
   29.8714   11.1097   59.9262 C   0  0  0  0  0  0  0  0  0  0  0  0
   30.6900   11.5014   60.6628 N   0  0  0  0  0  0  0  0  0  0  0  0
  1  2  2  0  0  0
  1  3  1  0  0  0
  3 12  1  0  0  0
 12 13  2  0  0  0
 13 14  1  0  0  0
 14 15  2  0  0  0
 15 18  1  0  0  0
 18 19  3  0  0  0
 15 16  1  0  0  0
 16 17  2  0  0  0
  3  4  1  0  0  0
  4  5  1  0  0  0
  4  6  1  0  0  0
  4  7  1  0  0  0
  7  8  2  0  0  0
  7  9  1  0  0  0
  9 20  1  0  0  0
 20 21  2  0  0  0
 21 22  1  0  0  0
 22 23  2  0  0  0
 23 26  1  0  0  0
 26 27  3  0  0  0
 23 24  1  0  0  0
 24 25  2  0  0  0
  9 10  1  0  0  0
 10 11  2  0  0  0
 10  1  1  0  0  0
 17 12  1  0  0  0
 25 20  1  0  0  0
M  END
> <minimizedAffinity>
23.03564

> <CNNscore>
0.4909641445

> <CNNaffinity>
5.5531115532

> <CNN_VS>
2.7263786793

> <CNNaffinity_variance>
0.3213307559

$$$$
[H]c1c([H])c(N2C(=O)C(=O)N(c3c([H])c([H])c(C#N)c([H])c3[H])C(C([H])([H])[H])(C([H])([H])[H])C2=O)c([H])c([H])c1C#N


 27 29  0  0  0  0  0  0  0  0999 V2000
   21.4317    7.2888   53.1193 C   0  0  0  0  0  0  0  0  0  0  0  0
   20.6018    7.6125   52.2008 O   0  0  0  0  0  0  0  0  0  0  0  0
   21.0249    6.4120   54.1644 N   0  0  0  0  0  0  0  0  0  0  0  0
   21.8460    6.3189   55.3251 C   0  0  0  0  0  0  0  0  0  0  0  0
   21.8154    4.9305   55.9520 C   0  0  0  0  0  0  0  0  0  0  0  0
   21.4043    7.2829   56.4298 C   0  0  0  0  0  0  0  0  0  0  0  0
   23.2732    6.6369   55.0611 C   0  0  0  0  0  0  0  0  0  0  0  0
   24.1762    6.0989   55.7891 O   0  0  0  0  0  0  0  0  0  0  0  0
   23.7187    7.5154   54.0349 N   0  0  0  0  0  0  0  0  0  0  0  0
   22.7611    7.8479   53.0347 C   0  0  0  0  0  0  0  0  0  0  0  0
   23.1120    8.6224   52.1069 O   0  0  0  0  0  0  0  0  0  0  0  0
   19.8171    5.6917   53.9601 C   0  0  0  0  0  0  0  0  0  0  0  0
   18.6307    6.3901   54.0246 C   0  0  0  0  0  0  0  0  0  0  0  0
   17.3993    5.7821   53.8401 C   0  0  0  0  0  0  0  0  0  0  0  0
   17.3774    4.4233   53.5824 C   0  0  0  0  0  0  0  0  0  0  0  0
   18.5392    3.6831   53.5084 C   0  0  0  0  0  0  0  0  0  0  0  0
   19.7605    4.3381   53.7012 C   0  0  0  0  0  0  0  0  0  0  0  0
   16.1128    3.7727   53.3881 C   0  0  0  0  0  0  0  0  0  0  0  0
   15.0897    3.2484   53.2184 N   0  0  0  0  0  0  0  0  0  0  0  0
   25.0487    8.0354   54.0062 C   0  0  0  0  0  0  0  0  0  0  0  0
   25.8040    8.1659   52.8637 C   0  0  0  0  0  0  0  0  0  0  0  0
   27.0773    8.6703   52.8804 C   0  0  0  0  0  0  0  0  0  0  0  0
   27.6674    9.0764   54.0643 C   0  0  0  0  0  0  0  0  0  0  0  0
   26.9152    8.9479   55.2125 C   0  0  0  0  0  0  0  0  0  0  0  0
   25.6251    8.4363   55.1926 C   0  0  0  0  0  0  0  0  0  0  0  0
   29.0003    9.6045   54.0841 C   0  0  0  0  0  0  0  0  0  0  0  0
   30.0793   10.0533   54.1046 N   0  0  0  0  0  0  0  0  0  0  0  0
  1  2  2  0  0  0
  1  3  1  0  0  0
  3 12  1  0  0  0
 12 13  2  0  0  0
 13 14  1  0  0  0
 14 15  2  0  0  0
 15 18  1  0  0  0
 18 19  3  0  0  0
 15 16  1  0  0  0
 16 17  2  0  0  0
  3  4  1  0  0  0
  4  5  1  0  0  0
  4  6  1  0  0  0
  4  7  1  0  0  0
  7  8  2  0  0  0
  7  9  1  0  0  0
  9 20  1  0  0  0
 20 21  2  0  0  0
 21 22  1  0  0  0
 22 23  2  0  0  0
 23 26  1  0  0  0
 26 27  3  0  0  0
 23 24  1  0  0  0
 24 25  2  0  0  0
  9 10  1  0  0  0
 10 11  2  0  0  0
 10  1  1  0  0  0
 17 12  1  0  0  0
 25 20  1  0  0  0
M  END
> <minimizedAffinity>
31.30213

> <CNNscore>
0.4675734043

> <CNNaffinity>
5.8342919350

> <CNN_VS>
2.7279596329

> <CNNaffinity_variance>
0.4499987066

$$$$
[H]c1c([H])c(N2C(=O)C(=O)N(c3c([H])c([H])c(C#N)c([H])c3[H])C(C([H])([H])[H])(C([H])([H])[H])C2=O)c([H])c([H])c1C#N


 27 29  0  0  0  0  0  0  0  0999 V2000
   23.6702    7.4907   53.0316 C   0  0  0  0  0  0  0  0  0  0  0  0
   24.4655    6.5570   52.6673 O   0  0  0  0  0  0  0  0  0  0  0  0
   24.0533    8.3806   54.0747 N   0  0  0  0  0  0  0  0  0  0  0  0
   23.0474    9.1953   54.6701 C   0  0  0  0  0  0  0  0  0  0  0  0
   23.5851   10.5454   55.1281 C   0  0  0  0  0  0  0  0  0  0  0  0
   22.4355    8.5480   55.9157 C   0  0  0  0  0  0  0  0  0  0  0  0
   21.9060    9.4761   53.7612 C   0  0  0  0  0  0  0  0  0  0  0  0
   21.2446   10.5604   53.9087 O   0  0  0  0  0  0  0  0  0  0  0  0
   21.4858    8.6082   52.7156 N   0  0  0  0  0  0  0  0  0  0  0  0
   22.4032    7.5843   52.3440 C   0  0  0  0  0  0  0  0  0  0  0  0
   22.0729    6.7930   51.4227 O   0  0  0  0  0  0  0  0  0  0  0  0
   25.4266    8.3830   54.4401 C   0  0  0  0  0  0  0  0  0  0  0  0
   26.3515    8.0473   53.4751 C   0  0  0  0  0  0  0  0  0  0  0  0
   27.7135    8.0195   53.7287 C   0  0  0  0  0  0  0  0  0  0  0  0
   28.1442    8.3433   55.0026 C   0  0  0  0  0  0  0  0  0  0  0  0
   27.2554    8.6856   56.0006 C   0  0  0  0  0  0  0  0  0  0  0  0
   25.8889    8.7007   55.7002 C   0  0  0  0  0  0  0  0  0  0  0  0
   29.5508    8.3208   55.2878 C   0  0  0  0  0  0  0  0  0  0  0  0
   30.6908    8.2923   55.5115 N   0  0  0  0  0  0  0  0  0  0  0  0
   20.2182    8.7526   52.0733 C   0  0  0  0  0  0  0  0  0  0  0  0
   19.1179    7.9743   52.3492 C   0  0  0  0  0  0  0  0  0  0  0  0
   17.9192    8.1464   51.7091 C   0  0  0  0  0  0  0  0  0  0  0  0
   17.7611    9.1248   50.7436 C   0  0  0  0  0  0  0  0  0  0  0  0
   18.8604    9.9079   50.4630 C   0  0  0  0  0  0  0  0  0  0  0  0
   20.0739    9.7312   51.1130 C   0  0  0  0  0  0  0  0  0  0  0  0
   16.5072    9.3066   50.0722 C   0  0  0  0  0  0  0  0  0  0  0  0
   15.4879    9.4747   49.5256 N   0  0  0  0  0  0  0  0  0  0  0  0
  1  2  2  0  0  0
  1  3  1  0  0  0
  3 12  1  0  0  0
 12 13  2  0  0  0
 13 14  1  0  0  0
 14 15  2  0  0  0
 15 18  1  0  0  0
 18 19  3  0  0  0
 15 16  1  0  0  0
 16 17  2  0  0  0
  3  4  1  0  0  0
  4  5  1  0  0  0
  4  6  1  0  0  0
  4  7  1  0  0  0
  7  8  2  0  0  0
  7  9  1  0  0  0
  9 20  1  0  0  0
 20 21  2  0  0  0
 21 22  1  0  0  0
 22 23  2  0  0  0
 23 26  1  0  0  0
 26 27  3  0  0  0
 23 24  1  0  0  0
 24 25  2  0  0  0
  9 10  1  0  0  0
 10 11  2  0  0  0
 10  1  1  0  0  0
 17 12  1  0  0  0
 25 20  1  0  0  0
M  END
> <minimizedAffinity>
47.34896

> <CNNscore>
0.4427084923

> <CNNaffinity>
5.4140343666

> <CNN_VS>
2.3968389034

> <CNNaffinity_variance>
0.3781183958

$$$$
[H]c1c([H])c(N2C(=O)C(=O)N(c3c([H])c([H])c(C#N)c([H])c3[H])C(C([H])([H])[H])(C([H])([H])[H])C2=O)c([H])c([H])c1C#N


 27 29  0  0  0  0  0  0  0  0999 V2000
   22.0131    7.1240   52.3325 C   0  0  0  0  0  0  0  0  0  0  0  0
   21.5479    6.1750   51.6114 O   0  0  0  0  0  0  0  0  0  0  0  0
   22.9804    6.8409   53.3378 N   0  0  0  0  0  0  0  0  0  0  0  0
   23.2435    7.8380   54.3211 C   0  0  0  0  0  0  0  0  0  0  0  0
   24.6901    7.8194   54.7989 C   0  0  0  0  0  0  0  0  0  0  0  0
   22.3886    7.6557   55.5785 C   0  0  0  0  0  0  0  0  0  0  0  0
   22.9686    9.2184   53.8449 C   0  0  0  0  0  0  0  0  0  0  0  0
   23.6288   10.1926   54.3448 O   0  0  0  0  0  0  0  0  0  0  0  0
   22.0038    9.5429   52.8515 N   0  0  0  0  0  0  0  0  0  0  0  0
   21.5144    8.4550   52.0737 C   0  0  0  0  0  0  0  0  0  0  0  0
   20.6590    8.6960   51.1825 O   0  0  0  0  0  0  0  0  0  0  0  0
   23.6128    5.5698   53.2760 C   0  0  0  0  0  0  0  0  0  0  0  0
   24.5632    5.3691   52.2983 C   0  0  0  0  0  0  0  0  0  0  0  0
   25.2376    4.1674   52.1529 C   0  0  0  0  0  0  0  0  0  0  0  0
   24.9340    3.1414   53.0296 C   0  0  0  0  0  0  0  0  0  0  0  0
   23.9901    3.2962   54.0238 C   0  0  0  0  0  0  0  0  0  0  0  0
   23.3335    4.5268   54.1341 C   0  0  0  0  0  0  0  0  0  0  0  0
   25.6203    1.8877   52.8973 C   0  0  0  0  0  0  0  0  0  0  0  0
   26.1768    0.8719   52.8028 N   0  0  0  0  0  0  0  0  0  0  0  0
   21.5501   10.8812   52.6433 C   0  0  0  0  0  0  0  0  0  0  0  0
   21.0229   11.6818   53.6301 C   0  0  0  0  0  0  0  0  0  0  0  0
   20.5991   12.9615   53.3874 C   0  0  0  0  0  0  0  0  0  0  0  0
   20.6846   13.5122   52.1208 C   0  0  0  0  0  0  0  0  0  0  0  0
   21.2123   12.7145   51.1279 C   0  0  0  0  0  0  0  0  0  0  0  0
   21.6407   11.4180   51.3767 C   0  0  0  0  0  0  0  0  0  0  0  0
   20.2415   14.8516   51.8645 C   0  0  0  0  0  0  0  0  0  0  0  0
   19.8617   15.9380   51.6610 N   0  0  0  0  0  0  0  0  0  0  0  0
  1  2  2  0  0  0
  1  3  1  0  0  0
  3 12  1  0  0  0
 12 13  2  0  0  0
 13 14  1  0  0  0
 14 15  2  0  0  0
 15 18  1  0  0  0
 18 19  3  0  0  0
 15 16  1  0  0  0
 16 17  2  0  0  0
  3  4  1  0  0  0
  4  5  1  0  0  0
  4  6  1  0  0  0
  4  7  1  0  0  0
  7  8  2  0  0  0
  7  9  1  0  0  0
  9 20  1  0  0  0
 20 21  2  0  0  0
 21 22  1  0  0  0
 22 23  2  0  0  0
 23 26  1  0  0  0
 26 27  3  0  0  0
 23 24  1  0  0  0
 24 25  2  0  0  0
  9 10  1  0  0  0
 10 11  2  0  0  0
 10  1  1  0  0  0
 17 12  1  0  0  0
 25 20  1  0  0  0
M  END
> <minimizedAffinity>
42.52707

> <CNNscore>
0.4218986332

> <CNNaffinity>
5.4233474731

> <CNN_VS>
2.2881028652

> <CNNaffinity_variance>
0.3148939013

$$$$
[H]c1c([H])c(N2C(=O)C(=O)N(c3c([H])c([H])c(C#N)c([H])c3[H])C(C([H])([H])[H])(C([H])([H])[H])C2=O)c([H])c([H])c1C#N


 27 29  0  0  0  0  0  0  0  0999 V2000
   23.1840    9.1031   53.7798 C   0  0  0  0  0  0  0  0  0  0  0  0
   23.6962   10.0530   54.4670 O   0  0  0  0  0  0  0  0  0  0  0  0
   21.9817    9.3250   53.0505 N   0  0  0  0  0  0  0  0  0  0  0  0
   21.2709    8.1916   52.5603 C   0  0  0  0  0  0  0  0  0  0  0  0
   20.5519    8.4765   51.2475 C   0  0  0  0  0  0  0  0  0  0  0  0
   20.1870    7.7185   53.5330 C   0  0  0  0  0  0  0  0  0  0  0  0
   22.1413    7.0109   52.3230 C   0  0  0  0  0  0  0  0  0  0  0  0
   21.8098    6.1633   51.4249 O   0  0  0  0  0  0  0  0  0  0  0  0
   23.3429    6.7486   53.0374 N   0  0  0  0  0  0  0  0  0  0  0  0
   23.8759    7.8349   53.7882 C   0  0  0  0  0  0  0  0  0  0  0  0
   24.9386    7.6479   54.4360 O   0  0  0  0  0  0  0  0  0  0  0  0
   21.5851   10.6774   52.8689 C   0  0  0  0  0  0  0  0  0  0  0  0
   21.6891   11.2159   51.6045 C   0  0  0  0  0  0  0  0  0  0  0  0
   21.3289   12.5237   51.3217 C   0  0  0  0  0  0  0  0  0  0  0  0
   20.8490   13.3043   52.3579 C   0  0  0  0  0  0  0  0  0  0  0  0
   20.7273   12.8085   53.6396 C   0  0  0  0  0  0  0  0  0  0  0  0
   21.1027   11.4822   53.8799 C   0  0  0  0  0  0  0  0  0  0  0  0
   20.4701   14.6621   52.0878 C   0  0  0  0  0  0  0  0  0  0  0  0
   20.1755   15.7650   51.8701 N   0  0  0  0  0  0  0  0  0  0  0  0
   23.9807    5.4709   53.0055 C   0  0  0  0  0  0  0  0  0  0  0  0
   24.8669    5.0727   52.0315 C   0  0  0  0  0  0  0  0  0  0  0  0
   25.4571    3.8366   52.0385 C   0  0  0  0  0  0  0  0  0  0  0  0
   25.1834    2.9221   53.0402 C   0  0  0  0  0  0  0  0  0  0  0  0
   24.2960    3.3157   54.0190 C   0  0  0  0  0  0  0  0  0  0  0  0
   23.6994    4.5688   54.0093 C   0  0  0  0  0  0  0  0  0  0  0  0
   25.7999    1.6275   53.0494 C   0  0  0  0  0  0  0  0  0  0  0  0
   26.3181    0.5799   53.0465 N   0  0  0  0  0  0  0  0  0  0  0  0
  1  2  2  0  0  0
  1  3  1  0  0  0
  3 12  1  0  0  0
 12 13  2  0  0  0
 13 14  1  0  0  0
 14 15  2  0  0  0
 15 18  1  0  0  0
 18 19  3  0  0  0
 15 16  1  0  0  0
 16 17  2  0  0  0
  3  4  1  0  0  0
  4  5  1  0  0  0
  4  6  1  0  0  0
  4  7  1  0  0  0
  7  8  2  0  0  0
  7  9  1  0  0  0
  9 20  1  0  0  0
 20 21  2  0  0  0
 21 22  1  0  0  0
 22 23  2  0  0  0
 23 26  1  0  0  0
 26 27  3  0  0  0
 23 24  1  0  0  0
 24 25  2  0  0  0
  9 10  1  0  0  0
 10 11  2  0  0  0
 10  1  1  0  0  0
 17 12  1  0  0  0
 25 20  1  0  0  0
M  END
> <minimizedAffinity>
42.76596

> <CNNscore>
0.4168727100

> <CNNaffinity>
5.4376835823

> <CNN_VS>
2.2668218613

> <CNNaffinity_variance>
0.2470344007

$$$$
[H]c1c([H])c(N2C(=O)C(=O)N(c3c([H])c([H])c(C#N)c([H])c3[H])C(C([H])([H])[H])(C([H])([H])[H])C2=O)c([H])c([H])c1C#N


 27 29  0  0  0  0  0  0  0  0999 V2000
   21.8191    7.7762   54.7706 C   0  0  0  0  0  0  0  0  0  0  0  0
   20.8054    8.4689   55.1306 O   0  0  0  0  0  0  0  0  0  0  0  0
   21.6527    6.4066   54.4199 N   0  0  0  0  0  0  0  0  0  0  0  0
   22.8145    5.5866   54.3315 C   0  0  0  0  0  0  0  0  0  0  0  0
   22.6811    4.4971   53.2748 C   0  0  0  0  0  0  0  0  0  0  0  0
   23.1139    4.8572   55.6442 C   0  0  0  0  0  0  0  0  0  0  0  0
   24.0473    6.3493   54.0053 C   0  0  0  0  0  0  0  0  0  0  0  0
   24.9944    5.7632   53.3773 O   0  0  0  0  0  0  0  0  0  0  0  0
   24.2558    7.7139   54.3477 N   0  0  0  0  0  0  0  0  0  0  0  0
   23.0993    8.4451   54.7424 C   0  0  0  0  0  0  0  0  0  0  0  0
   23.2370    9.6567   55.0541 O   0  0  0  0  0  0  0  0  0  0  0  0
   20.3229    5.9648   54.1832 C   0  0  0  0  0  0  0  0  0  0  0  0
   20.0492    4.6244   54.3503 C   0  0  0  0  0  0  0  0  0  0  0  0
   18.7862    4.0926   54.1450 C   0  0  0  0  0  0  0  0  0  0  0  0
   17.7738    4.9522   53.7584 C   0  0  0  0  0  0  0  0  0  0  0  0
   18.0007    6.3011   53.5789 C   0  0  0  0  0  0  0  0  0  0  0  0
   19.2914    6.7951   53.7973 C   0  0  0  0  0  0  0  0  0  0  0  0
   16.4577    4.4229   53.5400 C   0  0  0  0  0  0  0  0  0  0  0  0
   15.3872    4.0043   53.3692 N   0  0  0  0  0  0  0  0  0  0  0  0
   25.5487    8.3191   54.2992 C   0  0  0  0  0  0  0  0  0  0  0  0
   26.2731    8.5053   53.1446 C   0  0  0  0  0  0  0  0  0  0  0  0
   27.5114    9.0909   53.1424 C   0  0  0  0  0  0  0  0  0  0  0  0
   28.0953    9.5269   54.3187 C   0  0  0  0  0  0  0  0  0  0  0  0
   27.3740    9.3429   55.4790 C   0  0  0  0  0  0  0  0  0  0  0  0
   26.1195    8.7490   55.4782 C   0  0  0  0  0  0  0  0  0  0  0  0
   29.3915   10.1401   54.3188 C   0  0  0  0  0  0  0  0  0  0  0  0
   30.4406   10.6551   54.3298 N   0  0  0  0  0  0  0  0  0  0  0  0
  1  2  2  0  0  0
  1  3  1  0  0  0
  3 12  1  0  0  0
 12 13  2  0  0  0
 13 14  1  0  0  0
 14 15  2  0  0  0
 15 18  1  0  0  0
 18 19  3  0  0  0
 15 16  1  0  0  0
 16 17  2  0  0  0
  3  4  1  0  0  0
  4  5  1  0  0  0
  4  6  1  0  0  0
  4  7  1  0  0  0
  7  8  2  0  0  0
  7  9  1  0  0  0
  9 20  1  0  0  0
 20 21  2  0  0  0
 21 22  1  0  0  0
 22 23  2  0  0  0
 23 26  1  0  0  0
 26 27  3  0  0  0
 23 24  1  0  0  0
 24 25  2  0  0  0
  9 10  1  0  0  0
 10 11  2  0  0  0
 10  1  1  0  0  0
 17 12  1  0  0  0
 25 20  1  0  0  0
M  END
> <minimizedAffinity>
32.77203

> <CNNscore>
0.3904010952

> <CNNaffinity>
5.5911598206

> <CNN_VS>
2.1827948093

> <CNNaffinity_variance>
0.5346147418

$$$$
[H]OC(=O)c1c([H])c([H])c(N([H])C(=O)c2c([H])c([H])c(OC3([H])C([H])([H])C([H])([H])N(S(=O)(=O)c4c([H])c([H])c(C(F)(F)F)c([H])c4[H])C([H])([H])C3([H])[H])c([H])c2[H])c([H])c1[H]


 40 43  0  0  0  0  0  0  0  0999 V2000
   27.8360    9.6956   56.6383 O   0  0  0  0  0  0  0  0  0  0  0  0
   24.5130    8.1782   54.7039 N   0  0  0  0  0  0  0  0  0  0  0  0
   24.3795    8.6674   56.0512 C   0  0  0  0  0  0  0  0  0  0  0  0
   25.4541    9.7229   56.3244 C   0  0  0  0  0  0  0  0  0  0  0  0
   26.8018    8.9314   56.2109 C   0  0  0  0  0  0  0  0  0  0  0  0
   26.9237    8.5692   54.7479 C   0  0  0  0  0  0  0  0  0  0  0  0
   25.7632    7.7008   54.3468 C   0  0  0  0  0  0  0  0  0  0  0  0
   23.2924    8.4860   53.6270 S   0  0  0  0  0  0  0  0  0  0  0  0
   23.7709    8.7564   52.2179 O   0  0  0  0  0  0  0  0  0  0  0  0
   22.5449    9.7401   54.0609 O   0  0  0  0  0  0  0  0  0  0  0  0
   20.1052    5.2044   53.5750 C   0  0  0  0  0  0  0  0  0  0  0  0
   21.4319    4.8959   53.7878 C   0  0  0  0  0  0  0  0  0  0  0  0
   22.4143    5.8934   53.7827 C   0  0  0  0  0  0  0  0  0  0  0  0
   22.0913    7.2115   53.5679 C   0  0  0  0  0  0  0  0  0  0  0  0
   20.7430    7.5128   53.3528 C   0  0  0  0  0  0  0  0  0  0  0  0
   19.7707    6.5442   53.3539 C   0  0  0  0  0  0  0  0  0  0  0  0
   19.2154    3.3502   52.4748 F   0  0  0  0  0  0  0  0  0  0  0  0
   19.0804    4.1418   53.5961 C   0  0  0  0  0  0  0  0  0  0  0  0
   19.1364    3.4047   54.7684 F   0  0  0  0  0  0  0  0  0  0  0  0
   17.8351    4.7562   53.5863 F   0  0  0  0  0  0  0  0  0  0  0  0
   28.1207   10.6257   57.5641 C   0  0  0  0  0  0  0  0  0  0  0  0
   28.7892   10.3523   58.7549 C   0  0  0  0  0  0  0  0  0  0  0  0
   29.0321   11.3603   59.6423 C   0  0  0  0  0  0  0  0  0  0  0  0
   28.6557   12.6621   59.4391 C   0  0  0  0  0  0  0  0  0  0  0  0
   27.9942   12.9349   58.2539 C   0  0  0  0  0  0  0  0  0  0  0  0
   27.7204   11.9667   57.3262 C   0  0  0  0  0  0  0  0  0  0  0  0
   28.9545   13.6907   60.4357 C   0  0  0  0  0  0  0  0  0  0  0  0
   28.9092   13.2969   61.6283 O   0  0  0  0  0  0  0  0  0  0  0  0
   29.2739   15.0175   60.0715 N   0  0  0  0  0  0  0  0  0  0  0  0
   29.2792   15.2274   59.0235 H   0  0  0  0  0  0  0  0  0  0  0  0
   29.5700   16.0343   60.9707 C   0  0  0  0  0  0  0  0  0  0  0  0
   30.9370   16.2233   61.2883 C   0  0  0  0  0  0  0  0  0  0  0  0
   31.2810   17.2145   62.1672 C   0  0  0  0  0  0  0  0  0  0  0  0
   30.3619   18.0358   62.7537 C   0  0  0  0  0  0  0  0  0  0  0  0
   29.0193   17.8792   62.4620 C   0  0  0  0  0  0  0  0  0  0  0  0
   28.6831   16.8564   61.5573 C   0  0  0  0  0  0  0  0  0  0  0  0
   30.7918   19.0566   63.6846 C   0  0  0  0  0  0  0  0  0  0  0  0
   32.1106   19.4628   63.8115 O   0  0  0  0  0  0  0  0  0  0  0  0
   29.9485   19.6309   64.4404 O   0  0  0  0  0  0  0  0  0  0  0  0
   32.8670   18.7904   63.7988 H   0  0  0  0  0  0  0  0  0  0  0  0
 17 18  1  0  0  0
 18 19  1  0  0  0
 18 20  1  0  0  0
 18 11  1  0  0  0
 11 12  2  0  0  0
 12 13  1  0  0  0
 13 14  2  0  0  0
 14 15  1  0  0  0
 15 16  2  0  0  0
 14  8  1  0  0  0
  8  9  2  0  0  0
  8 10  2  0  0  0
  8  2  1  0  0  0
  2  3  1  0  0  0
  3  4  1  0  0  0
  4  5  1  0  0  0
  5  6  1  0  0  0
  6  7  1  0  0  0
  5  1  1  0  0  0
  1 21  1  0  0  0
 21 22  2  0  0  0
 22 23  1  0  0  0
 23 24  2  0  0  0
 24 25  1  0  0  0
 25 26  2  0  0  0
 24 27  1  0  0  0
 27 28  2  0  0  0
 27 29  1  0  0  0
 29 31  1  0  0  0
 31 32  2  0  0  0
 32 33  1  0  0  0
 33 34  2  0  0  0
 34 35  1  0  0  0
 35 36  2  0  0  0
 34 37  1  0  0  0
 37 38  1  0  0  0
 37 39  2  0  0  0
 16 11  1  0  0  0
  7  2  1  0  0  0
 26 21  1  0  0  0
 36 31  1  0  0  0
 29 30  1  0  0  0
 38 40  1  0  0  0
M  END
> <minimizedAffinity>
11.53256

> <CNNscore>
0.6843025088

> <CNNaffinity>
6.1006212234

> <CNN_VS>
4.1746702194

> <CNNaffinity_variance>
0.0542223975

$$$$
[H]OC(=O)c1c([H])c([H])c(N([H])C(=O)c2c([H])c([H])c(OC3([H])C([H])([H])C([H])([H])N(S(=O)(=O)c4c([H])c([H])c(C(F)(F)F)c([H])c4[H])C([H])([H])C3([H])[H])c([H])c2[H])c([H])c1[H]


 40 43  0  0  0  0  0  0  0  0999 V2000
   23.9058    8.1498   54.5052 O   0  0  0  0  0  0  0  0  0  0  0  0
   21.4158   10.6011   52.2967 N   0  0  0  0  0  0  0  0  0  0  0  0
   21.2389   10.5215   53.7231 C   0  0  0  0  0  0  0  0  0  0  0  0
   22.5651   10.1400   54.3857 C   0  0  0  0  0  0  0  0  0  0  0  0
   22.8640    8.7026   53.8379 C   0  0  0  0  0  0  0  0  0  0  0  0
   23.1630    8.8957   52.3683 C   0  0  0  0  0  0  0  0  0  0  0  0
   21.9602    9.4846   51.6839 C   0  0  0  0  0  0  0  0  0  0  0  0
   21.2419   12.0746   51.5600 S   0  0  0  0  0  0  0  0  0  0  0  0
   22.5522   12.7444   51.2105 O   0  0  0  0  0  0  0  0  0  0  0  0
   20.5265   13.0282   52.5079 O   0  0  0  0  0  0  0  0  0  0  0  0
   18.7163   11.7945   47.7557 C   0  0  0  0  0  0  0  0  0  0  0  0
   19.6272   12.8156   47.9241 C   0  0  0  0  0  0  0  0  0  0  0  0
   20.3867   12.9188   49.0957 C   0  0  0  0  0  0  0  0  0  0  0  0
   20.2528   12.0074   50.1151 C   0  0  0  0  0  0  0  0  0  0  0  0
   19.3260   10.9763   49.9337 C   0  0  0  0  0  0  0  0  0  0  0  0
   18.5744   10.8648   48.7908 C   0  0  0  0  0  0  0  0  0  0  0  0
   16.6069   11.9653   46.7750 F   0  0  0  0  0  0  0  0  0  0  0  0
   17.9325   11.6933   46.5086 C   0  0  0  0  0  0  0  0  0  0  0  0
   18.4471   12.5131   45.5168 F   0  0  0  0  0  0  0  0  0  0  0  0
   18.0564   10.3932   46.0366 F   0  0  0  0  0  0  0  0  0  0  0  0
   24.9595    8.5082   55.2566 C   0  0  0  0  0  0  0  0  0  0  0  0
   26.2830    8.2595   54.9012 C   0  0  0  0  0  0  0  0  0  0  0  0
   27.2927    8.6554   55.7296 C   0  0  0  0  0  0  0  0  0  0  0  0
   27.0922    9.3011   56.9214 C   0  0  0  0  0  0  0  0  0  0  0  0
   25.7769    9.5515   57.2734 C   0  0  0  0  0  0  0  0  0  0  0  0
   24.7221    9.1775   56.4856 C   0  0  0  0  0  0  0  0  0  0  0  0
   28.2262    9.6988   57.7559 C   0  0  0  0  0  0  0  0  0  0  0  0
   29.0085   10.5247   57.2219 O   0  0  0  0  0  0  0  0  0  0  0  0
   28.4114    9.1912   59.0609 N   0  0  0  0  0  0  0  0  0  0  0  0
   27.6760    8.4943   59.4014 H   0  0  0  0  0  0  0  0  0  0  0  0
   29.4641    9.5340   59.9002 C   0  0  0  0  0  0  0  0  0  0  0  0
   29.4400   10.8394   60.4487 C   0  0  0  0  0  0  0  0  0  0  0  0
   30.4533   11.2247   61.2843 C   0  0  0  0  0  0  0  0  0  0  0  0
   31.4912   10.4031   61.6171 C   0  0  0  0  0  0  0  0  0  0  0  0
   31.5424    9.1212   61.1008 C   0  0  0  0  0  0  0  0  0  0  0  0
   30.4937    8.7415   60.2442 C   0  0  0  0  0  0  0  0  0  0  0  0
   32.5376   10.8774   62.4965 C   0  0  0  0  0  0  0  0  0  0  0  0
   33.8841   10.8262   62.1726 O   0  0  0  0  0  0  0  0  0  0  0  0
   32.2476   11.3705   63.6301 O   0  0  0  0  0  0  0  0  0  0  0  0
   34.2800   10.0148   61.7150 H   0  0  0  0  0  0  0  0  0  0  0  0
 17 18  1  0  0  0
 18 19  1  0  0  0
 18 20  1  0  0  0
 18 11  1  0  0  0
 11 12  2  0  0  0
 12 13  1  0  0  0
 13 14  2  0  0  0
 14 15  1  0  0  0
 15 16  2  0  0  0
 14  8  1  0  0  0
  8  9  2  0  0  0
  8 10  2  0  0  0
  8  2  1  0  0  0
  2  3  1  0  0  0
  3  4  1  0  0  0
  4  5  1  0  0  0
  5  6  1  0  0  0
  6  7  1  0  0  0
  5  1  1  0  0  0
  1 21  1  0  0  0
 21 22  2  0  0  0
 22 23  1  0  0  0
 23 24  2  0  0  0
 24 25  1  0  0  0
 25 26  2  0  0  0
 24 27  1  0  0  0
 27 28  2  0  0  0
 27 29  1  0  0  0
 29 31  1  0  0  0
 31 32  2  0  0  0
 32 33  1  0  0  0
 33 34  2  0  0  0
 34 35  1  0  0  0
 35 36  2  0  0  0
 34 37  1  0  0  0
 37 38  1  0  0  0
 37 39  2  0  0  0
 16 11  1  0  0  0
  7  2  1  0  0  0
 26 21  1  0  0  0
 36 31  1  0  0  0
 29 30  1  0  0  0
 38 40  1  0  0  0
M  END
> <minimizedAffinity>
48.99661

> <CNNscore>
0.5969037414

> <CNNaffinity>
5.8960561752

> <CNN_VS>
3.5193779469

> <CNNaffinity_variance>
0.3090584278

$$$$
[H]OC(=O)c1c([H])c([H])c(N([H])C(=O)c2c([H])c([H])c(OC3([H])C([H])([H])C([H])([H])N(S(=O)(=O)c4c([H])c([H])c(C(F)(F)F)c([H])c4[H])C([H])([H])C3([H])[H])c([H])c2[H])c([H])c1[H]


 40 43  0  0  0  0  0  0  0  0999 V2000
   24.0882    8.2956   53.9302 O   0  0  0  0  0  0  0  0  0  0  0  0
   21.3600   10.7638   52.0456 N   0  0  0  0  0  0  0  0  0  0  0  0
   21.3081   10.6227   53.4773 C   0  0  0  0  0  0  0  0  0  0  0  0
   22.6950   10.2516   54.0085 C   0  0  0  0  0  0  0  0  0  0  0  0
   22.9801    8.8459   53.3775 C   0  0  0  0  0  0  0  0  0  0  0  0
   23.1471    9.1054   51.8972 C   0  0  0  0  0  0  0  0  0  0  0  0
   21.8764    9.6879   51.3425 C   0  0  0  0  0  0  0  0  0  0  0  0
   21.0884   12.2602   51.3888 S   0  0  0  0  0  0  0  0  0  0  0  0
   20.6402   13.2989   52.3928 O   0  0  0  0  0  0  0  0  0  0  0  0
   19.9671   12.1617   50.3628 O   0  0  0  0  0  0  0  0  0  0  0  0
   24.7776   13.8248   49.1817 C   0  0  0  0  0  0  0  0  0  0  0  0
   24.1165   14.6142   50.0986 C   0  0  0  0  0  0  0  0  0  0  0  0
   22.9741   14.1485   50.7605 C   0  0  0  0  0  0  0  0  0  0  0  0
   22.4741   12.8912   50.5217 C   0  0  0  0  0  0  0  0  0  0  0  0
   23.1522   12.0996   49.5898 C   0  0  0  0  0  0  0  0  0  0  0  0
   24.2721   12.5447   48.9332 C   0  0  0  0  0  0  0  0  0  0  0  0
   26.3139   15.5705   49.0013 F   0  0  0  0  0  0  0  0  0  0  0  0
   25.9882   14.3268   48.5020 C   0  0  0  0  0  0  0  0  0  0  0  0
   27.0386   13.4287   48.6052 F   0  0  0  0  0  0  0  0  0  0  0  0
   25.7000   14.4287   47.1474 F   0  0  0  0  0  0  0  0  0  0  0  0
   25.0836    8.6048   54.7770 C   0  0  0  0  0  0  0  0  0  0  0  0
   26.4184    8.2758   54.5542 C   0  0  0  0  0  0  0  0  0  0  0  0
   27.3648    8.6260   55.4730 C   0  0  0  0  0  0  0  0  0  0  0  0
   27.0882    9.3000   56.6335 C   0  0  0  0  0  0  0  0  0  0  0  0
   25.7618    9.6302   56.8537 C   0  0  0  0  0  0  0  0  0  0  0  0
   24.7680    9.3050   55.9707 C   0  0  0  0  0  0  0  0  0  0  0  0
   28.1576    9.6450   57.5704 C   0  0  0  0  0  0  0  0  0  0  0  0
   29.0012   10.4646   57.1275 O   0  0  0  0  0  0  0  0  0  0  0  0
   28.2211    9.0972   58.8708 N   0  0  0  0  0  0  0  0  0  0  0  0
   27.4436    8.4106   59.1285 H   0  0  0  0  0  0  0  0  0  0  0  0
   29.2079    9.3894   59.8040 C   0  0  0  0  0  0  0  0  0  0  0  0
   29.3283   10.7443   60.1982 C   0  0  0  0  0  0  0  0  0  0  0  0
   30.2836   11.0833   61.1177 C   0  0  0  0  0  0  0  0  0  0  0  0
   31.1295   10.1700   61.6777 C   0  0  0  0  0  0  0  0  0  0  0  0
   31.0355    8.8385   61.3164 C   0  0  0  0  0  0  0  0  0  0  0  0
   30.0488    8.5072   60.3707 C   0  0  0  0  0  0  0  0  0  0  0  0
   32.1264   10.5973   62.6353 C   0  0  0  0  0  0  0  0  0  0  0  0
   33.4746   10.3013   62.5122 O   0  0  0  0  0  0  0  0  0  0  0  0
   31.7878   11.2778   63.6524 O   0  0  0  0  0  0  0  0  0  0  0  0
   33.7821    9.3851   62.2114 H   0  0  0  0  0  0  0  0  0  0  0  0
 17 18  1  0  0  0
 18 19  1  0  0  0
 18 20  1  0  0  0
 18 11  1  0  0  0
 11 12  2  0  0  0
 12 13  1  0  0  0
 13 14  2  0  0  0
 14 15  1  0  0  0
 15 16  2  0  0  0
 14  8  1  0  0  0
  8  9  2  0  0  0
  8 10  2  0  0  0
  8  2  1  0  0  0
  2  3  1  0  0  0
  3  4  1  0  0  0
  4  5  1  0  0  0
  5  6  1  0  0  0
  6  7  1  0  0  0
  5  1  1  0  0  0
  1 21  1  0  0  0
 21 22  2  0  0  0
 22 23  1  0  0  0
 23 24  2  0  0  0
 24 25  1  0  0  0
 25 26  2  0  0  0
 24 27  1  0  0  0
 27 28  2  0  0  0
 27 29  1  0  0  0
 29 31  1  0  0  0
 31 32  2  0  0  0
 32 33  1  0  0  0
 33 34  2  0  0  0
 34 35  1  0  0  0
 35 36  2  0  0  0
 34 37  1  0  0  0
 37 38  1  0  0  0
 37 39  2  0  0  0
 16 11  1  0  0  0
  7  2  1  0  0  0
 26 21  1  0  0  0
 36 31  1  0  0  0
 29 30  1  0  0  0
 38 40  1  0  0  0
M  END
> <minimizedAffinity>
41.57084

> <CNNscore>
0.5780865550

> <CNNaffinity>
5.9070234299

> <CNN_VS>
3.4147708416

> <CNNaffinity_variance>
0.3811469972

$$$$
[H]OC(=O)c1c([H])c([H])c(N([H])C(=O)c2c([H])c([H])c(OC3([H])C([H])([H])C([H])([H])N(S(=O)(=O)c4c([H])c([H])c(C(F)(F)F)c([H])c4[H])C([H])([H])C3([H])[H])c([H])c2[H])c([H])c1[H]


 40 43  0  0  0  0  0  0  0  0999 V2000
   26.4046    8.5617   53.8472 O   0  0  0  0  0  0  0  0  0  0  0  0
   22.3051    8.2697   53.4042 N   0  0  0  0  0  0  0  0  0  0  0  0
   23.1308    7.1400   53.0659 C   0  0  0  0  0  0  0  0  0  0  0  0
   24.4305    7.1923   53.8730 C   0  0  0  0  0  0  0  0  0  0  0  0
   25.1378    8.4971   53.3703 C   0  0  0  0  0  0  0  0  0  0  0  0
   24.2767    9.6320   53.8770 C   0  0  0  0  0  0  0  0  0  0  0  0
   22.8968    9.5168   53.2898 C   0  0  0  0  0  0  0  0  0  0  0  0
   20.8592    7.9923   54.1636 S   0  0  0  0  0  0  0  0  0  0  0  0
   19.8098    9.0465   53.8893 O   0  0  0  0  0  0  0  0  0  0  0  0
   21.0745    8.0013   55.6713 O   0  0  0  0  0  0  0  0  0  0  0  0
   19.1170    3.9062   53.0688 C   0  0  0  0  0  0  0  0  0  0  0  0
   18.2923    4.9527   53.4233 C   0  0  0  0  0  0  0  0  0  0  0  0
   18.8213    6.1987   53.7807 C   0  0  0  0  0  0  0  0  0  0  0  0
   20.1769    6.4224   53.7887 C   0  0  0  0  0  0  0  0  0  0  0  0
   21.0036    5.3541   53.4279 C   0  0  0  0  0  0  0  0  0  0  0  0
   20.4978    4.1276   53.0769 C   0  0  0  0  0  0  0  0  0  0  0  0
   17.4120    2.3571   53.4341 F   0  0  0  0  0  0  0  0  0  0  0  0
   18.5421    2.6024   52.6824 C   0  0  0  0  0  0  0  0  0  0  0  0
   18.2900    2.5412   51.3211 F   0  0  0  0  0  0  0  0  0  0  0  0
   19.4959    1.6271   52.9420 F   0  0  0  0  0  0  0  0  0  0  0  0
   27.0667    8.7308   55.0032 C   0  0  0  0  0  0  0  0  0  0  0  0
   28.4426    8.5623   55.1380 C   0  0  0  0  0  0  0  0  0  0  0  0
   29.0321    8.7502   56.3544 C   0  0  0  0  0  0  0  0  0  0  0  0
   28.3472    9.1052   57.4869 C   0  0  0  0  0  0  0  0  0  0  0  0
   26.9799    9.2761   57.3525 C   0  0  0  0  0  0  0  0  0  0  0  0
   26.3317    9.1003   56.1600 C   0  0  0  0  0  0  0  0  0  0  0  0
   29.0490    9.2927   58.7568 C   0  0  0  0  0  0  0  0  0  0  0  0
   29.1381    8.2594   59.4665 O   0  0  0  0  0  0  0  0  0  0  0  0
   29.5853   10.5420   59.1399 N   0  0  0  0  0  0  0  0  0  0  0  0
   29.4434   11.3447   58.4487 H   0  0  0  0  0  0  0  0  0  0  0  0
   30.2637   10.7797   60.3288 C   0  0  0  0  0  0  0  0  0  0  0  0
   29.9754   11.9970   60.9924 C   0  0  0  0  0  0  0  0  0  0  0  0
   30.6156   12.2766   62.1693 C   0  0  0  0  0  0  0  0  0  0  0  0
   31.5232   11.4302   62.7377 C   0  0  0  0  0  0  0  0  0  0  0  0
   31.8244   10.2320   62.1164 C   0  0  0  0  0  0  0  0  0  0  0  0
   31.1578    9.9603   60.9082 C   0  0  0  0  0  0  0  0  0  0  0  0
   32.1741   11.7923   63.9780 C   0  0  0  0  0  0  0  0  0  0  0  0
   32.8317   12.9973   64.1677 O   0  0  0  0  0  0  0  0  0  0  0  0
   32.1649   10.9924   64.9641 O   0  0  0  0  0  0  0  0  0  0  0  0
   33.4198   13.3902   63.4436 H   0  0  0  0  0  0  0  0  0  0  0  0
 17 18  1  0  0  0
 18 19  1  0  0  0
 18 20  1  0  0  0
 18 11  1  0  0  0
 11 12  2  0  0  0
 12 13  1  0  0  0
 13 14  2  0  0  0
 14 15  1  0  0  0
 15 16  2  0  0  0
 14  8  1  0  0  0
  8  9  2  0  0  0
  8 10  2  0  0  0
  8  2  1  0  0  0
  2  3  1  0  0  0
  3  4  1  0  0  0
  4  5  1  0  0  0
  5  6  1  0  0  0
  6  7  1  0  0  0
  5  1  1  0  0  0
  1 21  1  0  0  0
 21 22  2  0  0  0
 22 23  1  0  0  0
 23 24  2  0  0  0
 24 25  1  0  0  0
 25 26  2  0  0  0
 24 27  1  0  0  0
 27 28  2  0  0  0
 27 29  1  0  0  0
 29 31  1  0  0  0
 31 32  2  0  0  0
 32 33  1  0  0  0
 33 34  2  0  0  0
 34 35  1  0  0  0
 35 36  2  0  0  0
 34 37  1  0  0  0
 37 38  1  0  0  0
 37 39  2  0  0  0
 16 11  1  0  0  0
  7  2  1  0  0  0
 26 21  1  0  0  0
 36 31  1  0  0  0
 29 30  1  0  0  0
 38 40  1  0  0  0
M  END
> <minimizedAffinity>
26.31308

> <CNNscore>
0.5659461021

> <CNNaffinity>
6.0217084885

> <CNN_VS>
3.4079625607

> <CNNaffinity_variance>
0.0254715085

$$$$
[H]OC(=O)c1c([H])c([H])c(N([H])C(=O)c2c([H])c([H])c(OC3([H])C([H])([H])C([H])([H])N(S(=O)(=O)c4c([H])c([H])c(C(F)(F)F)c([H])c4[H])C([H])([H])C3([H])[H])c([H])c2[H])c([H])c1[H]


 40 43  0  0  0  0  0  0  0  0999 V2000
   26.1447    8.1361   53.6390 O   0  0  0  0  0  0  0  0  0  0  0  0
   28.3164    9.3488   56.9405 N   0  0  0  0  0  0  0  0  0  0  0  0
   27.1398   10.0876   56.5632 C   0  0  0  0  0  0  0  0  0  0  0  0
   26.1756    9.1691   55.8081 C   0  0  0  0  0  0  0  0  0  0  0  0
   26.9602    8.7804   54.5085 C   0  0  0  0  0  0  0  0  0  0  0  0
   28.0980    7.9048   54.9826 C   0  0  0  0  0  0  0  0  0  0  0  0
   28.9774    8.6866   55.9192 C   0  0  0  0  0  0  0  0  0  0  0  0
   28.6140    9.1061   58.5520 S   0  0  0  0  0  0  0  0  0  0  0  0
   29.6891    8.0792   58.8297 O   0  0  0  0  0  0  0  0  0  0  0  0
   27.3516    8.5789   59.2215 O   0  0  0  0  0  0  0  0  0  0  0  0
   29.7183   13.0085   60.6689 C   0  0  0  0  0  0  0  0  0  0  0  0
   30.4443   11.8572   60.8882 C   0  0  0  0  0  0  0  0  0  0  0  0
   30.0972   10.6550   60.2601 C   0  0  0  0  0  0  0  0  0  0  0  0
   29.0251   10.5811   59.4040 C   0  0  0  0  0  0  0  0  0  0  0  0
   28.2958   11.7546   59.1894 C   0  0  0  0  0  0  0  0  0  0  0  0
   28.6248   12.9389   59.8000 C   0  0  0  0  0  0  0  0  0  0  0  0
   31.4074   14.1762   61.7752 F   0  0  0  0  0  0  0  0  0  0  0  0
   30.1056   14.2708   61.3297 C   0  0  0  0  0  0  0  0  0  0  0  0
   29.9146   15.3607   60.4953 F   0  0  0  0  0  0  0  0  0  0  0  0
   29.2549   14.4594   62.4109 F   0  0  0  0  0  0  0  0  0  0  0  0
   24.8767    7.7060   53.5358 C   0  0  0  0  0  0  0  0  0  0  0  0
   24.5017    6.3697   53.6511 C   0  0  0  0  0  0  0  0  0  0  0  0
   23.1879    6.0217   53.5270 C   0  0  0  0  0  0  0  0  0  0  0  0
   22.1803    6.9199   53.2917 C   0  0  0  0  0  0  0  0  0  0  0  0
   22.5522    8.2488   53.1804 C   0  0  0  0  0  0  0  0  0  0  0  0
   23.8530    8.6590   53.2936 C   0  0  0  0  0  0  0  0  0  0  0  0
   20.7924    6.4722   53.1741 C   0  0  0  0  0  0  0  0  0  0  0  0
   20.0487    7.2334   52.5057 O   0  0  0  0  0  0  0  0  0  0  0  0
   20.3388    5.2723   53.7655 N   0  0  0  0  0  0  0  0  0  0  0  0
   21.0691    4.7126   54.3092 H   0  0  0  0  0  0  0  0  0  0  0  0
   19.0367    4.7946   53.6849 C   0  0  0  0  0  0  0  0  0  0  0  0
   18.8750    3.4660   53.2222 C   0  0  0  0  0  0  0  0  0  0  0  0
   17.6118    2.9476   53.1276 C   0  0  0  0  0  0  0  0  0  0  0  0
   16.4940    3.6555   53.4629 C   0  0  0  0  0  0  0  0  0  0  0  0
   16.6181    4.9543   53.9212 C   0  0  0  0  0  0  0  0  0  0  0  0
   17.9227    5.4715   54.0124 C   0  0  0  0  0  0  0  0  0  0  0  0
   15.1861    3.0518   53.3274 C   0  0  0  0  0  0  0  0  0  0  0  0
   14.9831    1.6821   53.2731 O   0  0  0  0  0  0  0  0  0  0  0  0
   14.1489    3.7802   53.2501 O   0  0  0  0  0  0  0  0  0  0  0  0
   15.5998    1.0842   52.7374 H   0  0  0  0  0  0  0  0  0  0  0  0
 17 18  1  0  0  0
 18 19  1  0  0  0
 18 20  1  0  0  0
 18 11  1  0  0  0
 11 12  2  0  0  0
 12 13  1  0  0  0
 13 14  2  0  0  0
 14 15  1  0  0  0
 15 16  2  0  0  0
 14  8  1  0  0  0
  8  9  2  0  0  0
  8 10  2  0  0  0
  8  2  1  0  0  0
  2  3  1  0  0  0
  3  4  1  0  0  0
  4  5  1  0  0  0
  5  6  1  0  0  0
  6  7  1  0  0  0
  5  1  1  0  0  0
  1 21  1  0  0  0
 21 22  2  0  0  0
 22 23  1  0  0  0
 23 24  2  0  0  0
 24 25  1  0  0  0
 25 26  2  0  0  0
 24 27  1  0  0  0
 27 28  2  0  0  0
 27 29  1  0  0  0
 29 31  1  0  0  0
 31 32  2  0  0  0
 32 33  1  0  0  0
 33 34  2  0  0  0
 34 35  1  0  0  0
 35 36  2  0  0  0
 34 37  1  0  0  0
 37 38  1  0  0  0
 37 39  2  0  0  0
 16 11  1  0  0  0
  7  2  1  0  0  0
 26 21  1  0  0  0
 36 31  1  0  0  0
 29 30  1  0  0  0
 38 40  1  0  0  0
M  END
> <minimizedAffinity>
18.55186

> <CNNscore>
0.5570095181

> <CNNaffinity>
6.2741265297

> <CNN_VS>
3.4947481155

> <CNNaffinity_variance>
0.1812516004

$$$$
[H]OC(=O)c1c([H])c([H])c(N([H])C(=O)c2c([H])c([H])c(OC3([H])C([H])([H])C([H])([H])N(S(=O)(=O)c4c([H])c([H])c(C(F)(F)F)c([H])c4[H])C([H])([H])C3([H])[H])c([H])c2[H])c([H])c1[H]


 40 43  0  0  0  0  0  0  0  0999 V2000
   26.5031    8.9915   55.5022 O   0  0  0  0  0  0  0  0  0  0  0  0
   22.9525    7.4416   54.0606 N   0  0  0  0  0  0  0  0  0  0  0  0
   22.9967    7.9696   55.3991 C   0  0  0  0  0  0  0  0  0  0  0  0
   24.1006    9.0254   55.4997 C   0  0  0  0  0  0  0  0  0  0  0  0
   25.4199    8.2223   55.2351 C   0  0  0  0  0  0  0  0  0  0  0  0
   25.3495    7.8180   53.7798 C   0  0  0  0  0  0  0  0  0  0  0  0
   24.1443    6.9461   53.5581 C   0  0  0  0  0  0  0  0  0  0  0  0
   21.6031    7.7266   53.1430 S   0  0  0  0  0  0  0  0  0  0  0  0
   20.3094    7.3143   53.8095 O   0  0  0  0  0  0  0  0  0  0  0  0
   21.6882    6.9119   51.8590 O   0  0  0  0  0  0  0  0  0  0  0  0
   21.3214   12.0769   51.7555 C   0  0  0  0  0  0  0  0  0  0  0  0
   21.5888   11.7727   53.0733 C   0  0  0  0  0  0  0  0  0  0  0  0
   21.6542   10.4434   53.5078 C   0  0  0  0  0  0  0  0  0  0  0  0
   21.4566    9.3982   52.6382 C   0  0  0  0  0  0  0  0  0  0  0  0
   21.1857    9.7183   51.3043 C   0  0  0  0  0  0  0  0  0  0  0  0
   21.1175   11.0171   50.8661 C   0  0  0  0  0  0  0  0  0  0  0  0
   22.5495   13.9874   51.2247 F   0  0  0  0  0  0  0  0  0  0  0  0
   21.2685   13.4840   51.3115 C   0  0  0  0  0  0  0  0  0  0  0  0
   20.5714   13.6156   50.1209 F   0  0  0  0  0  0  0  0  0  0  0  0
   20.5494   14.1990   52.2601 F   0  0  0  0  0  0  0  0  0  0  0  0
   27.1918    9.4803   56.5462 C   0  0  0  0  0  0  0  0  0  0  0  0
   27.5598   10.8177   56.6719 C   0  0  0  0  0  0  0  0  0  0  0  0
   28.2649   11.2263   57.7665 C   0  0  0  0  0  0  0  0  0  0  0  0
   28.6471   10.3905   58.7828 C   0  0  0  0  0  0  0  0  0  0  0  0
   28.2786    9.0616   58.6599 C   0  0  0  0  0  0  0  0  0  0  0  0
   27.5731    8.5917   57.5854 C   0  0  0  0  0  0  0  0  0  0  0  0
   29.3995   10.9023   59.9284 C   0  0  0  0  0  0  0  0  0  0  0  0
   28.8121   11.7976   60.5863 O   0  0  0  0  0  0  0  0  0  0  0  0
   30.6825   10.4144   60.2615 N   0  0  0  0  0  0  0  0  0  0  0  0
   31.0741    9.6519   59.6232 H   0  0  0  0  0  0  0  0  0  0  0  0
   31.4417   10.8577   61.3372 C   0  0  0  0  0  0  0  0  0  0  0  0
   31.7248   12.2444   61.3865 C   0  0  0  0  0  0  0  0  0  0  0  0
   32.4669   12.7315   62.4282 C   0  0  0  0  0  0  0  0  0  0  0  0
   32.9479   11.9380   63.4293 C   0  0  0  0  0  0  0  0  0  0  0  0
   32.6863   10.5803   63.4122 C   0  0  0  0  0  0  0  0  0  0  0  0
   31.9226   10.0963   62.3350 C   0  0  0  0  0  0  0  0  0  0  0  0
   33.7373   12.5152   64.4957 C   0  0  0  0  0  0  0  0  0  0  0  0
   33.5807   13.8195   64.9369 O   0  0  0  0  0  0  0  0  0  0  0  0
   34.6281   11.8243   65.0798 O   0  0  0  0  0  0  0  0  0  0  0  0
   33.4382   14.5781   64.2820 H   0  0  0  0  0  0  0  0  0  0  0  0
 17 18  1  0  0  0
 18 19  1  0  0  0
 18 20  1  0  0  0
 18 11  1  0  0  0
 11 12  2  0  0  0
 12 13  1  0  0  0
 13 14  2  0  0  0
 14 15  1  0  0  0
 15 16  2  0  0  0
 14  8  1  0  0  0
  8  9  2  0  0  0
  8 10  2  0  0  0
  8  2  1  0  0  0
  2  3  1  0  0  0
  3  4  1  0  0  0
  4  5  1  0  0  0
  5  6  1  0  0  0
  6  7  1  0  0  0
  5  1  1  0  0  0
  1 21  1  0  0  0
 21 22  2  0  0  0
 22 23  1  0  0  0
 23 24  2  0  0  0
 24 25  1  0  0  0
 25 26  2  0  0  0
 24 27  1  0  0  0
 27 28  2  0  0  0
 27 29  1  0  0  0
 29 31  1  0  0  0
 31 32  2  0  0  0
 32 33  1  0  0  0
 33 34  2  0  0  0
 34 35  1  0  0  0
 35 36  2  0  0  0
 34 37  1  0  0  0
 37 38  1  0  0  0
 37 39  2  0  0  0
 16 11  1  0  0  0
  7  2  1  0  0  0
 26 21  1  0  0  0
 36 31  1  0  0  0
 29 30  1  0  0  0
 38 40  1  0  0  0
M  END
> <minimizedAffinity>
8.83249

> <CNNscore>
0.5427339077

> <CNNaffinity>
6.0064859390

> <CNN_VS>
3.2599236965

> <CNNaffinity_variance>
0.0952167735

$$$$
[H]OC(=O)c1c([H])c([H])c(N([H])C(=O)c2c([H])c([H])c(OC3([H])C([H])([H])C([H])([H])N(S(=O)(=O)c4c([H])c([H])c(C(F)(F)F)c([H])c4[H])C([H])([H])C3([H])[H])c([H])c2[H])c([H])c1[H]


 40 43  0  0  0  0  0  0  0  0999 V2000
   26.2721    8.4037   53.9448 O   0  0  0  0  0  0  0  0  0  0  0  0
   28.3920    9.2204   57.3981 N   0  0  0  0  0  0  0  0  0  0  0  0
   27.2593   10.0412   57.0582 C   0  0  0  0  0  0  0  0  0  0  0  0
   26.2807    9.2373   56.1982 C   0  0  0  0  0  0  0  0  0  0  0  0
   27.0872    8.9314   54.8900 C   0  0  0  0  0  0  0  0  0  0  0  0
   28.1726    7.9674   55.3129 C   0  0  0  0  0  0  0  0  0  0  0  0
   29.0553    8.6231   56.3390 C   0  0  0  0  0  0  0  0  0  0  0  0
   28.6304    8.8223   58.9884 S   0  0  0  0  0  0  0  0  0  0  0  0
   29.1035    7.4015   59.2011 O   0  0  0  0  0  0  0  0  0  0  0  0
   27.3097    8.9382   59.7381 O   0  0  0  0  0  0  0  0  0  0  0  0
   31.4936   11.5942   61.2354 C   0  0  0  0  0  0  0  0  0  0  0  0
   30.4028   12.1022   60.5624 C   0  0  0  0  0  0  0  0  0  0  0  0
   29.5359   11.2609   59.8547 C   0  0  0  0  0  0  0  0  0  0  0  0
   29.7401    9.9030   59.8078 C   0  0  0  0  0  0  0  0  0  0  0  0
   30.8495    9.3989   60.4935 C   0  0  0  0  0  0  0  0  0  0  0  0
   31.7075   10.2129   61.1896 C   0  0  0  0  0  0  0  0  0  0  0  0
   33.7028   12.1704   61.7125 F   0  0  0  0  0  0  0  0  0  0  0  0
   32.3906   12.4942   61.9872 C   0  0  0  0  0  0  0  0  0  0  0  0
   32.1126   13.8259   61.7230 F   0  0  0  0  0  0  0  0  0  0  0  0
   32.1375   12.3086   63.3399 F   0  0  0  0  0  0  0  0  0  0  0  0
   25.0381    7.8907   53.8133 C   0  0  0  0  0  0  0  0  0  0  0  0
   24.6429    6.6753   54.3669 C   0  0  0  0  0  0  0  0  0  0  0  0
   23.3677    6.2276   54.1779 C   0  0  0  0  0  0  0  0  0  0  0  0
   22.4185    6.9092   53.4623 C   0  0  0  0  0  0  0  0  0  0  0  0
   22.8099    8.1190   52.9147 C   0  0  0  0  0  0  0  0  0  0  0  0
   24.0745    8.6194   53.0680 C   0  0  0  0  0  0  0  0  0  0  0  0
   21.0687    6.3672   53.3054 C   0  0  0  0  0  0  0  0  0  0  0  0
   20.2325    7.1698   52.8197 O   0  0  0  0  0  0  0  0  0  0  0  0
   20.7460    5.0411   53.6696 N   0  0  0  0  0  0  0  0  0  0  0  0
   21.5460    4.4578   54.0721 H   0  0  0  0  0  0  0  0  0  0  0  0
   19.4858    4.4706   53.5405 C   0  0  0  0  0  0  0  0  0  0  0  0
   18.3918    5.2317   54.0195 C   0  0  0  0  0  0  0  0  0  0  0  0
   17.1290    4.7148   53.9125 C   0  0  0  0  0  0  0  0  0  0  0  0
   16.8735    3.4930   53.3601 C   0  0  0  0  0  0  0  0  0  0  0  0
   17.9196    2.7265   52.8801 C   0  0  0  0  0  0  0  0  0  0  0  0
   19.2103    3.2723   52.9977 C   0  0  0  0  0  0  0  0  0  0  0  0
   15.5153    2.9996   53.2890 C   0  0  0  0  0  0  0  0  0  0  0  0
   14.4047    3.8285   53.2829 O   0  0  0  0  0  0  0  0  0  0  0  0
   15.2891    1.7516   53.2292 O   0  0  0  0  0  0  0  0  0  0  0  0
   14.3539    4.6369   53.8899 H   0  0  0  0  0  0  0  0  0  0  0  0
 17 18  1  0  0  0
 18 19  1  0  0  0
 18 20  1  0  0  0
 18 11  1  0  0  0
 11 12  2  0  0  0
 12 13  1  0  0  0
 13 14  2  0  0  0
 14 15  1  0  0  0
 15 16  2  0  0  0
 14  8  1  0  0  0
  8  9  2  0  0  0
  8 10  2  0  0  0
  8  2  1  0  0  0
  2  3  1  0  0  0
  3  4  1  0  0  0
  4  5  1  0  0  0
  5  6  1  0  0  0
  6  7  1  0  0  0
  5  1  1  0  0  0
  1 21  1  0  0  0
 21 22  2  0  0  0
 22 23  1  0  0  0
 23 24  2  0  0  0
 24 25  1  0  0  0
 25 26  2  0  0  0
 24 27  1  0  0  0
 27 28  2  0  0  0
 27 29  1  0  0  0
 29 31  1  0  0  0
 31 32  2  0  0  0
 32 33  1  0  0  0
 33 34  2  0  0  0
 34 35  1  0  0  0
 35 36  2  0  0  0
 34 37  1  0  0  0
 37 38  1  0  0  0
 37 39  2  0  0  0
 16 11  1  0  0  0
  7  2  1  0  0  0
 26 21  1  0  0  0
 36 31  1  0  0  0
 29 30  1  0  0  0
 38 40  1  0  0  0
M  END
> <minimizedAffinity>
18.68350

> <CNNscore>
0.5414621234

> <CNNaffinity>
6.1156368256

> <CNN_VS>
3.3113856316

> <CNNaffinity_variance>
0.2143916637

$$$$
[H]OC(=O)c1c([H])c([H])c(N([H])C(=O)c2c([H])c([H])c(OC3([H])C([H])([H])C([H])([H])N(S(=O)(=O)c4c([H])c([H])c(C(F)(F)F)c([H])c4[H])C([H])([H])C3([H])[H])c([H])c2[H])c([H])c1[H]


 40 43  0  0  0  0  0  0  0  0999 V2000
   26.0664    7.1496   54.5141 O   0  0  0  0  0  0  0  0  0  0  0  0
   22.0987    6.8088   53.4059 N   0  0  0  0  0  0  0  0  0  0  0  0
   22.4523    6.6936   54.7966 C   0  0  0  0  0  0  0  0  0  0  0  0
   23.7484    7.4631   55.0635 C   0  0  0  0  0  0  0  0  0  0  0  0
   24.8226    6.7060   54.2100 C   0  0  0  0  0  0  0  0  0  0  0  0
   24.4508    6.9854   52.7713 C   0  0  0  0  0  0  0  0  0  0  0  0
   23.0752    6.4446   52.4936 C   0  0  0  0  0  0  0  0  0  0  0  0
   20.7104    7.6204   53.0083 S   0  0  0  0  0  0  0  0  0  0  0  0
   19.6653    7.6212   54.1017 O   0  0  0  0  0  0  0  0  0  0  0  0
   20.0589    6.9430   51.8099 O   0  0  0  0  0  0  0  0  0  0  0  0
   21.3669   11.9825   51.7954 C   0  0  0  0  0  0  0  0  0  0  0  0
   21.0504   11.0280   50.8522 C   0  0  0  0  0  0  0  0  0  0  0  0
   20.8703    9.6877   51.2146 C   0  0  0  0  0  0  0  0  0  0  0  0
   21.0003    9.2781   52.5196 C   0  0  0  0  0  0  0  0  0  0  0  0
   21.3217   10.2543   53.4675 C   0  0  0  0  0  0  0  0  0  0  0  0
   21.5022   11.5710   53.1251 C   0  0  0  0  0  0  0  0  0  0  0  0
   22.1147   13.4514   50.1451 F   0  0  0  0  0  0  0  0  0  0  0  0
   21.5410   13.3937   51.3980 C   0  0  0  0  0  0  0  0  0  0  0  0
   20.3447   14.0906   51.4596 F   0  0  0  0  0  0  0  0  0  0  0  0
   22.3839   13.9923   52.3251 F   0  0  0  0  0  0  0  0  0  0  0  0
   26.6843    8.0078   55.3418 C   0  0  0  0  0  0  0  0  0  0  0  0
   26.0673    8.6038   56.4390 C   0  0  0  0  0  0  0  0  0  0  0  0
   26.7714    9.4696   57.2245 C   0  0  0  0  0  0  0  0  0  0  0  0
   28.0822    9.8038   57.0058 C   0  0  0  0  0  0  0  0  0  0  0  0
   28.6969    9.2089   55.9172 C   0  0  0  0  0  0  0  0  0  0  0  0
   28.0429    8.3344   55.0922 C   0  0  0  0  0  0  0  0  0  0  0  0
   28.7735   10.7380   57.8945 C   0  0  0  0  0  0  0  0  0  0  0  0
   28.7306   11.9401   57.5304 O   0  0  0  0  0  0  0  0  0  0  0  0
   29.4285   10.3094   59.0702 N   0  0  0  0  0  0  0  0  0  0  0  0
   29.3938    9.2601   59.2700 H   0  0  0  0  0  0  0  0  0  0  0  0
   30.0968   11.1485   59.9531 C   0  0  0  0  0  0  0  0  0  0  0  0
   31.3974   10.7500   60.3470 C   0  0  0  0  0  0  0  0  0  0  0  0
   32.0987   11.5443   61.2134 C   0  0  0  0  0  0  0  0  0  0  0  0
   31.6003   12.7111   61.7167 C   0  0  0  0  0  0  0  0  0  0  0  0
   30.3346   13.1298   61.3491 C   0  0  0  0  0  0  0  0  0  0  0  0
   29.6278   12.3023   60.4584 C   0  0  0  0  0  0  0  0  0  0  0  0
   32.3895   13.4981   62.6391 C   0  0  0  0  0  0  0  0  0  0  0  0
   32.4107   14.8837   62.6312 O   0  0  0  0  0  0  0  0  0  0  0  0
   33.1124   12.9271   63.5131 O   0  0  0  0  0  0  0  0  0  0  0  0
   32.4405   15.3999   61.7610 H   0  0  0  0  0  0  0  0  0  0  0  0
 17 18  1  0  0  0
 18 19  1  0  0  0
 18 20  1  0  0  0
 18 11  1  0  0  0
 11 12  2  0  0  0
 12 13  1  0  0  0
 13 14  2  0  0  0
 14 15  1  0  0  0
 15 16  2  0  0  0
 14  8  1  0  0  0
  8  9  2  0  0  0
  8 10  2  0  0  0
  8  2  1  0  0  0
  2  3  1  0  0  0
  3  4  1  0  0  0
  4  5  1  0  0  0
  5  6  1  0  0  0
  6  7  1  0  0  0
  5  1  1  0  0  0
  1 21  1  0  0  0
 21 22  2  0  0  0
 22 23  1  0  0  0
 23 24  2  0  0  0
 24 25  1  0  0  0
 25 26  2  0  0  0
 24 27  1  0  0  0
 27 28  2  0  0  0
 27 29  1  0  0  0
 29 31  1  0  0  0
 31 32  2  0  0  0
 32 33  1  0  0  0
 33 34  2  0  0  0
 34 35  1  0  0  0
 35 36  2  0  0  0
 34 37  1  0  0  0
 37 38  1  0  0  0
 37 39  2  0  0  0
 16 11  1  0  0  0
  7  2  1  0  0  0
 26 21  1  0  0  0
 36 31  1  0  0  0
 29 30  1  0  0  0
 38 40  1  0  0  0
M  END
> <minimizedAffinity>
17.26744

> <CNNscore>
0.5338546634

> <CNNaffinity>
5.9280514717

> <CNN_VS>
3.1647179127

> <CNNaffinity_variance>
0.0576301590

$$$$
[H]OC(=O)c1c([H])c([H])c(N([H])C(=O)c2c([H])c([H])c(OC3([H])C([H])([H])C([H])([H])N(S(=O)(=O)c4c([H])c([H])c(C(F)(F)F)c([H])c4[H])C([H])([H])C3([H])[H])c([H])c2[H])c([H])c1[H]


 40 43  0  0  0  0  0  0  0  0999 V2000
   29.8879   10.8710   59.1038 O   0  0  0  0  0  0  0  0  0  0  0  0
   31.5389   11.7342   62.7937 N   0  0  0  0  0  0  0  0  0  0  0  0
   31.8925   10.5033   62.1363 C   0  0  0  0  0  0  0  0  0  0  0  0
   31.7389   10.6662   60.6219 C   0  0  0  0  0  0  0  0  0  0  0  0
   30.2055   10.9183   60.4202 C   0  0  0  0  0  0  0  0  0  0  0  0
   29.9481   12.2810   61.0227 C   0  0  0  0  0  0  0  0  0  0  0  0
   30.2937   12.2570   62.4863 C   0  0  0  0  0  0  0  0  0  0  0  0
   32.7198   12.5620   63.6089 S   0  0  0  0  0  0  0  0  0  0  0  0
   34.0758   11.8930   63.5711 O   0  0  0  0  0  0  0  0  0  0  0  0
   32.3421   12.6548   65.0815 O   0  0  0  0  0  0  0  0  0  0  0  0
   33.1202   16.9150   62.2596 C   0  0  0  0  0  0  0  0  0  0  0  0
   32.5502   15.9700   61.4333 C   0  0  0  0  0  0  0  0  0  0  0  0
   32.4453   14.6321   61.8323 C   0  0  0  0  0  0  0  0  0  0  0  0
   32.9036   14.2155   63.0588 C   0  0  0  0  0  0  0  0  0  0  0  0
   33.4801   15.1823   63.8883 C   0  0  0  0  0  0  0  0  0  0  0  0
   33.5902   16.4964   63.5084 C   0  0  0  0  0  0  0  0  0  0  0  0
   34.3593   18.5041   61.0850 F   0  0  0  0  0  0  0  0  0  0  0  0
   33.2115   18.3240   61.8282 C   0  0  0  0  0  0  0  0  0  0  0  0
   32.0746   18.7203   61.1418 F   0  0  0  0  0  0  0  0  0  0  0  0
   33.2665   19.1122   62.9701 F   0  0  0  0  0  0  0  0  0  0  0  0
   28.9644   10.3474   58.2813 C   0  0  0  0  0  0  0  0  0  0  0  0
   28.2994    9.1489   58.5284 C   0  0  0  0  0  0  0  0  0  0  0  0
   27.3778    8.6886   57.6332 C   0  0  0  0  0  0  0  0  0  0  0  0
   27.0483    9.3413   56.4744 C   0  0  0  0  0  0  0  0  0  0  0  0
   27.7067   10.5345   56.2301 C   0  0  0  0  0  0  0  0  0  0  0  0
   28.6416   11.0463   57.0887 C   0  0  0  0  0  0  0  0  0  0  0  0
   26.0462    8.7874   55.5637 C   0  0  0  0  0  0  0  0  0  0  0  0
   26.4978    7.9821   54.7112 O   0  0  0  0  0  0  0  0  0  0  0  0
   24.6799    9.1347   55.6512 N   0  0  0  0  0  0  0  0  0  0  0  0
   24.4216    9.8309   56.4198 H   0  0  0  0  0  0  0  0  0  0  0  0
   23.6838    8.6394   54.8190 C   0  0  0  0  0  0  0  0  0  0  0  0
   22.4028    9.2311   54.9395 C   0  0  0  0  0  0  0  0  0  0  0  0
   21.3880    8.7804   54.1393 C   0  0  0  0  0  0  0  0  0  0  0  0
   21.5550    7.7822   53.2233 C   0  0  0  0  0  0  0  0  0  0  0  0
   22.7943    7.1861   53.0789 C   0  0  0  0  0  0  0  0  0  0  0  0
   23.8258    7.6610   53.9085 C   0  0  0  0  0  0  0  0  0  0  0  0
   20.4364    7.3440   52.4171 C   0  0  0  0  0  0  0  0  0  0  0  0
   19.5194    6.3954   52.8409 O   0  0  0  0  0  0  0  0  0  0  0  0
   20.2531    7.8285   51.2578 O   0  0  0  0  0  0  0  0  0  0  0  0
   19.8188    5.5665   53.3388 H   0  0  0  0  0  0  0  0  0  0  0  0
 17 18  1  0  0  0
 18 19  1  0  0  0
 18 20  1  0  0  0
 18 11  1  0  0  0
 11 12  2  0  0  0
 12 13  1  0  0  0
 13 14  2  0  0  0
 14 15  1  0  0  0
 15 16  2  0  0  0
 14  8  1  0  0  0
  8  9  2  0  0  0
  8 10  2  0  0  0
  8  2  1  0  0  0
  2  3  1  0  0  0
  3  4  1  0  0  0
  4  5  1  0  0  0
  5  6  1  0  0  0
  6  7  1  0  0  0
  5  1  1  0  0  0
  1 21  1  0  0  0
 21 22  2  0  0  0
 22 23  1  0  0  0
 23 24  2  0  0  0
 24 25  1  0  0  0
 25 26  2  0  0  0
 24 27  1  0  0  0
 27 28  2  0  0  0
 27 29  1  0  0  0
 29 31  1  0  0  0
 31 32  2  0  0  0
 32 33  1  0  0  0
 33 34  2  0  0  0
 34 35  1  0  0  0
 35 36  2  0  0  0
 34 37  1  0  0  0
 37 38  1  0  0  0
 37 39  2  0  0  0
 16 11  1  0  0  0
  7  2  1  0  0  0
 26 21  1  0  0  0
 36 31  1  0  0  0
 29 30  1  0  0  0
 38 40  1  0  0  0
M  END
> <minimizedAffinity>
5.25931

> <CNNscore>
0.5314556956

> <CNNaffinity>
5.7697782516

> <CNN_VS>
3.0663814545

> <CNNaffinity_variance>
0.0520323738

$$$$
[H]C1=C([H])C([H])(F)C([H])([H])C([H])=C1N([H])C(=O)C1(C(=O)N([H])c2c([H])c([H])c(Oc3c([H])c([H])nc4c([H])c(OC([H])([H])C([H])([H])C([H])([H])N5C([H])([H])C([H])([H])OC([H])([H])C5([H])[H])c(OC([H])([H])[H])c([H])c34)c(F)c2[H])C([H])([H])C1([H])[H]


 48 53  0  0  0  0  0  0  0  0999 V2000
   21.1035   10.4339   52.9345 C   0  0  0  0  0  0  0  0  0  0  0  0
   21.5237   11.5880   53.5808 C   0  0  0  0  0  0  0  0  0  0  0  0
   21.9473   12.7186   52.9479 C   0  0  0  0  0  0  0  0  0  0  0  0
   21.9706   12.7443   51.5488 C   0  0  0  0  0  0  0  0  0  0  0  0
   21.5632   11.6271   50.8718 C   0  0  0  0  0  0  0  0  0  0  0  0
   21.1313   10.4762   51.5513 C   0  0  0  0  0  0  0  0  0  0  0  0
   20.7189    9.4212   50.8109 F   0  0  0  0  0  0  0  0  0  0  0  0
   22.3789   13.9593   50.8926 N   0  0  0  0  0  0  0  0  0  0  0  0
   21.6020   15.0948   50.8674 C   0  0  0  0  0  0  0  0  0  0  0  0
   20.4439   15.0036   51.4456 O   0  0  0  0  0  0  0  0  0  0  0  0
   23.2945   13.8898   50.4228 H   0  0  0  0  0  0  0  0  0  0  0  0
   21.8494   16.4352   50.2834 C   0  0  0  0  0  0  0  0  0  0  0  0
   22.9100   17.2503   51.0040 C   0  0  0  0  0  0  0  0  0  0  0  0
   21.5238   17.6033   51.2960 C   0  0  0  0  0  0  0  0  0  0  0  0
   21.5682   16.7956   48.8934 C   0  0  0  0  0  0  0  0  0  0  0  0
   20.6298   16.0566   48.3441 O   0  0  0  0  0  0  0  0  0  0  0  0
   22.0806   17.7589   48.0329 N   0  0  0  0  0  0  0  0  0  0  0  0
   22.8046   18.4482   48.2938 H   0  0  0  0  0  0  0  0  0  0  0  0
   21.5824   17.8789   46.6623 C   0  0  0  0  0  0  0  0  0  0  0  0
   20.8023   18.9010   46.3930 C   0  0  0  0  0  0  0  0  0  0  0  0
   20.2035   19.2046   45.0967 C   0  0  0  0  0  0  0  0  0  0  0  0
   20.4858   18.2278   44.0228 C   0  0  0  0  0  0  0  0  0  0  0  0
   21.1151   18.8832   42.9337 F   0  0  0  0  0  0  0  0  0  0  0  0
   21.3644   17.1281   44.4258 C   0  0  0  0  0  0  0  0  0  0  0  0
   21.8791   16.9449   45.6247 C   0  0  0  0  0  0  0  0  0  0  0  0
   20.6832    9.3237   53.6335 O   0  0  0  0  0  0  0  0  0  0  0  0
   24.4890    9.1693   55.1371 C   0  0  0  0  0  0  0  0  0  0  0  0
   23.2173    9.2385   54.6385 C   0  0  0  0  0  0  0  0  0  0  0  0
   22.6548    8.1060   54.0902 C   0  0  0  0  0  0  0  0  0  0  0  0
   21.3465    8.1299   53.5606 C   0  0  0  0  0  0  0  0  0  0  0  0
   20.8058    6.9901   53.0135 C   0  0  0  0  0  0  0  0  0  0  0  0
   21.5213    5.8138   52.9731 C   0  0  0  0  0  0  0  0  0  0  0  0
   22.7648    5.7939   53.4783 N   0  0  0  0  0  0  0  0  0  0  0  0
   23.3220    6.9102   54.0244 C   0  0  0  0  0  0  0  0  0  0  0  0
   24.6111    6.8458   54.5312 C   0  0  0  0  0  0  0  0  0  0  0  0
   25.1982    7.9578   55.0852 C   0  0  0  0  0  0  0  0  0  0  0  0
   24.4364   11.4169   56.0144 C   0  0  0  0  0  0  0  0  0  0  0  0
   25.1493   10.2408   55.7071 O   0  0  0  0  0  0  0  0  0  0  0  0
   26.4558    7.9034   55.5911 O   0  0  0  0  0  0  0  0  0  0  0  0
   27.2900    8.9871   55.7849 C   0  0  0  0  0  0  0  0  0  0  0  0
   27.7521    9.1141   57.2298 C   0  0  0  0  0  0  0  0  0  0  0  0
   28.1515   10.5747   57.4792 C   0  0  0  0  0  0  0  0  0  0  0  0
   28.9161   10.6247   58.7002 N   0  0  0  0  0  0  0  0  0  0  0  0
   28.5924   11.8645   59.4440 C   0  0  0  0  0  0  0  0  0  0  0  0
   29.3621   11.7253   60.7607 C   0  0  0  0  0  0  0  0  0  0  0  0
   30.3646   10.7584   60.6854 O   0  0  0  0  0  0  0  0  0  0  0  0
   29.8331    9.4611   60.5442 C   0  0  0  0  0  0  0  0  0  0  0  0
   28.6127    9.5269   59.6166 C   0  0  0  0  0  0  0  0  0  0  0  0
 37 38  1  0  0  0
 38 27  1  0  0  0
 27 28  2  0  0  0
 28 29  1  0  0  0
 29 30  2  0  0  0
 30 26  1  0  0  0
 26  1  1  0  0  0
  1  2  2  0  0  0
  2  3  1  0  0  0
  3  4  2  0  0  0
  4  8  1  0  0  0
  8  9  1  0  0  0
  9 10  2  0  0  0
  9 12  1  0  0  0
 12 13  1  0  0  0
 13 14  1  0  0  0
 12 15  1  0  0  0
 15 16  2  0  0  0
 15 17  1  0  0  0
 17 19  1  0  0  0
 19 20  2  0  0  0
 20 21  1  0  0  0
 21 22  1  0  0  0
 22 23  1  0  0  0
 22 24  1  0  0  0
 24 25  2  0  0  0
  4  5  1  0  0  0
  5  6  2  0  0  0
  6  7  1  0  0  0
 30 31  1  0  0  0
 31 32  2  0  0  0
 32 33  1  0  0  0
 33 34  2  0  0  0
 34 35  1  0  0  0
 35 36  2  0  0  0
 36 39  1  0  0  0
 39 40  1  0  0  0
 40 41  1  0  0  0
 41 42  1  0  0  0
 42 43  1  0  0  0
 43 44  1  0  0  0
 44 45  1  0  0  0
 45 46  1  0  0  0
 46 47  1  0  0  0
 47 48  1  0  0  0
 36 27  1  0  0  0
 48 43  1  0  0  0
 34 29  1  0  0  0
  6  1  1  0  0  0
 14 12  1  0  0  0
 25 19  1  0  0  0
  8 11  1  0  0  0
 17 18  1  0  0  0
M  END
> <minimizedAffinity>
18.64235

> <CNNscore>
0.6302342415

> <CNNaffinity>
6.6889009476

> <CNN_VS>
4.2155742645

> <CNNaffinity_variance>
0.3248361945

$$$$
[H]C1=C([H])C([H])(F)C([H])([H])C([H])=C1N([H])C(=O)C1(C(=O)N([H])c2c([H])c([H])c(Oc3c([H])c([H])nc4c([H])c(OC([H])([H])C([H])([H])C([H])([H])N5C([H])([H])C([H])([H])OC([H])([H])C5([H])[H])c(OC([H])([H])[H])c([H])c34)c(F)c2[H])C([H])([H])C1([H])[H]


 48 53  0  0  0  0  0  0  0  0999 V2000
   23.5481    7.3497   54.5555 C   0  0  0  0  0  0  0  0  0  0  0  0
   23.4918    8.2352   55.6228 C   0  0  0  0  0  0  0  0  0  0  0  0
   24.5647    8.9079   56.1272 C   0  0  0  0  0  0  0  0  0  0  0  0
   25.8230    8.7102   55.5474 C   0  0  0  0  0  0  0  0  0  0  0  0
   25.9228    7.8457   54.4914 C   0  0  0  0  0  0  0  0  0  0  0  0
   24.7993    7.1664   53.9927 C   0  0  0  0  0  0  0  0  0  0  0  0
   24.9746    6.3485   52.9289 F   0  0  0  0  0  0  0  0  0  0  0  0
   26.9398    9.4597   56.0619 N   0  0  0  0  0  0  0  0  0  0  0  0
   27.2189    9.5610   57.4056 C   0  0  0  0  0  0  0  0  0  0  0  0
   26.3883    8.9649   58.2047 O   0  0  0  0  0  0  0  0  0  0  0  0
   27.4937    9.9329   55.3318 H   0  0  0  0  0  0  0  0  0  0  0  0
   28.3192   10.2460   58.1260 C   0  0  0  0  0  0  0  0  0  0  0  0
   28.2129   11.7615   58.1438 C   0  0  0  0  0  0  0  0  0  0  0  0
   29.1563   11.1978   57.1829 C   0  0  0  0  0  0  0  0  0  0  0  0
   29.1331    9.6268   59.1725 C   0  0  0  0  0  0  0  0  0  0  0  0
   29.1668    8.3148   59.0972 O   0  0  0  0  0  0  0  0  0  0  0  0
   29.8829   10.1344   60.2266 N   0  0  0  0  0  0  0  0  0  0  0  0
   29.9977   11.1410   60.4292 H   0  0  0  0  0  0  0  0  0  0  0  0
   30.6085    9.2389   61.1280 C   0  0  0  0  0  0  0  0  0  0  0  0
   31.8045    9.6174   61.5181 C   0  0  0  0  0  0  0  0  0  0  0  0
   32.6893    8.8766   62.4122 C   0  0  0  0  0  0  0  0  0  0  0  0
   32.1795    7.5645   62.8657 C   0  0  0  0  0  0  0  0  0  0  0  0
   32.1205    7.5383   64.2827 F   0  0  0  0  0  0  0  0  0  0  0  0
   30.8390    7.2380   62.3756 C   0  0  0  0  0  0  0  0  0  0  0  0
   30.0996    7.9847   61.5809 C   0  0  0  0  0  0  0  0  0  0  0  0
   22.4244    6.7027   54.0903 O   0  0  0  0  0  0  0  0  0  0  0  0
   22.1963   10.7610   53.5936 C   0  0  0  0  0  0  0  0  0  0  0  0
   22.2817    9.4080   53.7748 C   0  0  0  0  0  0  0  0  0  0  0  0
   21.6519    8.5750   52.8753 C   0  0  0  0  0  0  0  0  0  0  0  0
   21.7098    7.1722   53.0230 C   0  0  0  0  0  0  0  0  0  0  0  0
   21.0703    6.3591   52.1172 C   0  0  0  0  0  0  0  0  0  0  0  0
   20.3692    6.8908   51.0573 C   0  0  0  0  0  0  0  0  0  0  0  0
   20.3168    8.2249   50.9190 N   0  0  0  0  0  0  0  0  0  0  0  0
   20.9413    9.0507   51.8038 C   0  0  0  0  0  0  0  0  0  0  0  0
   20.8578   10.4232   51.6251 C   0  0  0  0  0  0  0  0  0  0  0  0
   21.4761   11.2791   52.5045 C   0  0  0  0  0  0  0  0  0  0  0  0
   23.1668   11.3056   55.7350 C   0  0  0  0  0  0  0  0  0  0  0  0
   22.7866   11.6865   54.4326 O   0  0  0  0  0  0  0  0  0  0  0  0
   21.4073   12.6232   52.3341 O   0  0  0  0  0  0  0  0  0  0  0  0
   21.1471   13.2682   51.1407 C   0  0  0  0  0  0  0  0  0  0  0  0
   22.1502   14.3750   50.8471 C   0  0  0  0  0  0  0  0  0  0  0  0
   21.3947   15.7103   50.8120 C   0  0  0  0  0  0  0  0  0  0  0  0
   22.2962   16.7188   50.3138 N   0  0  0  0  0  0  0  0  0  0  0  0
   21.7812   17.2649   49.0365 C   0  0  0  0  0  0  0  0  0  0  0  0
   22.7508   18.3999   48.6942 C   0  0  0  0  0  0  0  0  0  0  0  0
   23.9447   18.3067   49.4093 O   0  0  0  0  0  0  0  0  0  0  0  0
   23.7495   18.5240   50.7876 C   0  0  0  0  0  0  0  0  0  0  0  0
   22.4273   17.8682   51.2074 C   0  0  0  0  0  0  0  0  0  0  0  0
 37 38  1  0  0  0
 38 27  1  0  0  0
 27 28  2  0  0  0
 28 29  1  0  0  0
 29 30  2  0  0  0
 30 26  1  0  0  0
 26  1  1  0  0  0
  1  2  2  0  0  0
  2  3  1  0  0  0
  3  4  2  0  0  0
  4  8  1  0  0  0
  8  9  1  0  0  0
  9 10  2  0  0  0
  9 12  1  0  0  0
 12 13  1  0  0  0
 13 14  1  0  0  0
 12 15  1  0  0  0
 15 16  2  0  0  0
 15 17  1  0  0  0
 17 19  1  0  0  0
 19 20  2  0  0  0
 20 21  1  0  0  0
 21 22  1  0  0  0
 22 23  1  0  0  0
 22 24  1  0  0  0
 24 25  2  0  0  0
  4  5  1  0  0  0
  5  6  2  0  0  0
  6  7  1  0  0  0
 30 31  1  0  0  0
 31 32  2  0  0  0
 32 33  1  0  0  0
 33 34  2  0  0  0
 34 35  1  0  0  0
 35 36  2  0  0  0
 36 39  1  0  0  0
 39 40  1  0  0  0
 40 41  1  0  0  0
 41 42  1  0  0  0
 42 43  1  0  0  0
 43 44  1  0  0  0
 44 45  1  0  0  0
 45 46  1  0  0  0
 46 47  1  0  0  0
 47 48  1  0  0  0
 36 27  1  0  0  0
 48 43  1  0  0  0
 34 29  1  0  0  0
  6  1  1  0  0  0
 14 12  1  0  0  0
 25 19  1  0  0  0
  8 11  1  0  0  0
 17 18  1  0  0  0
M  END
> <minimizedAffinity>
20.55914

> <CNNscore>
0.6089441776

> <CNNaffinity>
6.9168801308

> <CNN_VS>
4.2119936943

> <CNNaffinity_variance>
0.3860424161

$$$$
[H]C1=C([H])C([H])(F)C([H])([H])C([H])=C1N([H])C(=O)C1(C(=O)N([H])c2c([H])c([H])c(Oc3c([H])c([H])nc4c([H])c(OC([H])([H])C([H])([H])C([H])([H])N5C([H])([H])C([H])([H])OC([H])([H])C5([H])[H])c(OC([H])([H])[H])c([H])c34)c(F)c2[H])C([H])([H])C1([H])[H]


 48 53  0  0  0  0  0  0  0  0999 V2000
   21.1414   13.0827   52.2019 C   0  0  0  0  0  0  0  0  0  0  0  0
   20.2719   14.1292   52.4762 C   0  0  0  0  0  0  0  0  0  0  0  0
   20.2561   15.3172   51.8079 C   0  0  0  0  0  0  0  0  0  0  0  0
   21.1702   15.5228   50.7683 C   0  0  0  0  0  0  0  0  0  0  0  0
   22.0452   14.5156   50.4642 C   0  0  0  0  0  0  0  0  0  0  0  0
   22.0379   13.3015   51.1704 C   0  0  0  0  0  0  0  0  0  0  0  0
   22.9167   12.3442   50.7927 F   0  0  0  0  0  0  0  0  0  0  0  0
   21.1141   16.7651   50.0423 N   0  0  0  0  0  0  0  0  0  0  0  0
   22.2183   17.3418   49.4576 C   0  0  0  0  0  0  0  0  0  0  0  0
   23.3424   16.7160   49.6266 O   0  0  0  0  0  0  0  0  0  0  0  0
   20.1759   17.1933   50.0243 H   0  0  0  0  0  0  0  0  0  0  0  0
   22.3639   18.5792   48.6535 C   0  0  0  0  0  0  0  0  0  0  0  0
   23.6509   19.3463   48.9055 C   0  0  0  0  0  0  0  0  0  0  0  0
   22.4538   19.8751   49.5526 C   0  0  0  0  0  0  0  0  0  0  0  0
   21.6881   18.8201   47.3782 C   0  0  0  0  0  0  0  0  0  0  0  0
   20.9044   19.8755   47.3963 O   0  0  0  0  0  0  0  0  0  0  0  0
   21.7046   18.1711   46.1497 N   0  0  0  0  0  0  0  0  0  0  0  0
   22.2803   17.3400   45.9368 H   0  0  0  0  0  0  0  0  0  0  0  0
   20.9004   18.6651   45.0316 C   0  0  0  0  0  0  0  0  0  0  0  0
   21.4906   18.7609   43.8619 C   0  0  0  0  0  0  0  0  0  0  0  0
   20.8713   19.2260   42.6244 C   0  0  0  0  0  0  0  0  0  0  0  0
   19.4635   19.6628   42.7445 C   0  0  0  0  0  0  0  0  0  0  0  0
   18.6500   18.9003   41.8677 F   0  0  0  0  0  0  0  0  0  0  0  0
   18.9003   19.5149   44.0878 C   0  0  0  0  0  0  0  0  0  0  0  0
   19.5345   19.0620   45.1501 C   0  0  0  0  0  0  0  0  0  0  0  0
   21.1041   11.9038   52.9135 O   0  0  0  0  0  0  0  0  0  0  0  0
   22.1220    8.5767   55.0729 C   0  0  0  0  0  0  0  0  0  0  0  0
   21.7869    9.6983   54.3656 C   0  0  0  0  0  0  0  0  0  0  0  0
   21.3537    9.5600   53.0645 C   0  0  0  0  0  0  0  0  0  0  0  0
   20.9996   10.6888   52.2943 C   0  0  0  0  0  0  0  0  0  0  0  0
   20.5746   10.5292   50.9964 C   0  0  0  0  0  0  0  0  0  0  0  0
   20.4846    9.2778   50.4278 C   0  0  0  0  0  0  0  0  0  0  0  0
   20.8209    8.2062   51.1629 N   0  0  0  0  0  0  0  0  0  0  0  0
   21.2456    8.3392   52.4501 C   0  0  0  0  0  0  0  0  0  0  0  0
   21.5868    7.2055   53.1718 C   0  0  0  0  0  0  0  0  0  0  0  0
   22.0209    7.3113   54.4713 C   0  0  0  0  0  0  0  0  0  0  0  0
   23.3594    9.6744   56.8302 C   0  0  0  0  0  0  0  0  0  0  0  0
   22.5680    8.5986   56.3804 O   0  0  0  0  0  0  0  0  0  0  0  0
   22.3495    6.2078   55.1887 O   0  0  0  0  0  0  0  0  0  0  0  0
   23.6290    5.7196   55.3685 C   0  0  0  0  0  0  0  0  0  0  0  0
   24.5367    6.0166   54.1831 C   0  0  0  0  0  0  0  0  0  0  0  0
   24.6785    7.5394   54.0569 C   0  0  0  0  0  0  0  0  0  0  0  0
   26.0014    7.9015   54.5006 N   0  0  0  0  0  0  0  0  0  0  0  0
   26.8106    8.3562   53.3459 C   0  0  0  0  0  0  0  0  0  0  0  0
   28.1267    8.8279   53.9710 C   0  0  0  0  0  0  0  0  0  0  0  0
   28.2979    8.3429   55.2676 O   0  0  0  0  0  0  0  0  0  0  0  0
   27.3601    8.8950   56.1626 C   0  0  0  0  0  0  0  0  0  0  0  0
   26.0080    9.0154   55.4473 C   0  0  0  0  0  0  0  0  0  0  0  0
 37 38  1  0  0  0
 38 27  1  0  0  0
 27 28  2  0  0  0
 28 29  1  0  0  0
 29 30  2  0  0  0
 30 26  1  0  0  0
 26  1  1  0  0  0
  1  2  2  0  0  0
  2  3  1  0  0  0
  3  4  2  0  0  0
  4  8  1  0  0  0
  8  9  1  0  0  0
  9 10  2  0  0  0
  9 12  1  0  0  0
 12 13  1  0  0  0
 13 14  1  0  0  0
 12 15  1  0  0  0
 15 16  2  0  0  0
 15 17  1  0  0  0
 17 19  1  0  0  0
 19 20  2  0  0  0
 20 21  1  0  0  0
 21 22  1  0  0  0
 22 23  1  0  0  0
 22 24  1  0  0  0
 24 25  2  0  0  0
  4  5  1  0  0  0
  5  6  2  0  0  0
  6  7  1  0  0  0
 30 31  1  0  0  0
 31 32  2  0  0  0
 32 33  1  0  0  0
 33 34  2  0  0  0
 34 35  1  0  0  0
 35 36  2  0  0  0
 36 39  1  0  0  0
 39 40  1  0  0  0
 40 41  1  0  0  0
 41 42  1  0  0  0
 42 43  1  0  0  0
 43 44  1  0  0  0
 44 45  1  0  0  0
 45 46  1  0  0  0
 46 47  1  0  0  0
 47 48  1  0  0  0
 36 27  1  0  0  0
 48 43  1  0  0  0
 34 29  1  0  0  0
  6  1  1  0  0  0
 14 12  1  0  0  0
 25 19  1  0  0  0
  8 11  1  0  0  0
 17 18  1  0  0  0
M  END
> <minimizedAffinity>
15.79265

> <CNNscore>
0.5884051323

> <CNNaffinity>
6.8721876144

> <CNN_VS>
4.0436306000

> <CNNaffinity_variance>
0.0997356847

$$$$
[H]C1=C([H])C([H])(F)C([H])([H])C([H])=C1N([H])C(=O)C1(C(=O)N([H])c2c([H])c([H])c(Oc3c([H])c([H])nc4c([H])c(OC([H])([H])C([H])([H])C([H])([H])N5C([H])([H])C([H])([H])OC([H])([H])C5([H])[H])c(OC([H])([H])[H])c([H])c34)c(F)c2[H])C([H])([H])C1([H])[H]


 48 53  0  0  0  0  0  0  0  0999 V2000
   25.6516    8.3031   54.1722 C   0  0  0  0  0  0  0  0  0  0  0  0
   27.0361    8.2535   54.0885 C   0  0  0  0  0  0  0  0  0  0  0  0
   27.8863    8.7492   55.0316 C   0  0  0  0  0  0  0  0  0  0  0  0
   27.3526    9.3562   56.1741 C   0  0  0  0  0  0  0  0  0  0  0  0
   25.9915    9.4252   56.2970 C   0  0  0  0  0  0  0  0  0  0  0  0
   25.1399    8.9053   55.3086 C   0  0  0  0  0  0  0  0  0  0  0  0
   23.8050    8.9882   55.5154 F   0  0  0  0  0  0  0  0  0  0  0  0
   28.2612    9.8368   57.1826 N   0  0  0  0  0  0  0  0  0  0  0  0
   28.2640    9.3644   58.4751 C   0  0  0  0  0  0  0  0  0  0  0  0
   27.3651    8.4714   58.7553 O   0  0  0  0  0  0  0  0  0  0  0  0
   28.8903   10.5844   56.8522 H   0  0  0  0  0  0  0  0  0  0  0  0
   29.1239    9.6992   59.6358 C   0  0  0  0  0  0  0  0  0  0  0  0
   30.0027    8.5577   60.1187 C   0  0  0  0  0  0  0  0  0  0  0  0
   28.7980    8.8133   60.9027 C   0  0  0  0  0  0  0  0  0  0  0  0
   29.5476   11.0552   59.9865 C   0  0  0  0  0  0  0  0  0  0  0  0
   30.8528   11.1860   60.0737 O   0  0  0  0  0  0  0  0  0  0  0  0
   28.8605   12.2357   60.2415 N   0  0  0  0  0  0  0  0  0  0  0  0
   27.8332   12.3345   60.1943 H   0  0  0  0  0  0  0  0  0  0  0  0
   29.5820   13.4646   60.5735 C   0  0  0  0  0  0  0  0  0  0  0  0
   30.8299   13.3425   60.9655 C   0  0  0  0  0  0  0  0  0  0  0  0
   31.7222   14.4357   61.3395 C   0  0  0  0  0  0  0  0  0  0  0  0
   31.1204   15.7861   61.3050 C   0  0  0  0  0  0  0  0  0  0  0  0
   31.8576   16.6156   60.4216 F   0  0  0  0  0  0  0  0  0  0  0  0
   29.7275   15.8126   60.8545 C   0  0  0  0  0  0  0  0  0  0  0  0
   29.0015   14.7671   60.5145 C   0  0  0  0  0  0  0  0  0  0  0  0
   24.8464    7.7798   53.1845 O   0  0  0  0  0  0  0  0  0  0  0  0
   22.6238   11.1417   52.4588 C   0  0  0  0  0  0  0  0  0  0  0  0
   23.3813   10.0283   52.6983 C   0  0  0  0  0  0  0  0  0  0  0  0
   22.7497    8.8612   53.0707 C   0  0  0  0  0  0  0  0  0  0  0  0
   23.4898    7.6876   53.3312 C   0  0  0  0  0  0  0  0  0  0  0  0
   22.8406    6.5350   53.7063 C   0  0  0  0  0  0  0  0  0  0  0  0
   21.4693    6.5017   53.8323 C   0  0  0  0  0  0  0  0  0  0  0  0
   20.7682    7.6188   53.5830 N   0  0  0  0  0  0  0  0  0  0  0  0
   21.3889    8.7726   53.2110 C   0  0  0  0  0  0  0  0  0  0  0  0
   20.6259    9.9045   52.9671 C   0  0  0  0  0  0  0  0  0  0  0  0
   21.2268   11.0823   52.5932 C   0  0  0  0  0  0  0  0  0  0  0  0
   22.9473   12.8351   50.7700 C   0  0  0  0  0  0  0  0  0  0  0  0
   23.1509   12.3619   52.0817 O   0  0  0  0  0  0  0  0  0  0  0  0
   20.4889   12.1932   52.3444 O   0  0  0  0  0  0  0  0  0  0  0  0
   20.7802   13.1537   51.3954 C   0  0  0  0  0  0  0  0  0  0  0  0
   20.7968   14.5602   51.9777 C   0  0  0  0  0  0  0  0  0  0  0  0
   20.5420   15.5547   50.8371 C   0  0  0  0  0  0  0  0  0  0  0  0
   21.7287   16.3565   50.6724 N   0  0  0  0  0  0  0  0  0  0  0  0
   21.8295   16.8204   49.2690 C   0  0  0  0  0  0  0  0  0  0  0  0
   23.0431   17.7547   49.2676 C   0  0  0  0  0  0  0  0  0  0  0  0
   23.8502   17.5717   50.3904 O   0  0  0  0  0  0  0  0  0  0  0  0
   23.2009   17.9732   51.5747 C   0  0  0  0  0  0  0  0  0  0  0  0
   21.7230   17.5701   51.4873 C   0  0  0  0  0  0  0  0  0  0  0  0
 37 38  1  0  0  0
 38 27  1  0  0  0
 27 28  2  0  0  0
 28 29  1  0  0  0
 29 30  2  0  0  0
 30 26  1  0  0  0
 26  1  1  0  0  0
  1  2  2  0  0  0
  2  3  1  0  0  0
  3  4  2  0  0  0
  4  8  1  0  0  0
  8  9  1  0  0  0
  9 10  2  0  0  0
  9 12  1  0  0  0
 12 13  1  0  0  0
 13 14  1  0  0  0
 12 15  1  0  0  0
 15 16  2  0  0  0
 15 17  1  0  0  0
 17 19  1  0  0  0
 19 20  2  0  0  0
 20 21  1  0  0  0
 21 22  1  0  0  0
 22 23  1  0  0  0
 22 24  1  0  0  0
 24 25  2  0  0  0
  4  5  1  0  0  0
  5  6  2  0  0  0
  6  7  1  0  0  0
 30 31  1  0  0  0
 31 32  2  0  0  0
 32 33  1  0  0  0
 33 34  2  0  0  0
 34 35  1  0  0  0
 35 36  2  0  0  0
 36 39  1  0  0  0
 39 40  1  0  0  0
 40 41  1  0  0  0
 41 42  1  0  0  0
 42 43  1  0  0  0
 43 44  1  0  0  0
 44 45  1  0  0  0
 45 46  1  0  0  0
 46 47  1  0  0  0
 47 48  1  0  0  0
 36 27  1  0  0  0
 48 43  1  0  0  0
 34 29  1  0  0  0
  6  1  1  0  0  0
 14 12  1  0  0  0
 25 19  1  0  0  0
  8 11  1  0  0  0
 17 18  1  0  0  0
M  END
> <minimizedAffinity>
19.61986

> <CNNscore>
0.5815275908

> <CNNaffinity>
7.0990204811

> <CNN_VS>
4.1282763481

> <CNNaffinity_variance>
0.2508174181

$$$$
[H]C1=C([H])C([H])(F)C([H])([H])C([H])=C1N([H])C(=O)C1(C(=O)N([H])c2c([H])c([H])c(Oc3c([H])c([H])nc4c([H])c(OC([H])([H])C([H])([H])C([H])([H])N5C([H])([H])C([H])([H])OC([H])([H])C5([H])[H])c(OC([H])([H])[H])c([H])c34)c(F)c2[H])C([H])([H])C1([H])[H]


 48 53  0  0  0  0  0  0  0  0999 V2000
   26.5289    8.9600   55.2152 C   0  0  0  0  0  0  0  0  0  0  0  0
   27.9095    8.8483   55.3038 C   0  0  0  0  0  0  0  0  0  0  0  0
   28.6533    9.2714   56.3650 C   0  0  0  0  0  0  0  0  0  0  0  0
   28.0049    9.8638   57.4546 C   0  0  0  0  0  0  0  0  0  0  0  0
   26.6433    9.9924   57.4085 C   0  0  0  0  0  0  0  0  0  0  0  0
   25.9030    9.5467   56.3013 C   0  0  0  0  0  0  0  0  0  0  0  0
   24.5574    9.6851   56.3423 F   0  0  0  0  0  0  0  0  0  0  0  0
   28.7976   10.2668   58.5872 N   0  0  0  0  0  0  0  0  0  0  0  0
   28.6889   11.5064   59.1747 C   0  0  0  0  0  0  0  0  0  0  0  0
   27.8448   12.3239   58.6242 O   0  0  0  0  0  0  0  0  0  0  0  0
   29.4704    9.5499   58.8990 H   0  0  0  0  0  0  0  0  0  0  0  0
   29.3789   12.0955   60.3477 C   0  0  0  0  0  0  0  0  0  0  0  0
   30.3179   11.1439   61.0696 C   0  0  0  0  0  0  0  0  0  0  0  0
   29.0157   11.3549   61.6951 C   0  0  0  0  0  0  0  0  0  0  0  0
   29.6150   13.5275   60.5342 C   0  0  0  0  0  0  0  0  0  0  0  0
   30.8906   13.8432   60.5753 O   0  0  0  0  0  0  0  0  0  0  0  0
   28.7744   14.6254   60.6716 N   0  0  0  0  0  0  0  0  0  0  0  0
   27.7429   14.5779   60.6379 H   0  0  0  0  0  0  0  0  0  0  0  0
   29.3229   15.9705   60.8467 C   0  0  0  0  0  0  0  0  0  0  0  0
   28.8206   16.9272   60.0996 C   0  0  0  0  0  0  0  0  0  0  0  0
   29.2224   18.3305   60.1186 C   0  0  0  0  0  0  0  0  0  0  0  0
   30.3284   18.6615   61.0429 C   0  0  0  0  0  0  0  0  0  0  0  0
   29.9010   19.6509   61.9650 F   0  0  0  0  0  0  0  0  0  0  0  0
   30.8157   17.5263   61.8286 C   0  0  0  0  0  0  0  0  0  0  0  0
   30.3743   16.2869   61.7586 C   0  0  0  0  0  0  0  0  0  0  0  0
   25.8343    8.5088   54.1145 O   0  0  0  0  0  0  0  0  0  0  0  0
   22.0571    8.7663   52.5541 C   0  0  0  0  0  0  0  0  0  0  0  0
   23.3212    8.6978   53.0718 C   0  0  0  0  0  0  0  0  0  0  0  0
   23.7544    7.5075   53.6150 C   0  0  0  0  0  0  0  0  0  0  0  0
   25.0497    7.3898   54.1637 C   0  0  0  0  0  0  0  0  0  0  0  0
   25.4604    6.1945   54.7053 C   0  0  0  0  0  0  0  0  0  0  0  0
   24.6260    5.0986   54.7216 C   0  0  0  0  0  0  0  0  0  0  0  0
   23.3953    5.2133   54.1982 N   0  0  0  0  0  0  0  0  0  0  0  0
   22.9656    6.3870   53.6571 C   0  0  0  0  0  0  0  0  0  0  0  0
   21.6849    6.4621   53.1310 C   0  0  0  0  0  0  0  0  0  0  0  0
   21.2252    7.6347   52.5816 C   0  0  0  0  0  0  0  0  0  0  0  0
   21.5800   11.1284   52.6866 C   0  0  0  0  0  0  0  0  0  0  0  0
   21.5206    9.9063   51.9871 O   0  0  0  0  0  0  0  0  0  0  0  0
   19.9768    7.7165   52.0569 O   0  0  0  0  0  0  0  0  0  0  0  0
   18.9626    6.7996   52.2532 C   0  0  0  0  0  0  0  0  0  0  0  0
   18.9699    6.2165   53.6594 C   0  0  0  0  0  0  0  0  0  0  0  0
   18.9544    4.6863   53.5444 C   0  0  0  0  0  0  0  0  0  0  0  0
   17.5825    4.2487   53.6127 N   0  0  0  0  0  0  0  0  0  0  0  0
   17.3985    3.0425   52.7724 C   0  0  0  0  0  0  0  0  0  0  0  0
   15.9522    2.6151   53.0390 C   0  0  0  0  0  0  0  0  0  0  0  0
   15.1987    3.6370   53.6166 O   0  0  0  0  0  0  0  0  0  0  0  0
   15.6365    3.9390   54.9213 C   0  0  0  0  0  0  0  0  0  0  0  0
   17.1682    3.8562   54.9585 C   0  0  0  0  0  0  0  0  0  0  0  0
 37 38  1  0  0  0
 38 27  1  0  0  0
 27 28  2  0  0  0
 28 29  1  0  0  0
 29 30  2  0  0  0
 30 26  1  0  0  0
 26  1  1  0  0  0
  1  2  2  0  0  0
  2  3  1  0  0  0
  3  4  2  0  0  0
  4  8  1  0  0  0
  8  9  1  0  0  0
  9 10  2  0  0  0
  9 12  1  0  0  0
 12 13  1  0  0  0
 13 14  1  0  0  0
 12 15  1  0  0  0
 15 16  2  0  0  0
 15 17  1  0  0  0
 17 19  1  0  0  0
 19 20  2  0  0  0
 20 21  1  0  0  0
 21 22  1  0  0  0
 22 23  1  0  0  0
 22 24  1  0  0  0
 24 25  2  0  0  0
  4  5  1  0  0  0
  5  6  2  0  0  0
  6  7  1  0  0  0
 30 31  1  0  0  0
 31 32  2  0  0  0
 32 33  1  0  0  0
 33 34  2  0  0  0
 34 35  1  0  0  0
 35 36  2  0  0  0
 36 39  1  0  0  0
 39 40  1  0  0  0
 40 41  1  0  0  0
 41 42  1  0  0  0
 42 43  1  0  0  0
 43 44  1  0  0  0
 44 45  1  0  0  0
 45 46  1  0  0  0
 46 47  1  0  0  0
 47 48  1  0  0  0
 36 27  1  0  0  0
 48 43  1  0  0  0
 34 29  1  0  0  0
  6  1  1  0  0  0
 14 12  1  0  0  0
 25 19  1  0  0  0
  8 11  1  0  0  0
 17 18  1  0  0  0
M  END
> <minimizedAffinity>
19.57098

> <CNNscore>
0.5811318159

> <CNNaffinity>
7.0208802223

> <CNN_VS>
4.0800566673

> <CNNaffinity_variance>
0.1914410293

$$$$
[H]C1=C([H])C([H])(F)C([H])([H])C([H])=C1N([H])C(=O)C1(C(=O)N([H])c2c([H])c([H])c(Oc3c([H])c([H])nc4c([H])c(OC([H])([H])C([H])([H])C([H])([H])N5C([H])([H])C([H])([H])OC([H])([H])C5([H])[H])c(OC([H])([H])[H])c([H])c34)c(F)c2[H])C([H])([H])C1([H])[H]


 48 53  0  0  0  0  0  0  0  0999 V2000
   20.9271   12.5356   52.6934 C   0  0  0  0  0  0  0  0  0  0  0  0
   20.2992   13.7129   53.0753 C   0  0  0  0  0  0  0  0  0  0  0  0
   20.3341   14.8746   52.3629 C   0  0  0  0  0  0  0  0  0  0  0  0
   21.0461   14.9105   51.1586 C   0  0  0  0  0  0  0  0  0  0  0  0
   21.6794   13.7704   50.7444 C   0  0  0  0  0  0  0  0  0  0  0  0
   21.6256   12.5875   51.4996 C   0  0  0  0  0  0  0  0  0  0  0  0
   22.2558   11.4945   51.0100 F   0  0  0  0  0  0  0  0  0  0  0  0
   21.0389   16.1311   50.3946 N   0  0  0  0  0  0  0  0  0  0  0  0
   22.1859   16.8187   50.0703 C   0  0  0  0  0  0  0  0  0  0  0  0
   23.2943   16.3217   50.5267 O   0  0  0  0  0  0  0  0  0  0  0  0
   20.0938   16.4537   50.1365 H   0  0  0  0  0  0  0  0  0  0  0  0
   22.3928   18.0556   49.2789 C   0  0  0  0  0  0  0  0  0  0  0  0
   23.4735   18.9763   49.8201 C   0  0  0  0  0  0  0  0  0  0  0  0
   22.0969   19.3628   50.1154 C   0  0  0  0  0  0  0  0  0  0  0  0
   22.0486   18.1985   47.8639 C   0  0  0  0  0  0  0  0  0  0  0  0
   22.8294   19.0384   47.2210 O   0  0  0  0  0  0  0  0  0  0  0  0
   21.0731   17.6287   47.0548 N   0  0  0  0  0  0  0  0  0  0  0  0
   20.3859   16.9272   47.3757 H   0  0  0  0  0  0  0  0  0  0  0  0
   20.9786   17.9788   45.6373 C   0  0  0  0  0  0  0  0  0  0  0  0
   21.5726   17.1806   44.7795 C   0  0  0  0  0  0  0  0  0  0  0  0
   21.5976   17.3463   43.3293 C   0  0  0  0  0  0  0  0  0  0  0  0
   20.9206   18.5573   42.8172 C   0  0  0  0  0  0  0  0  0  0  0  0
   19.8994   18.1849   41.9059 F   0  0  0  0  0  0  0  0  0  0  0  0
   20.2909   19.3780   43.8533 C   0  0  0  0  0  0  0  0  0  0  0  0
   20.3024   19.1368   45.1485 C   0  0  0  0  0  0  0  0  0  0  0  0
   20.8506   11.3922   53.4579 O   0  0  0  0  0  0  0  0  0  0  0  0
   24.1763    9.7830   55.2239 C   0  0  0  0  0  0  0  0  0  0  0  0
   23.0673   10.3352   54.6444 C   0  0  0  0  0  0  0  0  0  0  0  0
   22.4380    9.6515   53.6264 C   0  0  0  0  0  0  0  0  0  0  0  0
   21.2921   10.1830   52.9961 C   0  0  0  0  0  0  0  0  0  0  0  0
   20.6823    9.4871   51.9790 C   0  0  0  0  0  0  0  0  0  0  0  0
   21.1707    8.2691   51.5600 C   0  0  0  0  0  0  0  0  0  0  0  0
   22.2598    7.7658   52.1619 N   0  0  0  0  0  0  0  0  0  0  0  0
   22.8816    8.4370   53.1707 C   0  0  0  0  0  0  0  0  0  0  0  0
   24.0064    7.8819   53.7618 C   0  0  0  0  0  0  0  0  0  0  0  0
   24.6546    8.5391   54.7797 C   0  0  0  0  0  0  0  0  0  0  0  0
   25.1711   11.7585   56.1892 C   0  0  0  0  0  0  0  0  0  0  0  0
   24.8843   10.3801   56.2491 O   0  0  0  0  0  0  0  0  0  0  0  0
   25.7511    8.0010   55.3701 O   0  0  0  0  0  0  0  0  0  0  0  0
   26.9297    8.6709   55.6347 C   0  0  0  0  0  0  0  0  0  0  0  0
   27.2094    8.7886   57.1265 C   0  0  0  0  0  0  0  0  0  0  0  0
   28.2442    9.9026   57.3342 C   0  0  0  0  0  0  0  0  0  0  0  0
   28.4225   10.0855   58.7530 N   0  0  0  0  0  0  0  0  0  0  0  0
   29.1040    8.9029   59.3292 C   0  0  0  0  0  0  0  0  0  0  0  0
   29.3447    9.2834   60.7931 C   0  0  0  0  0  0  0  0  0  0  0  0
   28.5515   10.3578   61.1956 O   0  0  0  0  0  0  0  0  0  0  0  0
   28.9148   11.5522   60.5423 C   0  0  0  0  0  0  0  0  0  0  0  0
   29.2714   11.2282   59.0855 C   0  0  0  0  0  0  0  0  0  0  0  0
 37 38  1  0  0  0
 38 27  1  0  0  0
 27 28  2  0  0  0
 28 29  1  0  0  0
 29 30  2  0  0  0
 30 26  1  0  0  0
 26  1  1  0  0  0
  1  2  2  0  0  0
  2  3  1  0  0  0
  3  4  2  0  0  0
  4  8  1  0  0  0
  8  9  1  0  0  0
  9 10  2  0  0  0
  9 12  1  0  0  0
 12 13  1  0  0  0
 13 14  1  0  0  0
 12 15  1  0  0  0
 15 16  2  0  0  0
 15 17  1  0  0  0
 17 19  1  0  0  0
 19 20  2  0  0  0
 20 21  1  0  0  0
 21 22  1  0  0  0
 22 23  1  0  0  0
 22 24  1  0  0  0
 24 25  2  0  0  0
  4  5  1  0  0  0
  5  6  2  0  0  0
  6  7  1  0  0  0
 30 31  1  0  0  0
 31 32  2  0  0  0
 32 33  1  0  0  0
 33 34  2  0  0  0
 34 35  1  0  0  0
 35 36  2  0  0  0
 36 39  1  0  0  0
 39 40  1  0  0  0
 40 41  1  0  0  0
 41 42  1  0  0  0
 42 43  1  0  0  0
 43 44  1  0  0  0
 44 45  1  0  0  0
 45 46  1  0  0  0
 46 47  1  0  0  0
 47 48  1  0  0  0
 36 27  1  0  0  0
 48 43  1  0  0  0
 34 29  1  0  0  0
  6  1  1  0  0  0
 14 12  1  0  0  0
 25 19  1  0  0  0
  8 11  1  0  0  0
 17 18  1  0  0  0
M  END
> <minimizedAffinity>
17.77689

> <CNNscore>
0.5748485923

> <CNNaffinity>
6.8492202759

> <CNN_VS>
3.9372646809

> <CNNaffinity_variance>
0.0806254745

$$$$
[H]C1=C([H])C([H])(F)C([H])([H])C([H])=C1N([H])C(=O)C1(C(=O)N([H])c2c([H])c([H])c(Oc3c([H])c([H])nc4c([H])c(OC([H])([H])C([H])([H])C([H])([H])N5C([H])([H])C([H])([H])OC([H])([H])C5([H])[H])c(OC([H])([H])[H])c([H])c34)c(F)c2[H])C([H])([H])C1([H])[H]


 48 53  0  0  0  0  0  0  0  0999 V2000
   26.9186    8.7585   54.9387 C   0  0  0  0  0  0  0  0  0  0  0  0
   28.2678    9.0171   55.1368 C   0  0  0  0  0  0  0  0  0  0  0  0
   28.7947    9.5462   56.2773 C   0  0  0  0  0  0  0  0  0  0  0  0
   27.9376    9.8602   57.3382 C   0  0  0  0  0  0  0  0  0  0  0  0
   26.5993    9.6198   57.1849 C   0  0  0  0  0  0  0  0  0  0  0  0
   26.0850    9.0733   55.9977 C   0  0  0  0  0  0  0  0  0  0  0  0
   24.7534    8.8403   55.9328 F   0  0  0  0  0  0  0  0  0  0  0  0
   28.5122   10.3779   58.5529 N   0  0  0  0  0  0  0  0  0  0  0  0
   28.3461   11.6805   58.9645 C   0  0  0  0  0  0  0  0  0  0  0  0
   27.6617   12.4444   58.1697 O   0  0  0  0  0  0  0  0  0  0  0  0
   29.0795    9.6891   59.0702 H   0  0  0  0  0  0  0  0  0  0  0  0
   28.8203   12.3898   60.1773 C   0  0  0  0  0  0  0  0  0  0  0  0
   27.8061   13.3432   60.7864 C   0  0  0  0  0  0  0  0  0  0  0  0
   28.8588   13.9572   59.9824 C   0  0  0  0  0  0  0  0  0  0  0  0
   29.8826   11.9022   61.0575 C   0  0  0  0  0  0  0  0  0  0  0  0
   30.8248   11.2434   60.4200 O   0  0  0  0  0  0  0  0  0  0  0  0
   30.1081   11.9936   62.4256 N   0  0  0  0  0  0  0  0  0  0  0  0
   29.4919   12.4952   63.0861 H   0  0  0  0  0  0  0  0  0  0  0  0
   31.2950   11.3884   63.0304 C   0  0  0  0  0  0  0  0  0  0  0  0
   32.4182   11.4592   62.3528 C   0  0  0  0  0  0  0  0  0  0  0  0
   33.7094   10.9245   62.7746 C   0  0  0  0  0  0  0  0  0  0  0  0
   33.7069   10.2053   64.0669 C   0  0  0  0  0  0  0  0  0  0  0  0
   34.6258   10.8182   64.9568 F   0  0  0  0  0  0  0  0  0  0  0  0
   32.4075   10.1845   64.7411 C   0  0  0  0  0  0  0  0  0  0  0  0
   31.2900   10.7168   64.2898 C   0  0  0  0  0  0  0  0  0  0  0  0
   26.4493    8.2186   53.7614 O   0  0  0  0  0  0  0  0  0  0  0  0
   22.8232    9.0718   52.0609 C   0  0  0  0  0  0  0  0  0  0  0  0
   24.0395    8.8039   52.6260 C   0  0  0  0  0  0  0  0  0  0  0  0
   24.2683    7.5498   53.1499 C   0  0  0  0  0  0  0  0  0  0  0  0
   25.5068    7.2278   53.7457 C   0  0  0  0  0  0  0  0  0  0  0  0
   25.7128    5.9721   54.2669 C   0  0  0  0  0  0  0  0  0  0  0  0
   24.7260    5.0123   54.2170 C   0  0  0  0  0  0  0  0  0  0  0  0
   23.5497    5.3211   53.6489 N   0  0  0  0  0  0  0  0  0  0  0  0
   23.3219    6.5582   53.1268 C   0  0  0  0  0  0  0  0  0  0  0  0
   22.0905    6.8354   52.5528 C   0  0  0  0  0  0  0  0  0  0  0  0
   21.8331    8.0761   52.0211 C   0  0  0  0  0  0  0  0  0  0  0  0
   21.1828   10.8004   51.6791 C   0  0  0  0  0  0  0  0  0  0  0  0
   22.4860   10.2922   51.5077 O   0  0  0  0  0  0  0  0  0  0  0  0
   20.6346    8.3550   51.4501 O   0  0  0  0  0  0  0  0  0  0  0  0
   19.4366    7.7408   51.7590 C   0  0  0  0  0  0  0  0  0  0  0  0
   19.4887    6.9996   53.0876 C   0  0  0  0  0  0  0  0  0  0  0  0
   19.2785    8.0197   54.2147 C   0  0  0  0  0  0  0  0  0  0  0  0
   20.5720    8.5178   54.6109 N   0  0  0  0  0  0  0  0  0  0  0  0
   20.5065    9.9853   54.8039 C   0  0  0  0  0  0  0  0  0  0  0  0
   21.8911   10.3562   55.3431 C   0  0  0  0  0  0  0  0  0  0  0  0
   22.8319    9.3520   55.1148 O   0  0  0  0  0  0  0  0  0  0  0  0
   22.5524    8.1909   55.8624 C   0  0  0  0  0  0  0  0  0  0  0  0
   21.0336    7.9745   55.8872 C   0  0  0  0  0  0  0  0  0  0  0  0
 37 38  1  0  0  0
 38 27  1  0  0  0
 27 28  2  0  0  0
 28 29  1  0  0  0
 29 30  2  0  0  0
 30 26  1  0  0  0
 26  1  1  0  0  0
  1  2  2  0  0  0
  2  3  1  0  0  0
  3  4  2  0  0  0
  4  8  1  0  0  0
  8  9  1  0  0  0
  9 10  2  0  0  0
  9 12  1  0  0  0
 12 13  1  0  0  0
 13 14  1  0  0  0
 12 15  1  0  0  0
 15 16  2  0  0  0
 15 17  1  0  0  0
 17 19  1  0  0  0
 19 20  2  0  0  0
 20 21  1  0  0  0
 21 22  1  0  0  0
 22 23  1  0  0  0
 22 24  1  0  0  0
 24 25  2  0  0  0
  4  5  1  0  0  0
  5  6  2  0  0  0
  6  7  1  0  0  0
 30 31  1  0  0  0
 31 32  2  0  0  0
 32 33  1  0  0  0
 33 34  2  0  0  0
 34 35  1  0  0  0
 35 36  2  0  0  0
 36 39  1  0  0  0
 39 40  1  0  0  0
 40 41  1  0  0  0
 41 42  1  0  0  0
 42 43  1  0  0  0
 43 44  1  0  0  0
 44 45  1  0  0  0
 45 46  1  0  0  0
 46 47  1  0  0  0
 47 48  1  0  0  0
 36 27  1  0  0  0
 48 43  1  0  0  0
 34 29  1  0  0  0
  6  1  1  0  0  0
 14 12  1  0  0  0
 25 19  1  0  0  0
  8 11  1  0  0  0
 17 18  1  0  0  0
M  END
> <minimizedAffinity>
19.68127

> <CNNscore>
0.5552670956

> <CNNaffinity>
6.9940414429

> <CNN_VS>
3.8835611343

> <CNNaffinity_variance>
0.4591952264

$$$$
[H]C1=C([H])C([H])(F)C([H])([H])C([H])=C1N([H])C(=O)C1(C(=O)N([H])c2c([H])c([H])c(Oc3c([H])c([H])nc4c([H])c(OC([H])([H])C([H])([H])C([H])([H])N5C([H])([H])C([H])([H])OC([H])([H])C5([H])[H])c(OC([H])([H])[H])c([H])c34)c(F)c2[H])C([H])([H])C1([H])[H]


 48 53  0  0  0  0  0  0  0  0999 V2000
   26.4846    9.1518   56.0033 C   0  0  0  0  0  0  0  0  0  0  0  0
   26.2102    9.9233   57.1239 C   0  0  0  0  0  0  0  0  0  0  0  0
   27.1574   10.4933   57.9215 C   0  0  0  0  0  0  0  0  0  0  0  0
   28.5088   10.3029   57.6118 C   0  0  0  0  0  0  0  0  0  0  0  0
   28.8236    9.5492   56.5139 C   0  0  0  0  0  0  0  0  0  0  0  0
   27.8256    8.9743   55.7101 C   0  0  0  0  0  0  0  0  0  0  0  0
   28.2165    8.2645   54.6263 F   0  0  0  0  0  0  0  0  0  0  0  0
   29.4981   10.9462   58.4372 N   0  0  0  0  0  0  0  0  0  0  0  0
   29.5003   10.8580   59.8105 C   0  0  0  0  0  0  0  0  0  0  0  0
   28.5263   10.1819   60.3378 O   0  0  0  0  0  0  0  0  0  0  0  0
   30.1873   11.4987   57.9047 H   0  0  0  0  0  0  0  0  0  0  0  0
   30.4319   11.4101   60.8234 C   0  0  0  0  0  0  0  0  0  0  0  0
   31.4843   10.4293   61.3124 C   0  0  0  0  0  0  0  0  0  0  0  0
   30.3467   10.6433   62.2021 C   0  0  0  0  0  0  0  0  0  0  0  0
   30.7281   12.8340   60.9846 C   0  0  0  0  0  0  0  0  0  0  0  0
   31.8673   13.0619   61.5998 O   0  0  0  0  0  0  0  0  0  0  0  0
   30.0608   13.9968   60.6190 N   0  0  0  0  0  0  0  0  0  0  0  0
   29.1651   14.0181   60.1046 H   0  0  0  0  0  0  0  0  0  0  0  0
   30.6258   15.3114   60.9251 C   0  0  0  0  0  0  0  0  0  0  0  0
   31.9334   15.4293   60.8814 C   0  0  0  0  0  0  0  0  0  0  0  0
   32.6941   16.6462   61.1493 C   0  0  0  0  0  0  0  0  0  0  0  0
   31.8904   17.8225   61.5463 C   0  0  0  0  0  0  0  0  0  0  0  0
   32.1252   18.8893   60.6413 F   0  0  0  0  0  0  0  0  0  0  0  0
   30.4457   17.5859   61.5632 C   0  0  0  0  0  0  0  0  0  0  0  0
   29.8418   16.4488   61.2839 C   0  0  0  0  0  0  0  0  0  0  0  0
   25.4797    8.6055   55.2356 O   0  0  0  0  0  0  0  0  0  0  0  0
   22.5626    6.5208   53.2573 C   0  0  0  0  0  0  0  0  0  0  0  0
   23.5490    7.2045   53.9134 C   0  0  0  0  0  0  0  0  0  0  0  0
   23.2456    8.4178   54.4926 C   0  0  0  0  0  0  0  0  0  0  0  0
   24.2312    9.1608   55.1777 C   0  0  0  0  0  0  0  0  0  0  0  0
   23.9088   10.3715   55.7442 C   0  0  0  0  0  0  0  0  0  0  0  0
   22.6307   10.8778   55.6576 C   0  0  0  0  0  0  0  0  0  0  0  0
   21.6954   10.1686   55.0064 N   0  0  0  0  0  0  0  0  0  0  0  0
   21.9910    8.9675   54.4364 C   0  0  0  0  0  0  0  0  0  0  0  0
   20.9950    8.2702   53.7698 C   0  0  0  0  0  0  0  0  0  0  0  0
   21.2666    7.0576   53.1833 C   0  0  0  0  0  0  0  0  0  0  0  0
   24.0418    4.7253   52.6150 C   0  0  0  0  0  0  0  0  0  0  0  0
   22.7550    5.2994   52.6409 O   0  0  0  0  0  0  0  0  0  0  0  0
   20.2974    6.3636   52.5358 O   0  0  0  0  0  0  0  0  0  0  0  0
   19.2580    5.6835   53.1399 C   0  0  0  0  0  0  0  0  0  0  0  0
   19.5549    4.2001   53.3103 C   0  0  0  0  0  0  0  0  0  0  0  0
   18.6368    3.6502   54.4102 C   0  0  0  0  0  0  0  0  0  0  0  0
   17.2780    3.7265   53.9351 N   0  0  0  0  0  0  0  0  0  0  0  0
   16.9655    2.5323   53.1159 C   0  0  0  0  0  0  0  0  0  0  0  0
   15.4755    2.6769   52.7927 C   0  0  0  0  0  0  0  0  0  0  0  0
   15.0148    3.9768   53.0011 O   0  0  0  0  0  0  0  0  0  0  0  0
   15.0310    4.3271   54.3657 C   0  0  0  0  0  0  0  0  0  0  0  0
   16.2894    3.7331   55.0120 C   0  0  0  0  0  0  0  0  0  0  0  0
 37 38  1  0  0  0
 38 27  1  0  0  0
 27 28  2  0  0  0
 28 29  1  0  0  0
 29 30  2  0  0  0
 30 26  1  0  0  0
 26  1  1  0  0  0
  1  2  2  0  0  0
  2  3  1  0  0  0
  3  4  2  0  0  0
  4  8  1  0  0  0
  8  9  1  0  0  0
  9 10  2  0  0  0
  9 12  1  0  0  0
 12 13  1  0  0  0
 13 14  1  0  0  0
 12 15  1  0  0  0
 15 16  2  0  0  0
 15 17  1  0  0  0
 17 19  1  0  0  0
 19 20  2  0  0  0
 20 21  1  0  0  0
 21 22  1  0  0  0
 22 23  1  0  0  0
 22 24  1  0  0  0
 24 25  2  0  0  0
  4  5  1  0  0  0
  5  6  2  0  0  0
  6  7  1  0  0  0
 30 31  1  0  0  0
 31 32  2  0  0  0
 32 33  1  0  0  0
 33 34  2  0  0  0
 34 35  1  0  0  0
 35 36  2  0  0  0
 36 39  1  0  0  0
 39 40  1  0  0  0
 40 41  1  0  0  0
 41 42  1  0  0  0
 42 43  1  0  0  0
 43 44  1  0  0  0
 44 45  1  0  0  0
 45 46  1  0  0  0
 46 47  1  0  0  0
 47 48  1  0  0  0
 36 27  1  0  0  0
 48 43  1  0  0  0
 34 29  1  0  0  0
  6  1  1  0  0  0
 14 12  1  0  0  0
 25 19  1  0  0  0
  8 11  1  0  0  0
 17 18  1  0  0  0
M  END
> <minimizedAffinity>
20.17919

> <CNNscore>
0.5539169312

> <CNNaffinity>
6.9802145958

> <CNN_VS>
3.8664591312

> <CNNaffinity_variance>
0.2130480111

$$$$
[H]C1=C([H])C([H])(F)C([H])([H])C([H])=C1N([H])C(=O)C1(C(=O)N([H])c2c([H])c([H])c(Oc3c([H])c([H])nc4c([H])c(OC([H])([H])C([H])([H])C([H])([H])N5C([H])([H])C([H])([H])OC([H])([H])C5([H])[H])c(OC([H])([H])[H])c([H])c34)c(F)c2[H])C([H])([H])C1([H])[H]


 48 53  0  0  0  0  0  0  0  0999 V2000
   26.1807    8.5662   54.6429 C   0  0  0  0  0  0  0  0  0  0  0  0
   27.5557    8.3982   54.7299 C   0  0  0  0  0  0  0  0  0  0  0  0
   28.3135    8.7648   55.8020 C   0  0  0  0  0  0  0  0  0  0  0  0
   27.6868    9.3544   56.9058 C   0  0  0  0  0  0  0  0  0  0  0  0
   26.3314    9.5374   56.8618 C   0  0  0  0  0  0  0  0  0  0  0  0
   25.5762    9.1493   55.7430 C   0  0  0  0  0  0  0  0  0  0  0  0
   24.2370    9.3392   55.7863 F   0  0  0  0  0  0  0  0  0  0  0  0
   28.4925    9.6972   58.0489 N   0  0  0  0  0  0  0  0  0  0  0  0
   28.5083   10.9563   58.6041 C   0  0  0  0  0  0  0  0  0  0  0  0
   27.7730   11.8470   58.0126 O   0  0  0  0  0  0  0  0  0  0  0  0
   29.0743    8.9190   58.3951 H   0  0  0  0  0  0  0  0  0  0  0  0
   29.2316   11.4963   59.7805 C   0  0  0  0  0  0  0  0  0  0  0  0
   30.3233   10.5879   60.3203 C   0  0  0  0  0  0  0  0  0  0  0  0
   29.0650   10.5856   61.0607 C   0  0  0  0  0  0  0  0  0  0  0  0
   29.3325   12.9192   60.1068 C   0  0  0  0  0  0  0  0  0  0  0  0
   28.3105   13.6253   59.6763 O   0  0  0  0  0  0  0  0  0  0  0  0
   30.2792   13.6808   60.7810 N   0  0  0  0  0  0  0  0  0  0  0  0
   31.1359   13.2976   61.2131 H   0  0  0  0  0  0  0  0  0  0  0  0
   30.0952   15.1221   60.9534 C   0  0  0  0  0  0  0  0  0  0  0  0
   28.8746   15.5496   61.1834 C   0  0  0  0  0  0  0  0  0  0  0  0
   28.4766   16.9396   61.3854 C   0  0  0  0  0  0  0  0  0  0  0  0
   29.5647   17.9345   61.2698 C   0  0  0  0  0  0  0  0  0  0  0  0
   29.6644   18.6759   62.4749 F   0  0  0  0  0  0  0  0  0  0  0  0
   30.8846   17.3552   61.0134 C   0  0  0  0  0  0  0  0  0  0  0  0
   31.1548   16.0743   60.8645 C   0  0  0  0  0  0  0  0  0  0  0  0
   25.4710    8.1706   53.5304 O   0  0  0  0  0  0  0  0  0  0  0  0
   21.8594    9.3795   52.0261 C   0  0  0  0  0  0  0  0  0  0  0  0
   23.0726    8.9919   52.5247 C   0  0  0  0  0  0  0  0  0  0  0  0
   23.1923    7.7383   53.0848 C   0  0  0  0  0  0  0  0  0  0  0  0
   24.4234    7.2956   53.6149 C   0  0  0  0  0  0  0  0  0  0  0  0
   24.5201    6.0429   54.1738 C   0  0  0  0  0  0  0  0  0  0  0  0
   23.4298    5.2027   54.2256 C   0  0  0  0  0  0  0  0  0  0  0  0
   22.2607    5.6261   53.7198 N   0  0  0  0  0  0  0  0  0  0  0  0
   22.1402    6.8628   53.1622 C   0  0  0  0  0  0  0  0  0  0  0  0
   20.9125    7.2610   52.6553 C   0  0  0  0  0  0  0  0  0  0  0  0
   20.7624    8.5043   52.0897 C   0  0  0  0  0  0  0  0  0  0  0  0
   21.5907   11.7674   52.2497 C   0  0  0  0  0  0  0  0  0  0  0  0
   21.6265   10.6111   51.4449 O   0  0  0  0  0  0  0  0  0  0  0  0
   19.5678    8.9005   51.5837 O   0  0  0  0  0  0  0  0  0  0  0  0
   18.9411    8.3507   50.4824 C   0  0  0  0  0  0  0  0  0  0  0  0
   17.7953    9.2144   49.9738 C   0  0  0  0  0  0  0  0  0  0  0  0
   16.7511    9.3335   51.0921 C   0  0  0  0  0  0  0  0  0  0  0  0
   15.4876    9.6728   50.4868 N   0  0  0  0  0  0  0  0  0  0  0  0
   14.5801   10.2456   51.5082 C   0  0  0  0  0  0  0  0  0  0  0  0
   13.3437   10.6769   50.7139 C   0  0  0  0  0  0  0  0  0  0  0  0
   13.2892   10.0757   49.4564 O   0  0  0  0  0  0  0  0  0  0  0  0
   14.3237   10.5275   48.6133 C   0  0  0  0  0  0  0  0  0  0  0  0
   15.6014   10.6934   49.4465 C   0  0  0  0  0  0  0  0  0  0  0  0
 37 38  1  0  0  0
 38 27  1  0  0  0
 27 28  2  0  0  0
 28 29  1  0  0  0
 29 30  2  0  0  0
 30 26  1  0  0  0
 26  1  1  0  0  0
  1  2  2  0  0  0
  2  3  1  0  0  0
  3  4  2  0  0  0
  4  8  1  0  0  0
  8  9  1  0  0  0
  9 10  2  0  0  0
  9 12  1  0  0  0
 12 13  1  0  0  0
 13 14  1  0  0  0
 12 15  1  0  0  0
 15 16  2  0  0  0
 15 17  1  0  0  0
 17 19  1  0  0  0
 19 20  2  0  0  0
 20 21  1  0  0  0
 21 22  1  0  0  0
 22 23  1  0  0  0
 22 24  1  0  0  0
 24 25  2  0  0  0
  4  5  1  0  0  0
  5  6  2  0  0  0
  6  7  1  0  0  0
 30 31  1  0  0  0
 31 32  2  0  0  0
 32 33  1  0  0  0
 33 34  2  0  0  0
 34 35  1  0  0  0
 35 36  2  0  0  0
 36 39  1  0  0  0
 39 40  1  0  0  0
 40 41  1  0  0  0
 41 42  1  0  0  0
 42 43  1  0  0  0
 43 44  1  0  0  0
 44 45  1  0  0  0
 45 46  1  0  0  0
 46 47  1  0  0  0
 47 48  1  0  0  0
 36 27  1  0  0  0
 48 43  1  0  0  0
 34 29  1  0  0  0
  6  1  1  0  0  0
 14 12  1  0  0  0
 25 19  1  0  0  0
  8 11  1  0  0  0
 17 18  1  0  0  0
M  END
> <minimizedAffinity>
29.49985

> <CNNscore>
0.5465220809

> <CNNaffinity>
6.9471998215

> <CNN_VS>
3.7967979908

> <CNNaffinity_variance>
0.2249906510

$$$$
[H]OC(=O)c1c([H])c([H])c(N([H])C(=O)c2c([H])c([H])c(N([H])C(=O)c3c([H])c([H])c(C(F)(F)F)c([H])c3[H])c([H])c2[H])c([H])c1[H]


 34 36  0  0  0  0  0  0  0  0999 V2000
   28.1862   11.3155   57.8425 C   0  0  0  0  0  0  0  0  0  0  0  0
   27.0571   11.7142   57.1251 C   0  0  0  0  0  0  0  0  0  0  0  0
   26.3152   10.8551   56.3735 C   0  0  0  0  0  0  0  0  0  0  0  0
   26.7614    9.4972   56.3542 C   0  0  0  0  0  0  0  0  0  0  0  0
   27.8442    9.1090   57.0399 C   0  0  0  0  0  0  0  0  0  0  0  0
   28.5879   10.0343   57.8117 C   0  0  0  0  0  0  0  0  0  0  0  0
   28.8609   12.4030   59.9443 C   0  0  0  0  0  0  0  0  0  0  0  0
   28.3022   11.5331   60.6392 O   0  0  0  0  0  0  0  0  0  0  0  0
   28.8458   12.3428   58.5502 N   0  0  0  0  0  0  0  0  0  0  0  0
   29.3578   13.0776   57.9602 H   0  0  0  0  0  0  0  0  0  0  0  0
   30.8520   15.8412   61.5918 C   0  0  0  0  0  0  0  0  0  0  0  0
   29.6351   15.9525   60.9488 C   0  0  0  0  0  0  0  0  0  0  0  0
   29.0122   14.8120   60.4524 C   0  0  0  0  0  0  0  0  0  0  0  0
   29.5554   13.5522   60.5730 C   0  0  0  0  0  0  0  0  0  0  0  0
   30.7613   13.4389   61.2155 C   0  0  0  0  0  0  0  0  0  0  0  0
   31.4017   14.5858   61.7181 C   0  0  0  0  0  0  0  0  0  0  0  0
   31.6000   17.0261   62.1384 C   0  0  0  0  0  0  0  0  0  0  0  0
   32.1497   17.8120   61.1838 F   0  0  0  0  0  0  0  0  0  0  0  0
   30.7046   17.7541   62.9631 F   0  0  0  0  0  0  0  0  0  0  0  0
   32.5533   16.5452   63.0169 F   0  0  0  0  0  0  0  0  0  0  0  0
   25.9177    8.5685   55.5484 C   0  0  0  0  0  0  0  0  0  0  0  0
   26.3638    7.4490   55.2990 O   0  0  0  0  0  0  0  0  0  0  0  0
   24.6708    9.0334   55.1440 N   0  0  0  0  0  0  0  0  0  0  0  0
   24.4738   10.0730   55.3764 H   0  0  0  0  0  0  0  0  0  0  0  0
   23.6559    8.3636   54.4529 C   0  0  0  0  0  0  0  0  0  0  0  0
   22.5842    9.1015   53.9515 C   0  0  0  0  0  0  0  0  0  0  0  0
   21.4798    8.5751   53.3684 C   0  0  0  0  0  0  0  0  0  0  0  0
   21.3950    7.1604   53.2540 C   0  0  0  0  0  0  0  0  0  0  0  0
   22.4143    6.4290   53.7266 C   0  0  0  0  0  0  0  0  0  0  0  0
   23.5389    6.9760   54.3189 C   0  0  0  0  0  0  0  0  0  0  0  0
   20.1928    6.6000   52.6433 C   0  0  0  0  0  0  0  0  0  0  0  0
   19.6538    7.1729   51.7121 O   0  0  0  0  0  0  0  0  0  0  0  0
   19.7502    5.4124   53.2159 O   0  0  0  0  0  0  0  0  0  0  0  0
   19.6006    5.4137   54.2371 H   0  0  0  0  0  0  0  0  0  0  0  0
 11 17  1  0  0  0
 17 18  1  0  0  0
 17 19  1  0  0  0
 17 20  1  0  0  0
 11 12  2  0  0  0
 12 13  1  0  0  0
 13 14  2  0  0  0
 14  7  1  0  0  0
  7  8  2  0  0  0
  7  9  1  0  0  0
  9  1  1  0  0  0
  1  2  2  0  0  0
  2  3  1  0  0  0
  3  4  2  0  0  0
  4 21  1  0  0  0
 21 22  2  0  0  0
 21 23  1  0  0  0
 23 25  1  0  0  0
 25 26  2  0  0  0
 26 27  1  0  0  0
 27 28  2  0  0  0
 28 31  1  0  0  0
 31 32  2  0  0  0
 31 33  1  0  0  0
 28 29  1  0  0  0
 29 30  2  0  0  0
  4  5  1  0  0  0
  5  6  2  0  0  0
 14 15  1  0  0  0
 15 16  2  0  0  0
 16 11  1  0  0  0
  6  1  1  0  0  0
 30 25  1  0  0  0
  9 10  1  0  0  0
 23 24  1  0  0  0
 33 34  1  0  0  0
M  END
> <minimizedAffinity>
8.75657

> <CNNscore>
0.6782084703

> <CNNaffinity>
5.6568088531

> <CNN_VS>
3.8364956379

> <CNNaffinity_variance>
0.1414893866

$$$$
[H]OC(=O)c1c([H])c([H])c(N([H])C(=O)c2c([H])c([H])c(N([H])C(=O)c3c([H])c([H])c(C(F)(F)F)c([H])c3[H])c([H])c2[H])c([H])c1[H]


 34 36  0  0  0  0  0  0  0  0999 V2000
   30.0417    9.0331   61.4099 C   0  0  0  0  0  0  0  0  0  0  0  0
   28.7329    8.7876   61.8284 C   0  0  0  0  0  0  0  0  0  0  0  0
   28.2248    7.5331   61.9748 C   0  0  0  0  0  0  0  0  0  0  0  0
   29.1169    6.4586   61.6699 C   0  0  0  0  0  0  0  0  0  0  0  0
   30.3732    6.6880   61.2673 C   0  0  0  0  0  0  0  0  0  0  0  0
   30.8641    8.0090   61.1294 C   0  0  0  0  0  0  0  0  0  0  0  0
   29.4665   11.4253   61.4572 C   0  0  0  0  0  0  0  0  0  0  0  0
   28.2750   11.1908   61.7351 O   0  0  0  0  0  0  0  0  0  0  0  0
   30.3931   10.3949   61.2936 N   0  0  0  0  0  0  0  0  0  0  0  0
   31.4241   10.6069   61.0874 H   0  0  0  0  0  0  0  0  0  0  0  0
   30.7400   15.4736   60.7578 C   0  0  0  0  0  0  0  0  0  0  0  0
   29.4019   15.1345   60.7903 C   0  0  0  0  0  0  0  0  0  0  0  0
   29.0316   13.8179   61.0449 C   0  0  0  0  0  0  0  0  0  0  0  0
   29.9479   12.8154   61.2731 C   0  0  0  0  0  0  0  0  0  0  0  0
   31.2770   13.1511   61.2461 C   0  0  0  0  0  0  0  0  0  0  0  0
   31.6628   14.4783   60.9861 C   0  0  0  0  0  0  0  0  0  0  0  0
   31.2239   16.8682   60.4694 C   0  0  0  0  0  0  0  0  0  0  0  0
   32.5651   16.9592   60.3147 F   0  0  0  0  0  0  0  0  0  0  0  0
   30.5326   17.3322   59.3212 F   0  0  0  0  0  0  0  0  0  0  0  0
   30.7699   17.6837   61.4896 F   0  0  0  0  0  0  0  0  0  0  0  0
   28.5485    5.0938   61.8648 C   0  0  0  0  0  0  0  0  0  0  0  0
   29.3220    4.1367   61.8523 O   0  0  0  0  0  0  0  0  0  0  0  0
   27.1749    5.0007   62.0617 N   0  0  0  0  0  0  0  0  0  0  0  0
   26.6343    5.9336   61.9564 H   0  0  0  0  0  0  0  0  0  0  0  0
   26.3930    3.8747   62.3394 C   0  0  0  0  0  0  0  0  0  0  0  0
   27.0185    2.7232   62.8164 C   0  0  0  0  0  0  0  0  0  0  0  0
   26.4082    1.5296   63.0151 C   0  0  0  0  0  0  0  0  0  0  0  0
   25.0217    1.4305   62.7164 C   0  0  0  0  0  0  0  0  0  0  0  0
   24.3972    2.5250   62.2586 C   0  0  0  0  0  0  0  0  0  0  0  0
   25.0288    3.7401   62.0607 C   0  0  0  0  0  0  0  0  0  0  0  0
   24.3760    0.1357   62.9136 C   0  0  0  0  0  0  0  0  0  0  0  0
   23.1630    0.0635   63.0106 O   0  0  0  0  0  0  0  0  0  0  0  0
   25.2497   -0.9441   62.9843 O   0  0  0  0  0  0  0  0  0  0  0  0
   26.0177   -0.8791   63.6707 H   0  0  0  0  0  0  0  0  0  0  0  0
 11 17  1  0  0  0
 17 18  1  0  0  0
 17 19  1  0  0  0
 17 20  1  0  0  0
 11 12  2  0  0  0
 12 13  1  0  0  0
 13 14  2  0  0  0
 14  7  1  0  0  0
  7  8  2  0  0  0
  7  9  1  0  0  0
  9  1  1  0  0  0
  1  2  2  0  0  0
  2  3  1  0  0  0
  3  4  2  0  0  0
  4 21  1  0  0  0
 21 22  2  0  0  0
 21 23  1  0  0  0
 23 25  1  0  0  0
 25 26  2  0  0  0
 26 27  1  0  0  0
 27 28  2  0  0  0
 28 31  1  0  0  0
 31 32  2  0  0  0
 31 33  1  0  0  0
 28 29  1  0  0  0
 29 30  2  0  0  0
  4  5  1  0  0  0
  5  6  2  0  0  0
 14 15  1  0  0  0
 15 16  2  0  0  0
 16 11  1  0  0  0
  6  1  1  0  0  0
 30 25  1  0  0  0
  9 10  1  0  0  0
 23 24  1  0  0  0
 33 34  1  0  0  0
M  END
> <minimizedAffinity>
4.04488

> <CNNscore>
0.5152238011

> <CNNaffinity>
4.9186439514

> <CNN_VS>
2.5342023373

> <CNNaffinity_variance>
0.3853954077

$$$$
[H]OC(=O)c1c([H])c([H])c(N([H])C(=O)c2c([H])c([H])c(N([H])C(=O)c3c([H])c([H])c(C(F)(F)F)c([H])c3[H])c([H])c2[H])c([H])c1[H]


 34 36  0  0  0  0  0  0  0  0999 V2000
   22.9512    6.6114   54.1435 C   0  0  0  0  0  0  0  0  0  0  0  0
   23.2059    6.9223   55.4803 C   0  0  0  0  0  0  0  0  0  0  0  0
   24.3274    7.5774   55.8880 C   0  0  0  0  0  0  0  0  0  0  0  0
   25.2505    7.9361   54.8572 C   0  0  0  0  0  0  0  0  0  0  0  0
   25.0120    7.6399   53.5732 C   0  0  0  0  0  0  0  0  0  0  0  0
   23.8313    6.9585   53.1903 C   0  0  0  0  0  0  0  0  0  0  0  0
   20.4989    6.5282   53.9573 C   0  0  0  0  0  0  0  0  0  0  0  0
   20.3829    7.7441   54.2022 O   0  0  0  0  0  0  0  0  0  0  0  0
   21.7494    5.9114   53.9047 N   0  0  0  0  0  0  0  0  0  0  0  0
   21.8423    4.8712   53.6602 H   0  0  0  0  0  0  0  0  0  0  0  0
   16.9545    4.1435   53.4567 C   0  0  0  0  0  0  0  0  0  0  0  0
   16.8815    5.5010   53.6987 C   0  0  0  0  0  0  0  0  0  0  0  0
   18.0525    6.2407   53.8293 C   0  0  0  0  0  0  0  0  0  0  0  0
   19.3057    5.6792   53.7254 C   0  0  0  0  0  0  0  0  0  0  0  0
   19.3803    4.3323   53.4801 C   0  0  0  0  0  0  0  0  0  0  0  0
   18.2029    3.5742   53.3500 C   0  0  0  0  0  0  0  0  0  0  0  0
   15.7376    3.2696   53.3233 C   0  0  0  0  0  0  0  0  0  0  0  0
   15.9975    2.0485   52.8015 F   0  0  0  0  0  0  0  0  0  0  0  0
   15.1372    3.1736   54.6047 F   0  0  0  0  0  0  0  0  0  0  0  0
   14.8106    3.9627   52.5669 F   0  0  0  0  0  0  0  0  0  0  0  0
   26.4574    8.6779   55.3229 C   0  0  0  0  0  0  0  0  0  0  0  0
   27.2495    9.0868   54.4745 O   0  0  0  0  0  0  0  0  0  0  0  0
   26.5958    8.8677   56.6938 N   0  0  0  0  0  0  0  0  0  0  0  0
   25.8516    8.3670   57.3013 H   0  0  0  0  0  0  0  0  0  0  0  0
   27.5737    9.5792   57.3964 C   0  0  0  0  0  0  0  0  0  0  0  0
   28.2525    8.9421   58.4346 C   0  0  0  0  0  0  0  0  0  0  0  0
   29.1348    9.5396   59.2720 C   0  0  0  0  0  0  0  0  0  0  0  0
   29.3966   10.9250   59.0882 C   0  0  0  0  0  0  0  0  0  0  0  0
   28.7580   11.5594   58.0948 C   0  0  0  0  0  0  0  0  0  0  0  0
   27.8598   10.9400   57.2437 C   0  0  0  0  0  0  0  0  0  0  0  0
   30.3328   11.5662   60.0073 C   0  0  0  0  0  0  0  0  0  0  0  0
   29.9923   12.5489   60.6431 O   0  0  0  0  0  0  0  0  0  0  0  0
   31.5883   10.9709   60.0664 O   0  0  0  0  0  0  0  0  0  0  0  0
   32.0841   10.8369   59.1712 H   0  0  0  0  0  0  0  0  0  0  0  0
 11 17  1  0  0  0
 17 18  1  0  0  0
 17 19  1  0  0  0
 17 20  1  0  0  0
 11 12  2  0  0  0
 12 13  1  0  0  0
 13 14  2  0  0  0
 14  7  1  0  0  0
  7  8  2  0  0  0
  7  9  1  0  0  0
  9  1  1  0  0  0
  1  2  2  0  0  0
  2  3  1  0  0  0
  3  4  2  0  0  0
  4 21  1  0  0  0
 21 22  2  0  0  0
 21 23  1  0  0  0
 23 25  1  0  0  0
 25 26  2  0  0  0
 26 27  1  0  0  0
 27 28  2  0  0  0
 28 31  1  0  0  0
 31 32  2  0  0  0
 31 33  1  0  0  0
 28 29  1  0  0  0
 29 30  2  0  0  0
  4  5  1  0  0  0
  5  6  2  0  0  0
 14 15  1  0  0  0
 15 16  2  0  0  0
 16 11  1  0  0  0
  6  1  1  0  0  0
 30 25  1  0  0  0
  9 10  1  0  0  0
 23 24  1  0  0  0
 33 34  1  0  0  0
M  END
> <minimizedAffinity>
24.16636

> <CNNscore>
0.5038752556

> <CNNaffinity>
5.2359380722

> <CNN_VS>
2.6382596493

> <CNNaffinity_variance>
0.0375165157

$$$$
[H]OC(=O)c1c([H])c([H])c(N([H])C(=O)c2c([H])c([H])c(N([H])C(=O)c3c([H])c([H])c(C(F)(F)F)c([H])c3[H])c([H])c2[H])c([H])c1[H]


 34 36  0  0  0  0  0  0  0  0999 V2000
   25.1911    8.8029   54.4385 C   0  0  0  0  0  0  0  0  0  0  0  0
   25.0498    9.3320   55.7224 C   0  0  0  0  0  0  0  0  0  0  0  0
   26.0719    9.3812   56.6202 C   0  0  0  0  0  0  0  0  0  0  0  0
   27.3218    8.8508   56.1731 C   0  0  0  0  0  0  0  0  0  0  0  0
   27.4632    8.3413   54.9428 C   0  0  0  0  0  0  0  0  0  0  0  0
   26.3746    8.3106   54.0378 C   0  0  0  0  0  0  0  0  0  0  0  0
   22.9042    8.0352   53.9522 C   0  0  0  0  0  0  0  0  0  0  0  0
   22.8779    7.2985   54.9564 O   0  0  0  0  0  0  0  0  0  0  0  0
   24.0217    8.8139   53.6487 N   0  0  0  0  0  0  0  0  0  0  0  0
   24.0233    9.4706   52.8007 H   0  0  0  0  0  0  0  0  0  0  0  0
   19.5437    8.4370   51.2980 C   0  0  0  0  0  0  0  0  0  0  0  0
   20.6458    9.2626   51.1954 C   0  0  0  0  0  0  0  0  0  0  0  0
   21.7228    9.0828   52.0573 C   0  0  0  0  0  0  0  0  0  0  0  0
   21.7491    8.1036   53.0253 C   0  0  0  0  0  0  0  0  0  0  0  0
   20.6578    7.2796   53.1255 C   0  0  0  0  0  0  0  0  0  0  0  0
   19.5618    7.4547   52.2618 C   0  0  0  0  0  0  0  0  0  0  0  0
   18.3311    8.5780   50.4192 C   0  0  0  0  0  0  0  0  0  0  0  0
   17.1758    8.2117   51.0209 F   0  0  0  0  0  0  0  0  0  0  0  0
   18.2827    9.9222   49.9692 F   0  0  0  0  0  0  0  0  0  0  0  0
   18.5645    7.8453   49.2702 F   0  0  0  0  0  0  0  0  0  0  0  0
   28.4341    8.9412   57.1621 C   0  0  0  0  0  0  0  0  0  0  0  0
   29.5569    8.5852   56.8057 O   0  0  0  0  0  0  0  0  0  0  0  0
   28.1229    9.4380   58.4233 N   0  0  0  0  0  0  0  0  0  0  0  0
   27.0692    9.6222   58.5942 H   0  0  0  0  0  0  0  0  0  0  0  0
   28.9677    9.6983   59.5073 C   0  0  0  0  0  0  0  0  0  0  0  0
   29.3045   11.0207   59.7946 C   0  0  0  0  0  0  0  0  0  0  0  0
   30.1996   11.4110   60.7343 C   0  0  0  0  0  0  0  0  0  0  0  0
   30.8542   10.4022   61.4928 C   0  0  0  0  0  0  0  0  0  0  0  0
   30.5454    9.1229   61.2369 C   0  0  0  0  0  0  0  0  0  0  0  0
   29.6285    8.7344   60.2762 C   0  0  0  0  0  0  0  0  0  0  0  0
   31.8323   10.8299   62.4891 C   0  0  0  0  0  0  0  0  0  0  0  0
   32.5664   10.0131   63.0181 O   0  0  0  0  0  0  0  0  0  0  0  0
   31.8274   12.1941   62.7594 O   0  0  0  0  0  0  0  0  0  0  0  0
   30.9221   12.6149   63.0214 H   0  0  0  0  0  0  0  0  0  0  0  0
 11 17  1  0  0  0
 17 18  1  0  0  0
 17 19  1  0  0  0
 17 20  1  0  0  0
 11 12  2  0  0  0
 12 13  1  0  0  0
 13 14  2  0  0  0
 14  7  1  0  0  0
  7  8  2  0  0  0
  7  9  1  0  0  0
  9  1  1  0  0  0
  1  2  2  0  0  0
  2  3  1  0  0  0
  3  4  2  0  0  0
  4 21  1  0  0  0
 21 22  2  0  0  0
 21 23  1  0  0  0
 23 25  1  0  0  0
 25 26  2  0  0  0
 26 27  1  0  0  0
 27 28  2  0  0  0
 28 31  1  0  0  0
 31 32  2  0  0  0
 31 33  1  0  0  0
 28 29  1  0  0  0
 29 30  2  0  0  0
  4  5  1  0  0  0
  5  6  2  0  0  0
 14 15  1  0  0  0
 15 16  2  0  0  0
 16 11  1  0  0  0
  6  1  1  0  0  0
 30 25  1  0  0  0
  9 10  1  0  0  0
 23 24  1  0  0  0
 33 34  1  0  0  0
M  END
> <minimizedAffinity>
22.71078

> <CNNscore>
0.4922818542

> <CNNaffinity>
5.4792790413

> <CNN_VS>
2.6973495483

> <CNNaffinity_variance>
0.0298866443

$$$$
[H]OC(=O)c1c([H])c([H])c(N([H])C(=O)c2c([H])c([H])c(N([H])C(=O)c3c([H])c([H])c(C(F)(F)F)c([H])c3[H])c([H])c2[H])c([H])c1[H]


 34 36  0  0  0  0  0  0  0  0999 V2000
   24.4164    8.7949   55.6403 C   0  0  0  0  0  0  0  0  0  0  0  0
   23.1061    8.7853   56.1213 C   0  0  0  0  0  0  0  0  0  0  0  0
   22.0734    8.2089   55.4470 C   0  0  0  0  0  0  0  0  0  0  0  0
   22.4054    7.6039   54.1952 C   0  0  0  0  0  0  0  0  0  0  0  0
   23.6604    7.6106   53.7282 C   0  0  0  0  0  0  0  0  0  0  0  0
   24.7071    8.2197   54.4620 C   0  0  0  0  0  0  0  0  0  0  0  0
   26.7195    9.1605   56.4260 C   0  0  0  0  0  0  0  0  0  0  0  0
   27.1807    8.3040   55.6478 O   0  0  0  0  0  0  0  0  0  0  0  0
   25.3560    9.4551   56.4605 N   0  0  0  0  0  0  0  0  0  0  0  0
   24.9720   10.2175   57.1097 H   0  0  0  0  0  0  0  0  0  0  0  0
   29.1940   11.1891   59.3003 C   0  0  0  0  0  0  0  0  0  0  0  0
   29.0561    9.8152   59.3103 C   0  0  0  0  0  0  0  0  0  0  0  0
   28.2662    9.1958   58.3471 C   0  0  0  0  0  0  0  0  0  0  0  0
   27.6031    9.8949   57.3631 C   0  0  0  0  0  0  0  0  0  0  0  0
   27.7427   11.2588   57.3485 C   0  0  0  0  0  0  0  0  0  0  0  0
   28.5358   11.8957   58.3197 C   0  0  0  0  0  0  0  0  0  0  0  0
   30.0119   11.9367   60.3174 C   0  0  0  0  0  0  0  0  0  0  0  0
   29.8464   13.2789   60.2706 F   0  0  0  0  0  0  0  0  0  0  0  0
   29.6873   11.4142   61.5954 F   0  0  0  0  0  0  0  0  0  0  0  0
   31.3340   11.5772   60.1313 F   0  0  0  0  0  0  0  0  0  0  0  0
   21.2648    6.9539   53.4878 C   0  0  0  0  0  0  0  0  0  0  0  0
   21.1645    7.1224   52.2729 O   0  0  0  0  0  0  0  0  0  0  0  0
   20.3961    6.1863   54.2563 N   0  0  0  0  0  0  0  0  0  0  0  0
   20.5825    6.2162   55.3230 H   0  0  0  0  0  0  0  0  0  0  0  0
   19.3014    5.4147   53.8533 C   0  0  0  0  0  0  0  0  0  0  0  0
   18.0211    5.9572   53.9596 C   0  0  0  0  0  0  0  0  0  0  0  0
   16.8678    5.2874   53.7193 C   0  0  0  0  0  0  0  0  0  0  0  0
   16.9568    3.9233   53.3283 C   0  0  0  0  0  0  0  0  0  0  0  0
   18.1771    3.3794   53.2165 C   0  0  0  0  0  0  0  0  0  0  0  0
   19.3493    4.0723   53.4625 C   0  0  0  0  0  0  0  0  0  0  0  0
   15.7091    3.2027   53.0911 C   0  0  0  0  0  0  0  0  0  0  0  0
   15.7029    1.9845   53.0482 O   0  0  0  0  0  0  0  0  0  0  0  0
   14.5931    4.0148   52.9197 O   0  0  0  0  0  0  0  0  0  0  0  0
   14.6591    4.7536   52.2021 H   0  0  0  0  0  0  0  0  0  0  0  0
 11 17  1  0  0  0
 17 18  1  0  0  0
 17 19  1  0  0  0
 17 20  1  0  0  0
 11 12  2  0  0  0
 12 13  1  0  0  0
 13 14  2  0  0  0
 14  7  1  0  0  0
  7  8  2  0  0  0
  7  9  1  0  0  0
  9  1  1  0  0  0
  1  2  2  0  0  0
  2  3  1  0  0  0
  3  4  2  0  0  0
  4 21  1  0  0  0
 21 22  2  0  0  0
 21 23  1  0  0  0
 23 25  1  0  0  0
 25 26  2  0  0  0
 26 27  1  0  0  0
 27 28  2  0  0  0
 28 31  1  0  0  0
 31 32  2  0  0  0
 31 33  1  0  0  0
 28 29  1  0  0  0
 29 30  2  0  0  0
  4  5  1  0  0  0
  5  6  2  0  0  0
 14 15  1  0  0  0
 15 16  2  0  0  0
 16 11  1  0  0  0
  6  1  1  0  0  0
 30 25  1  0  0  0
  9 10  1  0  0  0
 23 24  1  0  0  0
 33 34  1  0  0  0
M  END
> <minimizedAffinity>
23.66615

> <CNNscore>
0.4729722738

> <CNNaffinity>
5.5422949791

> <CNN_VS>
2.6213519573

> <CNNaffinity_variance>
0.1004066020

$$$$
[H]OC(=O)c1c([H])c([H])c(N([H])C(=O)c2c([H])c([H])c(N([H])C(=O)c3c([H])c([H])c(C(F)(F)F)c([H])c3[H])c([H])c2[H])c([H])c1[H]


 34 36  0  0  0  0  0  0  0  0999 V2000
   23.5302    6.0093   53.7004 C   0  0  0  0  0  0  0  0  0  0  0  0
   24.2280    7.2072   53.5378 C   0  0  0  0  0  0  0  0  0  0  0  0
   23.6168    8.4233   53.5130 C   0  0  0  0  0  0  0  0  0  0  0  0
   22.1953    8.4109   53.6627 C   0  0  0  0  0  0  0  0  0  0  0  0
   21.5203    7.2648   53.8184 C   0  0  0  0  0  0  0  0  0  0  0  0
   22.1946    6.0198   53.8405 C   0  0  0  0  0  0  0  0  0  0  0  0
   24.8366    4.3033   52.5012 C   0  0  0  0  0  0  0  0  0  0  0  0
   24.6345    4.8439   51.3972 O   0  0  0  0  0  0  0  0  0  0  0  0
   24.3223    4.8416   53.6814 N   0  0  0  0  0  0  0  0  0  0  0  0
   24.5292    4.3883   54.6312 H   0  0  0  0  0  0  0  0  0  0  0  0
   27.0484    0.6476   52.9953 C   0  0  0  0  0  0  0  0  0  0  0  0
   25.7066    0.7264   53.3115 C   0  0  0  0  0  0  0  0  0  0  0  0
   25.0218    1.9209   53.1129 C   0  0  0  0  0  0  0  0  0  0  0  0
   25.6234    3.0509   52.6051 C   0  0  0  0  0  0  0  0  0  0  0  0
   26.9545    2.9732   52.2858 C   0  0  0  0  0  0  0  0  0  0  0  0
   27.6575    1.7717   52.4860 C   0  0  0  0  0  0  0  0  0  0  0  0
   27.8652   -0.5989   53.1990 C   0  0  0  0  0  0  0  0  0  0  0  0
   27.2628   -1.7250   52.7516 F   0  0  0  0  0  0  0  0  0  0  0  0
   29.1215   -0.3943   52.5734 F   0  0  0  0  0  0  0  0  0  0  0  0
   28.1677   -0.6807   54.5457 F   0  0  0  0  0  0  0  0  0  0  0  0
   21.5501    9.7553   53.6614 C   0  0  0  0  0  0  0  0  0  0  0  0
   20.9626   10.1171   54.6804 O   0  0  0  0  0  0  0  0  0  0  0  0
   21.6710   10.5160   52.5033 N   0  0  0  0  0  0  0  0  0  0  0  0
   22.1464   10.0095   51.6720 H   0  0  0  0  0  0  0  0  0  0  0  0
   21.2369   11.8212   52.2502 C   0  0  0  0  0  0  0  0  0  0  0  0
   21.5314   12.4000   51.0161 C   0  0  0  0  0  0  0  0  0  0  0  0
   21.2784   13.6879   50.6785 C   0  0  0  0  0  0  0  0  0  0  0  0
   20.6658   14.5251   51.6507 C   0  0  0  0  0  0  0  0  0  0  0  0
   20.3706   13.9910   52.8444 C   0  0  0  0  0  0  0  0  0  0  0  0
   20.6313   12.6740   53.1792 C   0  0  0  0  0  0  0  0  0  0  0  0
   20.4153   15.9169   51.2865 C   0  0  0  0  0  0  0  0  0  0  0  0
   21.1777   16.5014   50.5362 O   0  0  0  0  0  0  0  0  0  0  0  0
   19.2798   16.4733   51.8655 O   0  0  0  0  0  0  0  0  0  0  0  0
   19.1996   16.4081   52.8924 H   0  0  0  0  0  0  0  0  0  0  0  0
 11 17  1  0  0  0
 17 18  1  0  0  0
 17 19  1  0  0  0
 17 20  1  0  0  0
 11 12  2  0  0  0
 12 13  1  0  0  0
 13 14  2  0  0  0
 14  7  1  0  0  0
  7  8  2  0  0  0
  7  9  1  0  0  0
  9  1  1  0  0  0
  1  2  2  0  0  0
  2  3  1  0  0  0
  3  4  2  0  0  0
  4 21  1  0  0  0
 21 22  2  0  0  0
 21 23  1  0  0  0
 23 25  1  0  0  0
 25 26  2  0  0  0
 26 27  1  0  0  0
 27 28  2  0  0  0
 28 31  1  0  0  0
 31 32  2  0  0  0
 31 33  1  0  0  0
 28 29  1  0  0  0
 29 30  2  0  0  0
  4  5  1  0  0  0
  5  6  2  0  0  0
 14 15  1  0  0  0
 15 16  2  0  0  0
 16 11  1  0  0  0
  6  1  1  0  0  0
 30 25  1  0  0  0
  9 10  1  0  0  0
 23 24  1  0  0  0
 33 34  1  0  0  0
M  END
> <minimizedAffinity>
54.38514

> <CNNscore>
0.4728642106

> <CNNaffinity>
5.1899728775

> <CNN_VS>
2.4541523457

> <CNNaffinity_variance>
0.1217218488

$$$$
[H]OC(=O)c1c([H])c([H])c(N([H])C(=O)c2c([H])c([H])c(N([H])C(=O)c3c([H])c([H])c(C(F)(F)F)c([H])c3[H])c([H])c2[H])c([H])c1[H]


 34 36  0  0  0  0  0  0  0  0999 V2000
   23.0615    5.9124   55.5191 C   0  0  0  0  0  0  0  0  0  0  0  0
   22.2704    7.0133   55.8517 C   0  0  0  0  0  0  0  0  0  0  0  0
   21.8410    7.9217   54.9332 C   0  0  0  0  0  0  0  0  0  0  0  0
   22.2514    7.6874   53.5842 C   0  0  0  0  0  0  0  0  0  0  0  0
   23.0108    6.6335   53.2591 C   0  0  0  0  0  0  0  0  0  0  0  0
   23.4353    5.7100   54.2451 C   0  0  0  0  0  0  0  0  0  0  0  0
   22.6518    4.9623   57.7517 C   0  0  0  0  0  0  0  0  0  0  0  0
   21.5702    5.5684   57.8728 O   0  0  0  0  0  0  0  0  0  0  0  0
   23.4316    5.0857   56.6012 N   0  0  0  0  0  0  0  0  0  0  0  0
   24.3449    4.5343   56.4914 H   0  0  0  0  0  0  0  0  0  0  0  0
   24.2360    2.6029   60.9803 C   0  0  0  0  0  0  0  0  0  0  0  0
   23.5926    3.8024   61.2125 C   0  0  0  0  0  0  0  0  0  0  0  0
   23.0721    4.5226   60.1422 C   0  0  0  0  0  0  0  0  0  0  0  0
   23.1647    4.0923   58.8372 C   0  0  0  0  0  0  0  0  0  0  0  0
   23.7989    2.8990   58.6050 C   0  0  0  0  0  0  0  0  0  0  0  0
   24.3320    2.1644   59.6793 C   0  0  0  0  0  0  0  0  0  0  0  0
   24.8438    1.7744   62.0787 C   0  0  0  0  0  0  0  0  0  0  0  0
   25.5157    2.5007   63.0017 F   0  0  0  0  0  0  0  0  0  0  0  0
   23.8013    1.0150   62.6688 F   0  0  0  0  0  0  0  0  0  0  0  0
   25.6558    0.8273   61.4825 F   0  0  0  0  0  0  0  0  0  0  0  0
   21.7459    8.6784   52.5911 C   0  0  0  0  0  0  0  0  0  0  0  0
   21.0394    8.2678   51.6708 O   0  0  0  0  0  0  0  0  0  0  0  0
   22.1011   10.0090   52.7852 N   0  0  0  0  0  0  0  0  0  0  0  0
   22.7989   10.1816   53.5956 H   0  0  0  0  0  0  0  0  0  0  0  0
   21.7155   11.1441   52.0647 C   0  0  0  0  0  0  0  0  0  0  0  0
   21.8281   12.3950   52.6706 C   0  0  0  0  0  0  0  0  0  0  0  0
   21.3859   13.5611   52.1402 C   0  0  0  0  0  0  0  0  0  0  0  0
   20.7552   13.5187   50.8667 C   0  0  0  0  0  0  0  0  0  0  0  0
   20.6372   12.3278   50.2625 C   0  0  0  0  0  0  0  0  0  0  0  0
   21.0935   11.1425   50.8117 C   0  0  0  0  0  0  0  0  0  0  0  0
   20.2632   14.7764   50.3111 C   0  0  0  0  0  0  0  0  0  0  0  0
   20.4056   15.0206   49.1254 O   0  0  0  0  0  0  0  0  0  0  0  0
   19.6568   15.6213   51.2345 O   0  0  0  0  0  0  0  0  0  0  0  0
   20.1994   15.8541   52.0811 H   0  0  0  0  0  0  0  0  0  0  0  0
 11 17  1  0  0  0
 17 18  1  0  0  0
 17 19  1  0  0  0
 17 20  1  0  0  0
 11 12  2  0  0  0
 12 13  1  0  0  0
 13 14  2  0  0  0
 14  7  1  0  0  0
  7  8  2  0  0  0
  7  9  1  0  0  0
  9  1  1  0  0  0
  1  2  2  0  0  0
  2  3  1  0  0  0
  3  4  2  0  0  0
  4 21  1  0  0  0
 21 22  2  0  0  0
 21 23  1  0  0  0
 23 25  1  0  0  0
 25 26  2  0  0  0
 26 27  1  0  0  0
 27 28  2  0  0  0
 28 31  1  0  0  0
 31 32  2  0  0  0
 31 33  1  0  0  0
 28 29  1  0  0  0
 29 30  2  0  0  0
  4  5  1  0  0  0
  5  6  2  0  0  0
 14 15  1  0  0  0
 15 16  2  0  0  0
 16 11  1  0  0  0
  6  1  1  0  0  0
 30 25  1  0  0  0
  9 10  1  0  0  0
 23 24  1  0  0  0
 33 34  1  0  0  0
M  END
> <minimizedAffinity>
31.79010

> <CNNscore>
0.4728370011

> <CNNaffinity>
5.3377103806

> <CNN_VS>
2.5238668919

> <CNNaffinity_variance>
0.2209762633

$$$$
[H]OC(=O)c1c([H])c([H])c(N([H])C(=O)c2c([H])c([H])c(N([H])C(=O)c3c([H])c([H])c(C(F)(F)F)c([H])c3[H])c([H])c2[H])c([H])c1[H]


 34 36  0  0  0  0  0  0  0  0999 V2000
   27.4569    9.7765   56.2801 C   0  0  0  0  0  0  0  0  0  0  0  0
   26.0953    9.7725   56.5873 C   0  0  0  0  0  0  0  0  0  0  0  0
   25.1667    9.1266   55.8299 C   0  0  0  0  0  0  0  0  0  0  0  0
   25.6666    8.4408   54.6796 C   0  0  0  0  0  0  0  0  0  0  0  0
   26.9716    8.4417   54.3794 C   0  0  0  0  0  0  0  0  0  0  0  0
   27.9060    9.1248   55.1951 C   0  0  0  0  0  0  0  0  0  0  0  0
   28.5879   10.0645   58.4465 C   0  0  0  0  0  0  0  0  0  0  0  0
   28.1740    8.9691   58.8717 O   0  0  0  0  0  0  0  0  0  0  0  0
   28.2732   10.5143   57.1637 N   0  0  0  0  0  0  0  0  0  0  0  0
   28.6613   11.4431   56.7935 H   0  0  0  0  0  0  0  0  0  0  0  0
   31.0012   12.4812   61.0610 C   0  0  0  0  0  0  0  0  0  0  0  0
   31.2841   11.1466   60.8479 C   0  0  0  0  0  0  0  0  0  0  0  0
   30.4937   10.4064   59.9747 C   0  0  0  0  0  0  0  0  0  0  0  0
   29.4238   10.9464   59.2961 C   0  0  0  0  0  0  0  0  0  0  0  0
   29.1442   12.2727   59.5025 C   0  0  0  0  0  0  0  0  0  0  0  0
   29.9345   13.0295   60.3860 C   0  0  0  0  0  0  0  0  0  0  0  0
   31.7933   13.3452   62.0036 C   0  0  0  0  0  0  0  0  0  0  0  0
   32.5665   14.2649   61.3813 F   0  0  0  0  0  0  0  0  0  0  0  0
   30.8769   13.9528   62.8995 F   0  0  0  0  0  0  0  0  0  0  0  0
   32.5428   12.5045   62.8056 F   0  0  0  0  0  0  0  0  0  0  0  0
   24.6362    7.7167   53.8810 C   0  0  0  0  0  0  0  0  0  0  0  0
   24.8263    7.5859   52.6722 O   0  0  0  0  0  0  0  0  0  0  0  0
   23.5311    7.2253   54.5676 N   0  0  0  0  0  0  0  0  0  0  0  0
   23.4816    7.5052   55.6130 H   0  0  0  0  0  0  0  0  0  0  0  0
   22.4631    6.4558   54.0946 C   0  0  0  0  0  0  0  0  0  0  0  0
   21.2015    7.0425   54.0014 C   0  0  0  0  0  0  0  0  0  0  0  0
   20.0600    6.3893   53.6743 C   0  0  0  0  0  0  0  0  0  0  0  0
   20.1420    4.9959   53.4037 C   0  0  0  0  0  0  0  0  0  0  0  0
   21.3447    4.4092   53.4844 C   0  0  0  0  0  0  0  0  0  0  0  0
   22.5052    5.0853   53.8176 C   0  0  0  0  0  0  0  0  0  0  0  0
   18.9044    4.2953   53.0722 C   0  0  0  0  0  0  0  0  0  0  0  0
   17.8726    4.5586   53.6654 O   0  0  0  0  0  0  0  0  0  0  0  0
   19.0285    3.3410   52.0681 O   0  0  0  0  0  0  0  0  0  0  0  0
   19.7602    2.6240   52.1932 H   0  0  0  0  0  0  0  0  0  0  0  0
 11 17  1  0  0  0
 17 18  1  0  0  0
 17 19  1  0  0  0
 17 20  1  0  0  0
 11 12  2  0  0  0
 12 13  1  0  0  0
 13 14  2  0  0  0
 14  7  1  0  0  0
  7  8  2  0  0  0
  7  9  1  0  0  0
  9  1  1  0  0  0
  1  2  2  0  0  0
  2  3  1  0  0  0
  3  4  2  0  0  0
  4 21  1  0  0  0
 21 22  2  0  0  0
 21 23  1  0  0  0
 23 25  1  0  0  0
 25 26  2  0  0  0
 26 27  1  0  0  0
 27 28  2  0  0  0
 28 31  1  0  0  0
 31 32  2  0  0  0
 31 33  1  0  0  0
 28 29  1  0  0  0
 29 30  2  0  0  0
  4  5  1  0  0  0
  5  6  2  0  0  0
 14 15  1  0  0  0
 15 16  2  0  0  0
 16 11  1  0  0  0
  6  1  1  0  0  0
 30 25  1  0  0  0
  9 10  1  0  0  0
 23 24  1  0  0  0
 33 34  1  0  0  0
M  END
> <minimizedAffinity>
15.77234

> <CNNscore>
0.4688555896

> <CNNaffinity>
5.4196782112

> <CNN_VS>
2.5410463810

> <CNNaffinity_variance>
0.3782344460

$$$$
[H]OC(=O)c1c([H])c([H])c(N([H])C(=O)c2c([H])c([H])c(N([H])C(=O)c3c([H])c([H])c(C(F)(F)F)c([H])c3[H])c([H])c2[H])c([H])c1[H]


 34 36  0  0  0  0  0  0  0  0999 V2000
   25.8500    8.2181   55.2661 C   0  0  0  0  0  0  0  0  0  0  0  0
   25.5965    8.7764   56.5201 C   0  0  0  0  0  0  0  0  0  0  0  0
   26.4943    9.5610   57.1770 C   0  0  0  0  0  0  0  0  0  0  0  0
   27.7355    9.7869   56.5050 C   0  0  0  0  0  0  0  0  0  0  0  0
   27.9846    9.2535   55.3022 C   0  0  0  0  0  0  0  0  0  0  0  0
   27.0225    8.4437   54.6513 C   0  0  0  0  0  0  0  0  0  0  0  0
   23.4901    7.8471   54.6757 C   0  0  0  0  0  0  0  0  0  0  0  0
   23.1564    8.9834   55.0624 O   0  0  0  0  0  0  0  0  0  0  0  0
   24.8150    7.4144   54.7425 N   0  0  0  0  0  0  0  0  0  0  0  0
   25.0991    6.4472   54.3764 H   0  0  0  0  0  0  0  0  0  0  0  0
   20.4376    5.1712   53.2539 C   0  0  0  0  0  0  0  0  0  0  0  0
   20.2080    6.5275   53.3743 C   0  0  0  0  0  0  0  0  0  0  0  0
   21.2304    7.3622   53.8140 C   0  0  0  0  0  0  0  0  0  0  0  0
   22.4853    6.8977   54.1399 C   0  0  0  0  0  0  0  0  0  0  0  0
   22.7167    5.5519   54.0163 C   0  0  0  0  0  0  0  0  0  0  0  0
   21.6893    4.6984   53.5761 C   0  0  0  0  0  0  0  0  0  0  0  0
   19.3809    4.1991   52.8057 C   0  0  0  0  0  0  0  0  0  0  0  0
   19.1069    4.2631   51.4822 F   0  0  0  0  0  0  0  0  0  0  0  0
   19.8032    2.9008   53.1900 F   0  0  0  0  0  0  0  0  0  0  0  0
   18.2541    4.4288   53.5734 F   0  0  0  0  0  0  0  0  0  0  0  0
   28.6919   10.6722   57.2296 C   0  0  0  0  0  0  0  0  0  0  0  0
   29.2984   11.5243   56.5809 O   0  0  0  0  0  0  0  0  0  0  0  0
   28.8214   10.4787   58.6008 N   0  0  0  0  0  0  0  0  0  0  0  0
   28.2784    9.6283   58.9951 H   0  0  0  0  0  0  0  0  0  0  0  0
   29.5768   11.2003   59.5310 C   0  0  0  0  0  0  0  0  0  0  0  0
   29.1166   12.4495   59.9462 C   0  0  0  0  0  0  0  0  0  0  0  0
   29.7980   13.3050   60.7466 C   0  0  0  0  0  0  0  0  0  0  0  0
   31.0846   12.9096   61.2046 C   0  0  0  0  0  0  0  0  0  0  0  0
   31.5481   11.7116   60.8210 C   0  0  0  0  0  0  0  0  0  0  0  0
   30.8439   10.8441   60.0047 C   0  0  0  0  0  0  0  0  0  0  0  0
   31.8209   13.8455   62.0497 C   0  0  0  0  0  0  0  0  0  0  0  0
   32.5616   13.4302   62.9243 O   0  0  0  0  0  0  0  0  0  0  0  0
   31.5892   15.1877   61.7686 O   0  0  0  0  0  0  0  0  0  0  0  0
   30.6053   15.4989   61.7554 H   0  0  0  0  0  0  0  0  0  0  0  0
 11 17  1  0  0  0
 17 18  1  0  0  0
 17 19  1  0  0  0
 17 20  1  0  0  0
 11 12  2  0  0  0
 12 13  1  0  0  0
 13 14  2  0  0  0
 14  7  1  0  0  0
  7  8  2  0  0  0
  7  9  1  0  0  0
  9  1  1  0  0  0
  1  2  2  0  0  0
  2  3  1  0  0  0
  3  4  2  0  0  0
  4 21  1  0  0  0
 21 22  2  0  0  0
 21 23  1  0  0  0
 23 25  1  0  0  0
 25 26  2  0  0  0
 26 27  1  0  0  0
 27 28  2  0  0  0
 28 31  1  0  0  0
 31 32  2  0  0  0
 31 33  1  0  0  0
 28 29  1  0  0  0
 29 30  2  0  0  0
  4  5  1  0  0  0
  5  6  2  0  0  0
 14 15  1  0  0  0
 15 16  2  0  0  0
 16 11  1  0  0  0
  6  1  1  0  0  0
 30 25  1  0  0  0
  9 10  1  0  0  0
 23 24  1  0  0  0
 33 34  1  0  0  0
M  END
> <minimizedAffinity>
18.87078

> <CNNscore>
0.4580935240

> <CNNaffinity>
5.2678089142

> <CNN_VS>
2.4131491184

> <CNNaffinity_variance>
0.0177895837

$$$$
[H]/C(=C1\C(=O)N([H])c2c([H])c([H])c([H])c([H])c21)c1c([H])c([H])c(-c2c([H])c([H])c(C(=O)N([H])C([H])([H])[H])c([H])c2[H])c([H])c1[H]


 29 32  0  0  0  0  0  0  0  0999 V2000
   25.5905    9.5968   55.8927 C   0  0  0  0  0  0  0  0  0  0  0  0
   25.3414   10.8784   56.3451 C   0  0  0  0  0  0  0  0  0  0  0  0
   26.3111   11.5157   57.1260 C   0  0  0  0  0  0  0  0  0  0  0  0
   27.5034   10.9120   57.4602 C   0  0  0  0  0  0  0  0  0  0  0  0
   27.7394    9.6275   56.9997 C   0  0  0  0  0  0  0  0  0  0  0  0
   26.7829    9.0009   56.2299 C   0  0  0  0  0  0  0  0  0  0  0  0
   28.4114   11.5552   58.3485 C   0  0  0  0  0  0  0  0  0  0  0  0
   29.1289   10.9787   59.2581 C   0  0  0  0  0  0  0  0  0  0  0  0
   30.0739   11.6562   60.1940 C   0  0  0  0  0  0  0  0  0  0  0  0
   30.2847   12.8748   60.2414 O   0  0  0  0  0  0  0  0  0  0  0  0
   30.6910   10.6898   61.0185 N   0  0  0  0  0  0  0  0  0  0  0  0
   30.1565    9.4413   60.6187 C   0  0  0  0  0  0  0  0  0  0  0  0
   29.2428    9.5611   59.5946 C   0  0  0  0  0  0  0  0  0  0  0  0
   28.6152    8.4734   59.0461 C   0  0  0  0  0  0  0  0  0  0  0  0
   28.9309    7.2190   59.5657 C   0  0  0  0  0  0  0  0  0  0  0  0
   29.8403    7.1014   60.5881 C   0  0  0  0  0  0  0  0  0  0  0  0
   30.4547    8.2018   61.1172 C   0  0  0  0  0  0  0  0  0  0  0  0
   31.3961   10.9138   61.7589 H   0  0  0  0  0  0  0  0  0  0  0  0
   23.2549    9.0344   55.3832 C   0  0  0  0  0  0  0  0  0  0  0  0
   24.6015    8.8860   55.0746 C   0  0  0  0  0  0  0  0  0  0  0  0
   24.9300    8.0861   54.0111 C   0  0  0  0  0  0  0  0  0  0  0  0
   23.9374    7.4545   53.2790 C   0  0  0  0  0  0  0  0  0  0  0  0
   22.6040    7.5986   53.5809 C   0  0  0  0  0  0  0  0  0  0  0  0
   22.2729    8.4051   54.6537 C   0  0  0  0  0  0  0  0  0  0  0  0
   21.5912    6.9315   52.7770 C   0  0  0  0  0  0  0  0  0  0  0  0
   21.5350    7.1860   51.5301 O   0  0  0  0  0  0  0  0  0  0  0  0
   20.6498    6.0039   53.2935 N   0  0  0  0  0  0  0  0  0  0  0  0
   19.6566    5.3574   52.4617 C   0  0  0  0  0  0  0  0  0  0  0  0
   20.6656    5.7661   54.3073 H   0  0  0  0  0  0  0  0  0  0  0  0
 19 20  2  0  0  0
 20  1  1  0  0  0
  1  2  2  0  0  0
  2  3  1  0  0  0
  3  4  2  0  0  0
  4  7  1  0  0  0
  7  8  2  0  0  0
  8  9  1  0  0  0
  9 10  2  0  0  0
  9 11  1  0  0  0
 11 12  1  0  0  0
 12 13  2  0  0  0
 13 14  1  0  0  0
 14 15  2  0  0  0
 15 16  1  0  0  0
 16 17  2  0  0  0
  4  5  1  0  0  0
  5  6  2  0  0  0
 20 21  1  0  0  0
 21 22  2  0  0  0
 22 23  1  0  0  0
 23 25  1  0  0  0
 25 26  2  0  0  0
 25 27  1  0  0  0
 27 28  1  0  0  0
 23 24  2  0  0  0
 24 19  1  0  0  0
  6  1  1  0  0  0
 13  8  1  0  0  0
 17 12  1  0  0  0
 11 18  1  0  0  0
 27 29  1  0  0  0
M  END
> <minimizedAffinity>
19.19807

> <CNNscore>
0.6528825164

> <CNNaffinity>
5.7606806755

> <CNN_VS>
3.7610476017

> <CNNaffinity_variance>
0.3335835338

$$$$
[H]/C(=C1\C(=O)N([H])c2c([H])c([H])c([H])c([H])c21)c1c([H])c([H])c(-c2c([H])c([H])c(C(=O)N([H])C([H])([H])[H])c([H])c2[H])c([H])c1[H]


 29 32  0  0  0  0  0  0  0  0999 V2000
   25.4685    8.7091   55.6537 C   0  0  0  0  0  0  0  0  0  0  0  0
   24.2117    8.3411   56.0944 C   0  0  0  0  0  0  0  0  0  0  0  0
   23.2665    7.9191   55.1537 C   0  0  0  0  0  0  0  0  0  0  0  0
   23.5433    7.8580   53.8056 C   0  0  0  0  0  0  0  0  0  0  0  0
   24.8070    8.2297   53.3784 C   0  0  0  0  0  0  0  0  0  0  0  0
   25.7375    8.6449   54.3068 C   0  0  0  0  0  0  0  0  0  0  0  0
   22.5173    7.5296   52.8747 C   0  0  0  0  0  0  0  0  0  0  0  0
   21.7842    8.3691   52.2171 C   0  0  0  0  0  0  0  0  0  0  0  0
   20.7031    8.0224   51.2479 C   0  0  0  0  0  0  0  0  0  0  0  0
   20.3441    6.8746   50.9558 O   0  0  0  0  0  0  0  0  0  0  0  0
   20.1526    9.2088   50.7153 N   0  0  0  0  0  0  0  0  0  0  0  0
   20.8608   10.2723   51.3250 C   0  0  0  0  0  0  0  0  0  0  0  0
   21.8224    9.8299   52.2069 C   0  0  0  0  0  0  0  0  0  0  0  0
   22.6332   10.6937   52.8954 C   0  0  0  0  0  0  0  0  0  0  0  0
   22.4521   12.0585   52.6766 C   0  0  0  0  0  0  0  0  0  0  0  0
   21.4916   12.4979   51.7988 C   0  0  0  0  0  0  0  0  0  0  0  0
   20.6962   11.6160   51.1222 C   0  0  0  0  0  0  0  0  0  0  0  0
   19.3776    9.2323   50.0121 H   0  0  0  0  0  0  0  0  0  0  0  0
   27.7572    9.4689   56.1174 C   0  0  0  0  0  0  0  0  0  0  0  0
   26.4916    9.1629   56.6023 C   0  0  0  0  0  0  0  0  0  0  0  0
   26.2677    9.3124   57.9463 C   0  0  0  0  0  0  0  0  0  0  0  0
   27.2830    9.7558   58.7787 C   0  0  0  0  0  0  0  0  0  0  0  0
   28.5365   10.0596   58.3031 C   0  0  0  0  0  0  0  0  0  0  0  0
   28.7622    9.9085   56.9476 C   0  0  0  0  0  0  0  0  0  0  0  0
   29.5708   10.5384   59.2077 C   0  0  0  0  0  0  0  0  0  0  0  0
   30.5324    9.7577   59.5048 O   0  0  0  0  0  0  0  0  0  0  0  0
   29.5822   11.8330   59.7884 N   0  0  0  0  0  0  0  0  0  0  0  0
   30.6305   12.2758   60.6836 C   0  0  0  0  0  0  0  0  0  0  0  0
   28.8157   12.5024   59.5672 H   0  0  0  0  0  0  0  0  0  0  0  0
 19 20  2  0  0  0
 20  1  1  0  0  0
  1  2  2  0  0  0
  2  3  1  0  0  0
  3  4  2  0  0  0
  4  7  1  0  0  0
  7  8  2  0  0  0
  8  9  1  0  0  0
  9 10  2  0  0  0
  9 11  1  0  0  0
 11 12  1  0  0  0
 12 13  2  0  0  0
 13 14  1  0  0  0
 14 15  2  0  0  0
 15 16  1  0  0  0
 16 17  2  0  0  0
  4  5  1  0  0  0
  5  6  2  0  0  0
 20 21  1  0  0  0
 21 22  2  0  0  0
 22 23  1  0  0  0
 23 25  1  0  0  0
 25 26  2  0  0  0
 25 27  1  0  0  0
 27 28  1  0  0  0
 23 24  2  0  0  0
 24 19  1  0  0  0
  6  1  1  0  0  0
 13  8  1  0  0  0
 17 12  1  0  0  0
 11 18  1  0  0  0
 27 29  1  0  0  0
M  END
> <minimizedAffinity>
30.85827

> <CNNscore>
0.6087686419

> <CNNaffinity>
5.7815279961

> <CNN_VS>
3.5196130276

> <CNNaffinity_variance>
0.3590396941

$$$$
[H]/C(=C1\C(=O)N([H])c2c([H])c([H])c([H])c([H])c21)c1c([H])c([H])c(-c2c([H])c([H])c(C(=O)N([H])C([H])([H])[H])c([H])c2[H])c([H])c1[H]


 29 32  0  0  0  0  0  0  0  0999 V2000
   21.9977    6.6215   53.3921 C   0  0  0  0  0  0  0  0  0  0  0  0
   23.1059    5.8249   53.6081 C   0  0  0  0  0  0  0  0  0  0  0  0
   24.3775    6.3821   53.4382 C   0  0  0  0  0  0  0  0  0  0  0  0
   24.5641    7.6944   53.0633 C   0  0  0  0  0  0  0  0  0  0  0  0
   23.4445    8.4810   52.8504 C   0  0  0  0  0  0  0  0  0  0  0  0
   22.1920    7.9305   53.0187 C   0  0  0  0  0  0  0  0  0  0  0  0
   25.8729    8.1867   52.7945 C   0  0  0  0  0  0  0  0  0  0  0  0
   26.7021    8.6680   53.6636 C   0  0  0  0  0  0  0  0  0  0  0  0
   28.0706    9.1914   53.3783 C   0  0  0  0  0  0  0  0  0  0  0  0
   28.5936    9.2563   52.2586 O   0  0  0  0  0  0  0  0  0  0  0  0
   28.6768    9.6020   54.5859 N   0  0  0  0  0  0  0  0  0  0  0  0
   27.7258    9.3469   55.6032 C   0  0  0  0  0  0  0  0  0  0  0  0
   26.5600    8.8013   55.1120 C   0  0  0  0  0  0  0  0  0  0  0  0
   25.5124    8.4636   55.9281 C   0  0  0  0  0  0  0  0  0  0  0  0
   25.6610    8.6950   57.2947 C   0  0  0  0  0  0  0  0  0  0  0  0
   26.8229    9.2410   57.7825 C   0  0  0  0  0  0  0  0  0  0  0  0
   27.8549    9.5677   56.9479 C   0  0  0  0  0  0  0  0  0  0  0  0
   29.6403   10.0058   54.6515 H   0  0  0  0  0  0  0  0  0  0  0  0
   20.4937    4.7121   53.7425 C   0  0  0  0  0  0  0  0  0  0  0  0
   20.6436    6.0804   53.5533 C   0  0  0  0  0  0  0  0  0  0  0  0
   19.5108    6.8520   53.5370 C   0  0  0  0  0  0  0  0  0  0  0  0
   18.2653    6.2684   53.7059 C   0  0  0  0  0  0  0  0  0  0  0  0
   18.1127    4.9152   53.8934 C   0  0  0  0  0  0  0  0  0  0  0  0
   19.2552    4.1370   53.9095 C   0  0  0  0  0  0  0  0  0  0  0  0
   16.7883    4.3434   54.0837 C   0  0  0  0  0  0  0  0  0  0  0  0
   16.5058    3.8165   55.2085 O   0  0  0  0  0  0  0  0  0  0  0  0
   15.7762    4.3332   53.0893 N   0  0  0  0  0  0  0  0  0  0  0  0
   14.4677    3.7563   53.3158 C   0  0  0  0  0  0  0  0  0  0  0  0
   15.9666    4.7577   52.1577 H   0  0  0  0  0  0  0  0  0  0  0  0
 19 20  2  0  0  0
 20  1  1  0  0  0
  1  2  2  0  0  0
  2  3  1  0  0  0
  3  4  2  0  0  0
  4  7  1  0  0  0
  7  8  2  0  0  0
  8  9  1  0  0  0
  9 10  2  0  0  0
  9 11  1  0  0  0
 11 12  1  0  0  0
 12 13  2  0  0  0
 13 14  1  0  0  0
 14 15  2  0  0  0
 15 16  1  0  0  0
 16 17  2  0  0  0
  4  5  1  0  0  0
  5  6  2  0  0  0
 20 21  1  0  0  0
 21 22  2  0  0  0
 22 23  1  0  0  0
 23 25  1  0  0  0
 25 26  2  0  0  0
 25 27  1  0  0  0
 27 28  1  0  0  0
 23 24  2  0  0  0
 24 19  1  0  0  0
  6  1  1  0  0  0
 13  8  1  0  0  0
 17 12  1  0  0  0
 11 18  1  0  0  0
 27 29  1  0  0  0
M  END
> <minimizedAffinity>
34.57595

> <CNNscore>
0.5527120233

> <CNNaffinity>
5.5563530922

> <CNN_VS>
3.0710630417

> <CNNaffinity_variance>
0.1153353006

$$$$
[H]/C(=C1\C(=O)N([H])c2c([H])c([H])c([H])c([H])c21)c1c([H])c([H])c(-c2c([H])c([H])c(C(=O)N([H])C([H])([H])[H])c([H])c2[H])c([H])c1[H]


 29 32  0  0  0  0  0  0  0  0999 V2000
   23.5130    7.0949   53.7201 C   0  0  0  0  0  0  0  0  0  0  0  0
   24.6586    6.4617   53.2775 C   0  0  0  0  0  0  0  0  0  0  0  0
   25.8743    7.1504   53.3410 C   0  0  0  0  0  0  0  0  0  0  0  0
   25.9700    8.4356   53.8276 C   0  0  0  0  0  0  0  0  0  0  0  0
   24.8137    9.0577   54.2677 C   0  0  0  0  0  0  0  0  0  0  0  0
   23.6164    8.3775   54.2049 C   0  0  0  0  0  0  0  0  0  0  0  0
   27.2080    9.1365   53.7697 C   0  0  0  0  0  0  0  0  0  0  0  0
   27.8908    9.5671   54.7811 C   0  0  0  0  0  0  0  0  0  0  0  0
   29.1844   10.3093   54.7177 C   0  0  0  0  0  0  0  0  0  0  0  0
   29.7733   10.6349   53.6791 O   0  0  0  0  0  0  0  0  0  0  0  0
   29.6328   10.5829   56.0286 N   0  0  0  0  0  0  0  0  0  0  0  0
   28.6574   10.0323   56.8946 C   0  0  0  0  0  0  0  0  0  0  0  0
   27.6242    9.4291   56.2113 C   0  0  0  0  0  0  0  0  0  0  0  0
   26.5806    8.8196   56.8570 C   0  0  0  0  0  0  0  0  0  0  0  0
   26.5924    8.8301   58.2510 C   0  0  0  0  0  0  0  0  0  0  0  0
   27.6219    9.4338   58.9305 C   0  0  0  0  0  0  0  0  0  0  0  0
   28.6531   10.0336   58.2634 C   0  0  0  0  0  0  0  0  0  0  0  0
   30.5187   11.0940   56.2514 H   0  0  0  0  0  0  0  0  0  0  0  0
   22.1765    5.0399   53.8664 C   0  0  0  0  0  0  0  0  0  0  0  0
   22.2140    6.4148   53.6689 C   0  0  0  0  0  0  0  0  0  0  0  0
   21.0266    7.0619   53.4453 C   0  0  0  0  0  0  0  0  0  0  0  0
   19.8373    6.3511   53.4209 C   0  0  0  0  0  0  0  0  0  0  0  0
   19.7957    4.9909   53.6158 C   0  0  0  0  0  0  0  0  0  0  0  0
   20.9934    4.3384   53.8411 C   0  0  0  0  0  0  0  0  0  0  0  0
   18.5242    4.2836   53.5992 C   0  0  0  0  0  0  0  0  0  0  0  0
   18.4709    3.1348   53.0516 O   0  0  0  0  0  0  0  0  0  0  0  0
   17.3239    4.7923   54.1595 N   0  0  0  0  0  0  0  0  0  0  0  0
   16.0765    4.0581   54.1260 C   0  0  0  0  0  0  0  0  0  0  0  0
   17.3271    5.7264   54.6198 H   0  0  0  0  0  0  0  0  0  0  0  0
 19 20  2  0  0  0
 20  1  1  0  0  0
  1  2  2  0  0  0
  2  3  1  0  0  0
  3  4  2  0  0  0
  4  7  1  0  0  0
  7  8  2  0  0  0
  8  9  1  0  0  0
  9 10  2  0  0  0
  9 11  1  0  0  0
 11 12  1  0  0  0
 12 13  2  0  0  0
 13 14  1  0  0  0
 14 15  2  0  0  0
 15 16  1  0  0  0
 16 17  2  0  0  0
  4  5  1  0  0  0
  5  6  2  0  0  0
 20 21  1  0  0  0
 21 22  2  0  0  0
 22 23  1  0  0  0
 23 25  1  0  0  0
 25 26  2  0  0  0
 25 27  1  0  0  0
 27 28  1  0  0  0
 23 24  2  0  0  0
 24 19  1  0  0  0
  6  1  1  0  0  0
 13  8  1  0  0  0
 17 12  1  0  0  0
 11 18  1  0  0  0
 27 29  1  0  0  0
M  END
> <minimizedAffinity>
35.96949

> <CNNscore>
0.4929322898

> <CNNaffinity>
5.4825448990

> <CNN_VS>
2.7025234699

> <CNNaffinity_variance>
0.2528700531

$$$$
[H]/C(=C1\C(=O)N([H])c2c([H])c([H])c([H])c([H])c21)c1c([H])c([H])c(-c2c([H])c([H])c(C(=O)N([H])C([H])([H])[H])c([H])c2[H])c([H])c1[H]


 29 32  0  0  0  0  0  0  0  0999 V2000
   22.2290    9.0013   53.4919 C   0  0  0  0  0  0  0  0  0  0  0  0
   21.6130    9.6375   52.4312 C   0  0  0  0  0  0  0  0  0  0  0  0
   20.9270   10.8326   52.6711 C   0  0  0  0  0  0  0  0  0  0  0  0
   20.8431   11.3966   53.9251 C   0  0  0  0  0  0  0  0  0  0  0  0
   21.4654   10.7480   54.9785 C   0  0  0  0  0  0  0  0  0  0  0  0
   22.1415    9.5706   54.7404 C   0  0  0  0  0  0  0  0  0  0  0  0
   20.0415   12.5533   54.1415 C   0  0  0  0  0  0  0  0  0  0  0  0
   20.0562   13.6369   53.4343 C   0  0  0  0  0  0  0  0  0  0  0  0
   19.2209   14.8517   53.6682 C   0  0  0  0  0  0  0  0  0  0  0  0
   18.4096   14.9963   54.5915 O   0  0  0  0  0  0  0  0  0  0  0  0
   19.5005   15.8122   52.6713 N   0  0  0  0  0  0  0  0  0  0  0  0
   20.4792   15.2264   51.8326 C   0  0  0  0  0  0  0  0  0  0  0  0
   20.8325   13.9581   52.2385 C   0  0  0  0  0  0  0  0  0  0  0  0
   21.7537   13.2050   51.5590 C   0  0  0  0  0  0  0  0  0  0  0  0
   22.3367   13.7702   50.4258 C   0  0  0  0  0  0  0  0  0  0  0  0
   21.9851   15.0355   50.0238 C   0  0  0  0  0  0  0  0  0  0  0  0
   21.0616   15.7663   50.7177 C   0  0  0  0  0  0  0  0  0  0  0  0
   19.0420   16.7515   52.6160 H   0  0  0  0  0  0  0  0  0  0  0  0
   24.3453    7.7753   53.2703 C   0  0  0  0  0  0  0  0  0  0  0  0
   22.9563    7.7432   53.2903 C   0  0  0  0  0  0  0  0  0  0  0  0
   22.3419    6.5286   53.1287 C   0  0  0  0  0  0  0  0  0  0  0  0
   23.0982    5.3809   52.9527 C   0  0  0  0  0  0  0  0  0  0  0  0
   24.4725    5.4083   52.9322 C   0  0  0  0  0  0  0  0  0  0  0  0
   25.0920    6.6333   53.0950 C   0  0  0  0  0  0  0  0  0  0  0  0
   25.2306    4.1781   52.7616 C   0  0  0  0  0  0  0  0  0  0  0  0
   26.4170    4.2498   52.3034 O   0  0  0  0  0  0  0  0  0  0  0  0
   24.7326    2.8871   53.0756 N   0  0  0  0  0  0  0  0  0  0  0  0
   25.5178    1.6842   52.8944 C   0  0  0  0  0  0  0  0  0  0  0  0
   23.7685    2.7866   53.4563 H   0  0  0  0  0  0  0  0  0  0  0  0
 19 20  2  0  0  0
 20  1  1  0  0  0
  1  2  2  0  0  0
  2  3  1  0  0  0
  3  4  2  0  0  0
  4  7  1  0  0  0
  7  8  2  0  0  0
  8  9  1  0  0  0
  9 10  2  0  0  0
  9 11  1  0  0  0
 11 12  1  0  0  0
 12 13  2  0  0  0
 13 14  1  0  0  0
 14 15  2  0  0  0
 15 16  1  0  0  0
 16 17  2  0  0  0
  4  5  1  0  0  0
  5  6  2  0  0  0
 20 21  1  0  0  0
 21 22  2  0  0  0
 22 23  1  0  0  0
 23 25  1  0  0  0
 25 26  2  0  0  0
 25 27  1  0  0  0
 27 28  1  0  0  0
 23 24  2  0  0  0
 24 19  1  0  0  0
  6  1  1  0  0  0
 13  8  1  0  0  0
 17 12  1  0  0  0
 11 18  1  0  0  0
 27 29  1  0  0  0
M  END
> <minimizedAffinity>
50.06139

> <CNNscore>
0.4895427227

> <CNNaffinity>
5.4163069725

> <CNN_VS>
2.6515135765

> <CNNaffinity_variance>
0.1969013065

$$$$
[H]/C(=C1\C(=O)N([H])c2c([H])c([H])c([H])c([H])c21)c1c([H])c([H])c(-c2c([H])c([H])c(C(=O)N([H])C([H])([H])[H])c([H])c2[H])c([H])c1[H]


 29 32  0  0  0  0  0  0  0  0999 V2000
   25.3866    9.2104   55.6452 C   0  0  0  0  0  0  0  0  0  0  0  0
   26.6918    8.8294   55.3995 C   0  0  0  0  0  0  0  0  0  0  0  0
   27.6946    9.2652   56.2718 C   0  0  0  0  0  0  0  0  0  0  0  0
   27.4278   10.0599   57.3650 C   0  0  0  0  0  0  0  0  0  0  0  0
   26.1151   10.4338   57.5989 C   0  0  0  0  0  0  0  0  0  0  0  0
   25.1280   10.0031   56.7385 C   0  0  0  0  0  0  0  0  0  0  0  0
   28.4927   10.5704   58.1604 C   0  0  0  0  0  0  0  0  0  0  0  0
   29.1255    9.9321   59.0914 C   0  0  0  0  0  0  0  0  0  0  0  0
   30.2361   10.4722   59.9299 C   0  0  0  0  0  0  0  0  0  0  0  0
   30.6914   11.6210   59.8621 O   0  0  0  0  0  0  0  0  0  0  0  0
   30.6873    9.4678   60.8142 N   0  0  0  0  0  0  0  0  0  0  0  0
   29.8909    8.3286   60.5453 C   0  0  0  0  0  0  0  0  0  0  0  0
   28.9676    8.5528   59.5475 C   0  0  0  0  0  0  0  0  0  0  0  0
   28.1049    7.5779   59.1197 C   0  0  0  0  0  0  0  0  0  0  0  0
   28.1871    6.3304   59.7365 C   0  0  0  0  0  0  0  0  0  0  0  0
   29.1064    6.1093   60.7325 C   0  0  0  0  0  0  0  0  0  0  0  0
   29.9578    7.0977   61.1404 C   0  0  0  0  0  0  0  0  0  0  0  0
   31.4611    9.5995   61.5065 H   0  0  0  0  0  0  0  0  0  0  0  0
   22.9901    9.0355   55.1386 C   0  0  0  0  0  0  0  0  0  0  0  0
   24.3014    8.7820   54.7556 C   0  0  0  0  0  0  0  0  0  0  0  0
   24.5072    8.1504   53.5566 C   0  0  0  0  0  0  0  0  0  0  0  0
   23.4299    7.7844   52.7656 C   0  0  0  0  0  0  0  0  0  0  0  0
   22.1310    8.0333   53.1408 C   0  0  0  0  0  0  0  0  0  0  0  0
   21.9235    8.6702   54.3501 C   0  0  0  0  0  0  0  0  0  0  0  0
   21.0279    7.6480   52.2737 C   0  0  0  0  0  0  0  0  0  0  0  0
   20.1240    6.8805   52.7389 O   0  0  0  0  0  0  0  0  0  0  0  0
   20.8876    8.0752   50.9279 N   0  0  0  0  0  0  0  0  0  0  0  0
   19.7739    7.6726   50.0951 C   0  0  0  0  0  0  0  0  0  0  0  0
   21.6036    8.7066   50.5118 H   0  0  0  0  0  0  0  0  0  0  0  0
 19 20  2  0  0  0
 20  1  1  0  0  0
  1  2  2  0  0  0
  2  3  1  0  0  0
  3  4  2  0  0  0
  4  7  1  0  0  0
  7  8  2  0  0  0
  8  9  1  0  0  0
  9 10  2  0  0  0
  9 11  1  0  0  0
 11 12  1  0  0  0
 12 13  2  0  0  0
 13 14  1  0  0  0
 14 15  2  0  0  0
 15 16  1  0  0  0
 16 17  2  0  0  0
  4  5  1  0  0  0
  5  6  2  0  0  0
 20 21  1  0  0  0
 21 22  2  0  0  0
 22 23  1  0  0  0
 23 25  1  0  0  0
 25 26  2  0  0  0
 25 27  1  0  0  0
 27 28  1  0  0  0
 23 24  2  0  0  0
 24 19  1  0  0  0
  6  1  1  0  0  0
 13  8  1  0  0  0
 17 12  1  0  0  0
 11 18  1  0  0  0
 27 29  1  0  0  0
M  END
> <minimizedAffinity>
23.41630

> <CNNscore>
0.4715345800

> <CNNaffinity>
5.5602097511

> <CNN_VS>
2.6218311787

> <CNNaffinity_variance>
0.2402106076

$$$$
[H]/C(=C1\C(=O)N([H])c2c([H])c([H])c([H])c([H])c21)c1c([H])c([H])c(-c2c([H])c([H])c(C(=O)N([H])C([H])([H])[H])c([H])c2[H])c([H])c1[H]


 29 32  0  0  0  0  0  0  0  0999 V2000
   21.1181    8.1485   52.8322 C   0  0  0  0  0  0  0  0  0  0  0  0
   22.2013    7.2986   52.9489 C   0  0  0  0  0  0  0  0  0  0  0  0
   21.9718    5.9591   53.2798 C   0  0  0  0  0  0  0  0  0  0  0  0
   20.7066    5.4580   53.4938 C   0  0  0  0  0  0  0  0  0  0  0  0
   19.6305    6.3213   53.3732 C   0  0  0  0  0  0  0  0  0  0  0  0
   19.8583    7.6410   53.0466 C   0  0  0  0  0  0  0  0  0  0  0  0
   20.5295    4.1165   53.9370 C   0  0  0  0  0  0  0  0  0  0  0  0
   19.4001    3.5374   54.1890 C   0  0  0  0  0  0  0  0  0  0  0  0
   19.2173    2.1334   54.6618 C   0  0  0  0  0  0  0  0  0  0  0  0
   20.1307    1.3330   54.8996 O   0  0  0  0  0  0  0  0  0  0  0  0
   17.8384    1.8596   54.7963 N   0  0  0  0  0  0  0  0  0  0  0  0
   17.1688    3.0491   54.4206 C   0  0  0  0  0  0  0  0  0  0  0  0
   18.0392    4.0535   54.0578 C   0  0  0  0  0  0  0  0  0  0  0  0
   17.6010    5.2846   53.6455 C   0  0  0  0  0  0  0  0  0  0  0  0
   16.2238    5.4971   53.6059 C   0  0  0  0  0  0  0  0  0  0  0  0
   15.3575    4.4955   53.9700 C   0  0  0  0  0  0  0  0  0  0  0  0
   15.8194    3.2748   54.3761 C   0  0  0  0  0  0  0  0  0  0  0  0
   17.4505    0.9407   55.1138 H   0  0  0  0  0  0  0  0  0  0  0  0
   21.3190    9.9270   51.1508 C   0  0  0  0  0  0  0  0  0  0  0  0
   21.3092    9.5627   52.4916 C   0  0  0  0  0  0  0  0  0  0  0  0
   21.4706   10.5533   53.4252 C   0  0  0  0  0  0  0  0  0  0  0  0
   21.6365   11.8697   53.0256 C   0  0  0  0  0  0  0  0  0  0  0  0
   21.6468   12.2345   51.7002 C   0  0  0  0  0  0  0  0  0  0  0  0
   21.4843   11.2353   50.7588 C   0  0  0  0  0  0  0  0  0  0  0  0
   21.8069   13.6304   51.3223 C   0  0  0  0  0  0  0  0  0  0  0  0
   22.9761   14.0626   51.0603 O   0  0  0  0  0  0  0  0  0  0  0  0
   20.7354   14.5554   51.2234 N   0  0  0  0  0  0  0  0  0  0  0  0
   20.9329   15.9380   50.8418 C   0  0  0  0  0  0  0  0  0  0  0  0
   19.7638   14.2400   51.4258 H   0  0  0  0  0  0  0  0  0  0  0  0
 19 20  2  0  0  0
 20  1  1  0  0  0
  1  2  2  0  0  0
  2  3  1  0  0  0
  3  4  2  0  0  0
  4  7  1  0  0  0
  7  8  2  0  0  0
  8  9  1  0  0  0
  9 10  2  0  0  0
  9 11  1  0  0  0
 11 12  1  0  0  0
 12 13  2  0  0  0
 13 14  1  0  0  0
 14 15  2  0  0  0
 15 16  1  0  0  0
 16 17  2  0  0  0
  4  5  1  0  0  0
  5  6  2  0  0  0
 20 21  1  0  0  0
 21 22  2  0  0  0
 22 23  1  0  0  0
 23 25  1  0  0  0
 25 26  2  0  0  0
 25 27  1  0  0  0
 27 28  1  0  0  0
 23 24  2  0  0  0
 24 19  1  0  0  0
  6  1  1  0  0  0
 13  8  1  0  0  0
 17 12  1  0  0  0
 11 18  1  0  0  0
 27 29  1  0  0  0
M  END
> <minimizedAffinity>
51.88705

> <CNNscore>
0.4680361748

> <CNNaffinity>
5.5195884705

> <CNN_VS>
2.5833671093

> <CNNaffinity_variance>
0.1681379527

$$$$
[H]/C(=C1\C(=O)N([H])c2c([H])c([H])c([H])c([H])c21)c1c([H])c([H])c(-c2c([H])c([H])c(C(=O)N([H])C([H])([H])[H])c([H])c2[H])c([H])c1[H]


 29 32  0  0  0  0  0  0  0  0999 V2000
   28.2158    9.3989   53.8700 C   0  0  0  0  0  0  0  0  0  0  0  0
   27.1243    8.8632   54.5263 C   0  0  0  0  0  0  0  0  0  0  0  0
   27.1666    8.7508   55.9198 C   0  0  0  0  0  0  0  0  0  0  0  0
   28.2562    9.1539   56.6600 C   0  0  0  0  0  0  0  0  0  0  0  0
   29.3429    9.6890   55.9889 C   0  0  0  0  0  0  0  0  0  0  0  0
   29.2994    9.7996   54.6156 C   0  0  0  0  0  0  0  0  0  0  0  0
   28.2996    8.9179   58.0635 C   0  0  0  0  0  0  0  0  0  0  0  0
   28.3664    9.8201   58.9888 C   0  0  0  0  0  0  0  0  0  0  0  0
   28.4204    9.5700   60.4594 C   0  0  0  0  0  0  0  0  0  0  0  0
   28.4304    8.4552   60.9965 O   0  0  0  0  0  0  0  0  0  0  0  0
   28.4585   10.8047   61.1439 N   0  0  0  0  0  0  0  0  0  0  0  0
   28.4287   11.8044   60.1419 C   0  0  0  0  0  0  0  0  0  0  0  0
   28.3736   11.2766   58.8704 C   0  0  0  0  0  0  0  0  0  0  0  0
   28.3227   12.0689   57.7536 C   0  0  0  0  0  0  0  0  0  0  0  0
   28.3316   13.4499   57.9436 C   0  0  0  0  0  0  0  0  0  0  0  0
   28.3888   13.9743   59.2116 C   0  0  0  0  0  0  0  0  0  0  0  0
   28.4369   13.1627   60.3104 C   0  0  0  0  0  0  0  0  0  0  0  0
   28.4990   10.8973   62.1858 H   0  0  0  0  0  0  0  0  0  0  0  0
   28.9158   10.5927   51.8413 C   0  0  0  0  0  0  0  0  0  0  0  0
   28.2198    9.5326   52.4090 C   0  0  0  0  0  0  0  0  0  0  0  0
   27.5804    8.6619   51.5653 C   0  0  0  0  0  0  0  0  0  0  0  0
   27.6379    8.8489   50.1934 C   0  0  0  0  0  0  0  0  0  0  0  0
   28.3254    9.8964   49.6277 C   0  0  0  0  0  0  0  0  0  0  0  0
   28.9700   10.7746   50.4788 C   0  0  0  0  0  0  0  0  0  0  0  0
   28.3755   10.0483   48.1815 C   0  0  0  0  0  0  0  0  0  0  0  0
   28.3489   11.2227   47.6889 O   0  0  0  0  0  0  0  0  0  0  0  0
   28.4540    8.9635   47.2703 N   0  0  0  0  0  0  0  0  0  0  0  0
   28.5044    9.1534   45.8358 C   0  0  0  0  0  0  0  0  0  0  0  0
   28.4818    7.9879   47.6337 H   0  0  0  0  0  0  0  0  0  0  0  0
 19 20  2  0  0  0
 20  1  1  0  0  0
  1  2  2  0  0  0
  2  3  1  0  0  0
  3  4  2  0  0  0
  4  7  1  0  0  0
  7  8  2  0  0  0
  8  9  1  0  0  0
  9 10  2  0  0  0
  9 11  1  0  0  0
 11 12  1  0  0  0
 12 13  2  0  0  0
 13 14  1  0  0  0
 14 15  2  0  0  0
 15 16  1  0  0  0
 16 17  2  0  0  0
  4  5  1  0  0  0
  5  6  2  0  0  0
 20 21  1  0  0  0
 21 22  2  0  0  0
 22 23  1  0  0  0
 23 25  1  0  0  0
 25 26  2  0  0  0
 25 27  1  0  0  0
 27 28  1  0  0  0
 23 24  2  0  0  0
 24 19  1  0  0  0
  6  1  1  0  0  0
 13  8  1  0  0  0
 17 12  1  0  0  0
 11 18  1  0  0  0
 27 29  1  0  0  0
M  END
> <minimizedAffinity>
43.51480

> <CNNscore>
0.4623608589

> <CNNaffinity>
5.1937193871

> <CNN_VS>
2.4013726711

> <CNNaffinity_variance>
0.1586483717

$$$$
[H]/C(=C1\C(=O)N([H])c2c([H])c([H])c([H])c([H])c21)c1c([H])c([H])c(-c2c([H])c([H])c(C(=O)N([H])C([H])([H])[H])c([H])c2[H])c([H])c1[H]


 29 32  0  0  0  0  0  0  0  0999 V2000
   22.0263    9.6327   53.3477 C   0  0  0  0  0  0  0  0  0  0  0  0
   21.6990    9.6889   52.0065 C   0  0  0  0  0  0  0  0  0  0  0  0
   21.3284   10.9202   51.4562 C   0  0  0  0  0  0  0  0  0  0  0  0
   21.2775   12.0769   52.2027 C   0  0  0  0  0  0  0  0  0  0  0  0
   21.6084   12.0056   53.5455 C   0  0  0  0  0  0  0  0  0  0  0  0
   21.9738   10.7914   54.0862 C   0  0  0  0  0  0  0  0  0  0  0  0
   20.7880   13.2836   51.6270 C   0  0  0  0  0  0  0  0  0  0  0  0
   21.4492   14.0866   50.8571 C   0  0  0  0  0  0  0  0  0  0  0  0
   20.9367   15.3558   50.2615 C   0  0  0  0  0  0  0  0  0  0  0  0
   19.8067   15.8269   50.4427 O   0  0  0  0  0  0  0  0  0  0  0  0
   21.9425   15.9366   49.4583 N   0  0  0  0  0  0  0  0  0  0  0  0
   23.0553   15.0652   49.5404 C   0  0  0  0  0  0  0  0  0  0  0  0
   22.8128   13.9727   50.3441 C   0  0  0  0  0  0  0  0  0  0  0  0
   23.7516   12.9960   50.5497 C   0  0  0  0  0  0  0  0  0  0  0  0
   24.9832   13.1433   49.9135 C   0  0  0  0  0  0  0  0  0  0  0  0
   25.2241   14.2341   49.1146 C   0  0  0  0  0  0  0  0  0  0  0  0
   24.2703   15.1944   48.9234 C   0  0  0  0  0  0  0  0  0  0  0  0
   21.8278   16.8335   48.9310 H   0  0  0  0  0  0  0  0  0  0  0  0
   22.3247    8.2458   55.3522 C   0  0  0  0  0  0  0  0  0  0  0  0
   22.4167    8.3631   53.9708 C   0  0  0  0  0  0  0  0  0  0  0  0
   22.8610    7.2758   53.2644 C   0  0  0  0  0  0  0  0  0  0  0  0
   23.2024    6.1059   53.9240 C   0  0  0  0  0  0  0  0  0  0  0  0
   23.1129    5.9856   55.2905 C   0  0  0  0  0  0  0  0  0  0  0  0
   22.6650    7.0824   56.0029 C   0  0  0  0  0  0  0  0  0  0  0  0
   23.4652    4.7341   55.9438 C   0  0  0  0  0  0  0  0  0  0  0  0
   24.2814    3.9488   55.3609 O   0  0  0  0  0  0  0  0  0  0  0  0
   22.9558    4.3235   57.2029 N   0  0  0  0  0  0  0  0  0  0  0  0
   23.3312    3.0706   57.8238 C   0  0  0  0  0  0  0  0  0  0  0  0
   22.2890    4.9394   57.7132 H   0  0  0  0  0  0  0  0  0  0  0  0
 19 20  2  0  0  0
 20  1  1  0  0  0
  1  2  2  0  0  0
  2  3  1  0  0  0
  3  4  2  0  0  0
  4  7  1  0  0  0
  7  8  2  0  0  0
  8  9  1  0  0  0
  9 10  2  0  0  0
  9 11  1  0  0  0
 11 12  1  0  0  0
 12 13  2  0  0  0
 13 14  1  0  0  0
 14 15  2  0  0  0
 15 16  1  0  0  0
 16 17  2  0  0  0
  4  5  1  0  0  0
  5  6  2  0  0  0
 20 21  1  0  0  0
 21 22  2  0  0  0
 22 23  1  0  0  0
 23 25  1  0  0  0
 25 26  2  0  0  0
 25 27  1  0  0  0
 27 28  1  0  0  0
 23 24  2  0  0  0
 24 19  1  0  0  0
  6  1  1  0  0  0
 13  8  1  0  0  0
 17 12  1  0  0  0
 11 18  1  0  0  0
 27 29  1  0  0  0
M  END
> <minimizedAffinity>
54.85053

> <CNNscore>
0.4588534534

> <CNNaffinity>
5.3235640526

> <CNN_VS>
2.4427356720

> <CNNaffinity_variance>
0.1452018917

$$$$
[H]O[C@@]1([H])[C@]([H])(C([H])([H])OP(=O)(O[H])OP(=O)(O[H])O[H])O[C@@]1([H])n1c([H])nc2c(N([H])[H])nc([H])nc21


 31 33  0  0  0  0  0  0  0  0999 V2000
   23.2237    7.0402   52.8625 C   0  0  0  0  0  0  0  0  0  0  0  0
   23.0126    8.2281   52.1593 O   0  0  0  0  0  0  0  0  0  0  0  0
   21.8087    8.3991   52.8092 C   0  0  0  0  0  0  0  0  0  0  0  0
   21.8483    7.0473   53.4475 C   0  0  0  0  0  0  0  0  0  0  0  0
   21.7520    7.0285   54.8250 O   0  0  0  0  0  0  0  0  0  0  0  0
   20.9102    6.5957   55.1201 H   0  0  0  0  0  0  0  0  0  0  0  0
   28.3803    8.1161   55.7776 N   0  0  0  0  0  0  0  0  0  0  0  0
   27.5234    8.2717   54.6666 C   0  0  0  0  0  0  0  0  0  0  0  0
   27.8640    9.0155   53.5981 N   0  0  0  0  0  0  0  0  0  0  0  0
   27.0738    9.1750   52.5436 C   0  0  0  0  0  0  0  0  0  0  0  0
   25.8804    8.5778   52.5216 N   0  0  0  0  0  0  0  0  0  0  0  0
   25.4532    7.8081   53.5557 C   0  0  0  0  0  0  0  0  0  0  0  0
   24.3201    7.1157   53.7699 N   0  0  0  0  0  0  0  0  0  0  0  0
   24.4553    6.5475   54.9641 C   0  0  0  0  0  0  0  0  0  0  0  0
   25.6551    6.8683   55.5103 N   0  0  0  0  0  0  0  0  0  0  0  0
   26.2795    7.6530   54.6366 C   0  0  0  0  0  0  0  0  0  0  0  0
   29.3565    7.7624   55.6007 H   0  0  0  0  0  0  0  0  0  0  0  0
   28.0387    8.3496   56.7363 H   0  0  0  0  0  0  0  0  0  0  0  0
   20.6704    8.4830   51.7881 C   0  0  0  0  0  0  0  0  0  0  0  0
   20.5458    9.8265   51.4370 O   0  0  0  0  0  0  0  0  0  0  0  0
   21.2753   10.8227   52.5832 P   0  0  0  0  0  0  0  0  0  0  0  0
   22.9376   10.8822   52.2798 O   0  0  0  0  0  0  0  0  0  0  0  0
   21.0854   10.2313   53.9656 O   0  0  0  0  0  0  0  0  0  0  0  0
   23.2314   10.0772   51.7828 H   0  0  0  0  0  0  0  0  0  0  0  0
   20.6850   12.4017   52.5111 O   0  0  0  0  0  0  0  0  0  0  0  0
   21.1202   13.1709   51.0792 P   0  0  0  0  0  0  0  0  0  0  0  0
   22.7984   13.2833   51.0196 O   0  0  0  0  0  0  0  0  0  0  0  0
   20.4963   14.7485   51.0772 O   0  0  0  0  0  0  0  0  0  0  0  0
   20.5949   12.4488   49.8644 O   0  0  0  0  0  0  0  0  0  0  0  0
   23.1187   14.2087   51.1830 H   0  0  0  0  0  0  0  0  0  0  0  0
   20.3849   15.0947   52.0057 H   0  0  0  0  0  0  0  0  0  0  0  0
  7  8  1  0  0  0
  8  9  2  0  0  0
  9 10  1  0  0  0
 10 11  2  0  0  0
 11 12  1  0  0  0
 12 13  1  0  0  0
 13 14  1  0  0  0
 14 15  2  0  0  0
 15 16  1  0  0  0
 13  1  1  0  0  0
  1  2  1  0  0  0
  2  3  1  0  0  0
  3 19  1  0  0  0
 19 20  1  0  0  0
 20 21  1  0  0  0
 21 22  1  0  0  0
 21 23  2  0  0  0
 21 25  1  0  0  0
 25 26  1  0  0  0
 26 27  1  0  0  0
 26 28  1  0  0  0
 26 29  2  0  0  0
  3  4  1  0  0  0
  4  5  1  0  0  0
 16  8  1  0  0  0
  4  1  1  0  0  0
 16 12  2  0  0  0
  7 17  1  0  0  0
  7 18  1  0  0  0
 22 24  1  0  0  0
 27 30  1  0  0  0
 28 31  1  0  0  0
  5  6  1  0  0  0
M  END
> <minimizedAffinity>
17.34618

> <CNNscore>
0.5443821549

> <CNNaffinity>
5.4097466469

> <CNN_VS>
2.9449696541

> <CNNaffinity_variance>
0.4503717422

$$$$
[H]O[C@@]1([H])[C@]([H])(C([H])([H])OP(=O)(O[H])OP(=O)(O[H])O[H])O[C@@]1([H])n1c([H])nc2c(N([H])[H])nc([H])nc21


 31 33  0  0  0  0  0  0  0  0999 V2000
   23.8862    7.3964   53.5520 C   0  0  0  0  0  0  0  0  0  0  0  0
   23.1108    8.2122   52.7254 O   0  0  0  0  0  0  0  0  0  0  0  0
   21.9644    7.6509   53.2466 C   0  0  0  0  0  0  0  0  0  0  0  0
   22.7068    6.6000   54.0088 C   0  0  0  0  0  0  0  0  0  0  0  0
   22.4659    6.5583   55.3679 O   0  0  0  0  0  0  0  0  0  0  0  0
   22.0080    5.7176   55.6258 H   0  0  0  0  0  0  0  0  0  0  0  0
   27.9669   10.0345   57.1065 N   0  0  0  0  0  0  0  0  0  0  0  0
   27.6141    9.2266   56.0039 C   0  0  0  0  0  0  0  0  0  0  0  0
   28.5383    8.6570   55.2087 N   0  0  0  0  0  0  0  0  0  0  0  0
   28.2286    7.8943   54.1674 C   0  0  0  0  0  0  0  0  0  0  0  0
   26.9453    7.6686   53.8779 N   0  0  0  0  0  0  0  0  0  0  0  0
   25.9450    8.2025   54.6254 C   0  0  0  0  0  0  0  0  0  0  0  0
   24.6047    8.1270   54.5426 N   0  0  0  0  0  0  0  0  0  0  0  0
   24.1314    8.8554   55.5489 C   0  0  0  0  0  0  0  0  0  0  0  0
   25.1494    9.3913   56.2680 N   0  0  0  0  0  0  0  0  0  0  0  0
   26.2803    8.9872   55.6964 C   0  0  0  0  0  0  0  0  0  0  0  0
   28.6161    9.6261   57.8285 H   0  0  0  0  0  0  0  0  0  0  0  0
   27.5861   11.0035   57.1859 H   0  0  0  0  0  0  0  0  0  0  0  0
   21.1335    7.0213   52.1246 C   0  0  0  0  0  0  0  0  0  0  0  0
   20.6319    8.0731   51.3594 O   0  0  0  0  0  0  0  0  0  0  0  0
   21.1944    9.5568   51.9258 P   0  0  0  0  0  0  0  0  0  0  0  0
   22.8828    9.5744   51.8346 O   0  0  0  0  0  0  0  0  0  0  0  0
   20.8153    9.7215   53.3838 O   0  0  0  0  0  0  0  0  0  0  0  0
   23.2434    8.6519   51.8496 H   0  0  0  0  0  0  0  0  0  0  0  0
   20.6183   10.8435   50.9987 O   0  0  0  0  0  0  0  0  0  0  0  0
   21.4161   12.2817   51.3547 P   0  0  0  0  0  0  0  0  0  0  0  0
   21.8827   12.2499   52.9714 O   0  0  0  0  0  0  0  0  0  0  0  0
   20.3462   13.5824   51.1511 O   0  0  0  0  0  0  0  0  0  0  0  0
   22.6115   12.5035   50.4632 O   0  0  0  0  0  0  0  0  0  0  0  0
   21.3258   12.8486   53.5346 H   0  0  0  0  0  0  0  0  0  0  0  0
   19.4007   13.2989   51.2926 H   0  0  0  0  0  0  0  0  0  0  0  0
  7  8  1  0  0  0
  8  9  2  0  0  0
  9 10  1  0  0  0
 10 11  2  0  0  0
 11 12  1  0  0  0
 12 13  1  0  0  0
 13 14  1  0  0  0
 14 15  2  0  0  0
 15 16  1  0  0  0
 13  1  1  0  0  0
  1  2  1  0  0  0
  2  3  1  0  0  0
  3 19  1  0  0  0
 19 20  1  0  0  0
 20 21  1  0  0  0
 21 22  1  0  0  0
 21 23  2  0  0  0
 21 25  1  0  0  0
 25 26  1  0  0  0
 26 27  1  0  0  0
 26 28  1  0  0  0
 26 29  2  0  0  0
  3  4  1  0  0  0
  4  5  1  0  0  0
 16  8  1  0  0  0
  4  1  1  0  0  0
 16 12  2  0  0  0
  7 17  1  0  0  0
  7 18  1  0  0  0
 22 24  1  0  0  0
 27 30  1  0  0  0
 28 31  1  0  0  0
  5  6  1  0  0  0
M  END
> <minimizedAffinity>
7.48785

> <CNNscore>
0.5372362733

> <CNNaffinity>
5.6401844025

> <CNN_VS>
3.0301115513

> <CNNaffinity_variance>
0.3675327897

$$$$
[H]O[C@@]1([H])[C@]([H])(C([H])([H])OP(=O)(O[H])OP(=O)(O[H])O[H])O[C@@]1([H])n1c([H])nc2c(N([H])[H])nc([H])nc21


 31 33  0  0  0  0  0  0  0  0999 V2000
   25.6175    8.4430   55.7416 C   0  0  0  0  0  0  0  0  0  0  0  0
   26.0637    9.6567   56.2686 O   0  0  0  0  0  0  0  0  0  0  0  0
   27.1081    9.6638   55.3684 C   0  0  0  0  0  0  0  0  0  0  0  0
   26.8304    8.2763   54.8844 C   0  0  0  0  0  0  0  0  0  0  0  0
   26.6251    8.1421   53.5255 O   0  0  0  0  0  0  0  0  0  0  0  0
   27.3484    7.6110   53.1037 H   0  0  0  0  0  0  0  0  0  0  0  0
   20.4960    7.6374   52.6808 N   0  0  0  0  0  0  0  0  0  0  0  0
   21.7151    7.1642   53.2128 C   0  0  0  0  0  0  0  0  0  0  0  0
   22.1173    5.8894   53.0575 N   0  0  0  0  0  0  0  0  0  0  0  0
   23.2591    5.4240   53.5492 C   0  0  0  0  0  0  0  0  0  0  0  0
   24.0611    6.2427   54.2333 N   0  0  0  0  0  0  0  0  0  0  0  0
   23.7362    7.5452   54.4394 C   0  0  0  0  0  0  0  0  0  0  0  0
   24.3596    8.5501   55.0802 N   0  0  0  0  0  0  0  0  0  0  0  0
   23.5689    9.6118   54.9583 C   0  0  0  0  0  0  0  0  0  0  0  0
   22.4548    9.2964   54.2511 N   0  0  0  0  0  0  0  0  0  0  0  0
   22.5551    8.0106   53.9261 C   0  0  0  0  0  0  0  0  0  0  0  0
   20.3249    7.5062   51.6498 H   0  0  0  0  0  0  0  0  0  0  0  0
   19.7990    8.0998   53.3057 H   0  0  0  0  0  0  0  0  0  0  0  0
   28.4432    9.7197   56.1166 C   0  0  0  0  0  0  0  0  0  0  0  0
   28.4615    8.6290   56.9847 O   0  0  0  0  0  0  0  0  0  0  0  0
   28.5644    9.1328   58.5891 P   0  0  0  0  0  0  0  0  0  0  0  0
   29.3587    7.9414   59.4884 O   0  0  0  0  0  0  0  0  0  0  0  0
   27.1708    9.2849   59.1648 O   0  0  0  0  0  0  0  0  0  0  0  0
   29.2727    7.0572   59.0502 H   0  0  0  0  0  0  0  0  0  0  0  0
   29.4454   10.5634   58.7439 O   0  0  0  0  0  0  0  0  0  0  0  0
   28.4572   11.8732   59.1175 P   0  0  0  0  0  0  0  0  0  0  0  0
   29.3892   13.0467   59.8836 O   0  0  0  0  0  0  0  0  0  0  0  0
   27.2546   11.3766   60.2062 O   0  0  0  0  0  0  0  0  0  0  0  0
   27.7865   12.4454   57.8945 O   0  0  0  0  0  0  0  0  0  0  0  0
   29.2015   13.0985   60.8571 H   0  0  0  0  0  0  0  0  0  0  0  0
   27.5605   10.6021   60.7548 H   0  0  0  0  0  0  0  0  0  0  0  0
  7  8  1  0  0  0
  8  9  2  0  0  0
  9 10  1  0  0  0
 10 11  2  0  0  0
 11 12  1  0  0  0
 12 13  1  0  0  0
 13 14  1  0  0  0
 14 15  2  0  0  0
 15 16  1  0  0  0
 13  1  1  0  0  0
  1  2  1  0  0  0
  2  3  1  0  0  0
  3 19  1  0  0  0
 19 20  1  0  0  0
 20 21  1  0  0  0
 21 22  1  0  0  0
 21 23  2  0  0  0
 21 25  1  0  0  0
 25 26  1  0  0  0
 26 27  1  0  0  0
 26 28  1  0  0  0
 26 29  2  0  0  0
  3  4  1  0  0  0
  4  5  1  0  0  0
 16  8  1  0  0  0
  4  1  1  0  0  0
 16 12  2  0  0  0
  7 17  1  0  0  0
  7 18  1  0  0  0
 22 24  1  0  0  0
 27 30  1  0  0  0
 28 31  1  0  0  0
  5  6  1  0  0  0
M  END
> <minimizedAffinity>
7.82709

> <CNNscore>
0.4932122231

> <CNNaffinity>
5.4072904587

> <CNN_VS>
2.6669416428

> <CNNaffinity_variance>
0.0902480558

$$$$
[H]O[C@@]1([H])[C@]([H])(C([H])([H])OP(=O)(O[H])OP(=O)(O[H])O[H])O[C@@]1([H])n1c([H])nc2c(N([H])[H])nc([H])nc21


 31 33  0  0  0  0  0  0  0  0999 V2000
   23.7419    8.4252   54.6087 C   0  0  0  0  0  0  0  0  0  0  0  0
   22.9515    8.7367   53.5004 O   0  0  0  0  0  0  0  0  0  0  0  0
   22.5713    9.9170   54.1030 C   0  0  0  0  0  0  0  0  0  0  0  0
   23.2169    9.5740   55.4076 C   0  0  0  0  0  0  0  0  0  0  0  0
   24.1413   10.4846   55.8801 O   0  0  0  0  0  0  0  0  0  0  0  0
   23.8267   10.9148   56.7161 H   0  0  0  0  0  0  0  0  0  0  0  0
   29.7523    8.7729   54.6062 N   0  0  0  0  0  0  0  0  0  0  0  0
   28.4993    8.8950   55.2450 C   0  0  0  0  0  0  0  0  0  0  0  0
   28.3848    9.2803   56.5292 N   0  0  0  0  0  0  0  0  0  0  0  0
   27.2171    9.4015   57.1488 C   0  0  0  0  0  0  0  0  0  0  0  0
   26.0908    9.1336   56.4846 N   0  0  0  0  0  0  0  0  0  0  0  0
   26.1105    8.7384   55.1854 C   0  0  0  0  0  0  0  0  0  0  0  0
   25.1366    8.4165   54.3154 N   0  0  0  0  0  0  0  0  0  0  0  0
   25.7477    8.1045   53.1767 C   0  0  0  0  0  0  0  0  0  0  0  0
   27.0925    8.2234   53.3107 N   0  0  0  0  0  0  0  0  0  0  0  0
   27.3226    8.6178   54.5598 C   0  0  0  0  0  0  0  0  0  0  0  0
   30.3924    9.6094   54.6137 H   0  0  0  0  0  0  0  0  0  0  0  0
   30.0179    7.8737   54.1467 H   0  0  0  0  0  0  0  0  0  0  0  0
   21.0473    9.9630   54.2481 C   0  0  0  0  0  0  0  0  0  0  0  0
   20.6128    8.6407   54.3274 O   0  0  0  0  0  0  0  0  0  0  0  0
   20.7468    7.8681   52.8362 P   0  0  0  0  0  0  0  0  0  0  0  0
   20.8105    9.0373   51.6164 O   0  0  0  0  0  0  0  0  0  0  0  0
   19.5152    7.0199   52.5904 O   0  0  0  0  0  0  0  0  0  0  0  0
   20.3864    9.8803   51.9176 H   0  0  0  0  0  0  0  0  0  0  0  0
   22.1534    6.9421   52.7316 O   0  0  0  0  0  0  0  0  0  0  0  0
   22.2336    5.7810   53.9469 P   0  0  0  0  0  0  0  0  0  0  0  0
   20.9906    4.6711   53.7108 O   0  0  0  0  0  0  0  0  0  0  0  0
   21.9837    6.5245   55.4512 O   0  0  0  0  0  0  0  0  0  0  0  0
   23.5688    5.0815   53.9766 O   0  0  0  0  0  0  0  0  0  0  0  0
   20.2584    4.7813   54.3722 H   0  0  0  0  0  0  0  0  0  0  0  0
   21.4291    7.3482   55.3601 H   0  0  0  0  0  0  0  0  0  0  0  0
  7  8  1  0  0  0
  8  9  2  0  0  0
  9 10  1  0  0  0
 10 11  2  0  0  0
 11 12  1  0  0  0
 12 13  1  0  0  0
 13 14  1  0  0  0
 14 15  2  0  0  0
 15 16  1  0  0  0
 13  1  1  0  0  0
  1  2  1  0  0  0
  2  3  1  0  0  0
  3 19  1  0  0  0
 19 20  1  0  0  0
 20 21  1  0  0  0
 21 22  1  0  0  0
 21 23  2  0  0  0
 21 25  1  0  0  0
 25 26  1  0  0  0
 26 27  1  0  0  0
 26 28  1  0  0  0
 26 29  2  0  0  0
  3  4  1  0  0  0
  4  5  1  0  0  0
 16  8  1  0  0  0
  4  1  1  0  0  0
 16 12  2  0  0  0
  7 17  1  0  0  0
  7 18  1  0  0  0
 22 24  1  0  0  0
 27 30  1  0  0  0
 28 31  1  0  0  0
  5  6  1  0  0  0
M  END
> <minimizedAffinity>
2.61966

> <CNNscore>
0.4930095375

> <CNNaffinity>
5.5472450256

> <CNN_VS>
2.7348446846

> <CNNaffinity_variance>
0.0674311519

$$$$
[H]O[C@@]1([H])[C@]([H])(C([H])([H])OP(=O)(O[H])OP(=O)(O[H])O[H])O[C@@]1([H])n1c([H])nc2c(N([H])[H])nc([H])nc21


 31 33  0  0  0  0  0  0  0  0999 V2000
   23.4045    6.6405   52.8959 C   0  0  0  0  0  0  0  0  0  0  0  0
   23.0910    7.7404   52.0946 O   0  0  0  0  0  0  0  0  0  0  0  0
   21.8669    7.8474   52.7202 C   0  0  0  0  0  0  0  0  0  0  0  0
   22.0265    6.5629   53.4694 C   0  0  0  0  0  0  0  0  0  0  0  0
   21.9124    6.6486   54.8429 O   0  0  0  0  0  0  0  0  0  0  0  0
   21.1118    6.1623   55.1677 H   0  0  0  0  0  0  0  0  0  0  0  0
   28.3904    8.4483   55.7454 N   0  0  0  0  0  0  0  0  0  0  0  0
   27.5383    8.4289   54.6200 C   0  0  0  0  0  0  0  0  0  0  0  0
   27.8203    9.1136   53.4964 N   0  0  0  0  0  0  0  0  0  0  0  0
   27.0334    9.1092   52.4274 C   0  0  0  0  0  0  0  0  0  0  0  0
   25.9040    8.3982   52.4469 N   0  0  0  0  0  0  0  0  0  0  0  0
   25.5389    7.6765   53.5379 C   0  0  0  0  0  0  0  0  0  0  0  0
   24.4755    6.8961   53.8009 N   0  0  0  0  0  0  0  0  0  0  0  0
   24.6482    6.4423   55.0385 C   0  0  0  0  0  0  0  0  0  0  0  0
   25.8033    6.9222   55.5641 N   0  0  0  0  0  0  0  0  0  0  0  0
   26.3609    7.6910   54.6330 C   0  0  0  0  0  0  0  0  0  0  0  0
   29.3988    8.1787   55.6042 H   0  0  0  0  0  0  0  0  0  0  0  0
   28.0141    8.7240   56.6796 H   0  0  0  0  0  0  0  0  0  0  0  0
   20.7407    7.7364   51.6882 C   0  0  0  0  0  0  0  0  0  0  0  0
   20.5188    9.0225   51.1982 O   0  0  0  0  0  0  0  0  0  0  0  0
   21.2903   10.1766   52.1528 P   0  0  0  0  0  0  0  0  0  0  0  0
   20.1248   11.0277   53.0339 O   0  0  0  0  0  0  0  0  0  0  0  0
   22.0082   11.1734   51.2653 O   0  0  0  0  0  0  0  0  0  0  0  0
   19.2455   10.9887   52.5794 H   0  0  0  0  0  0  0  0  0  0  0  0
   22.3526    9.4709   53.2576 O   0  0  0  0  0  0  0  0  0  0  0  0
   21.9157    9.8008   54.8487 P   0  0  0  0  0  0  0  0  0  0  0  0
   21.6661   11.4580   55.0036 O   0  0  0  0  0  0  0  0  0  0  0  0
   23.1912    9.3716   55.8817 O   0  0  0  0  0  0  0  0  0  0  0  0
   20.6846    9.0388   55.2691 O   0  0  0  0  0  0  0  0  0  0  0  0
   22.4009   11.9034   55.5009 H   0  0  0  0  0  0  0  0  0  0  0  0
   24.0698    9.4250   55.4132 H   0  0  0  0  0  0  0  0  0  0  0  0
  7  8  1  0  0  0
  8  9  2  0  0  0
  9 10  1  0  0  0
 10 11  2  0  0  0
 11 12  1  0  0  0
 12 13  1  0  0  0
 13 14  1  0  0  0
 14 15  2  0  0  0
 15 16  1  0  0  0
 13  1  1  0  0  0
  1  2  1  0  0  0
  2  3  1  0  0  0
  3 19  1  0  0  0
 19 20  1  0  0  0
 20 21  1  0  0  0
 21 22  1  0  0  0
 21 23  2  0  0  0
 21 25  1  0  0  0
 25 26  1  0  0  0
 26 27  1  0  0  0
 26 28  1  0  0  0
 26 29  2  0  0  0
  3  4  1  0  0  0
  4  5  1  0  0  0
 16  8  1  0  0  0
  4  1  1  0  0  0
 16 12  2  0  0  0
  7 17  1  0  0  0
  7 18  1  0  0  0
 22 24  1  0  0  0
 27 30  1  0  0  0
 28 31  1  0  0  0
  5  6  1  0  0  0
M  END
> <minimizedAffinity>
11.98818

> <CNNscore>
0.4894785583

> <CNNaffinity>
5.7792644501

> <CNN_VS>
2.8288259506

> <CNNaffinity_variance>
0.9756897688

$$$$
[H]O[C@@]1([H])[C@]([H])(C([H])([H])OP(=O)(O[H])OP(=O)(O[H])O[H])O[C@@]1([H])n1c([H])nc2c(N([H])[H])nc([H])nc21


 31 33  0  0  0  0  0  0  0  0999 V2000
   23.3751    8.8227   54.4829 C   0  0  0  0  0  0  0  0  0  0  0  0
   23.4125    9.4103   53.2166 O   0  0  0  0  0  0  0  0  0  0  0  0
   22.3413   10.2095   53.5556 C   0  0  0  0  0  0  0  0  0  0  0  0
   22.0928    9.4984   54.8475 C   0  0  0  0  0  0  0  0  0  0  0  0
   22.0993   10.2878   55.9806 O   0  0  0  0  0  0  0  0  0  0  0  0
   21.2013   10.3220   56.3995 H   0  0  0  0  0  0  0  0  0  0  0  0
   28.8601    9.4897   56.8737 N   0  0  0  0  0  0  0  0  0  0  0  0
   27.9922    9.0267   55.8612 C   0  0  0  0  0  0  0  0  0  0  0  0
   28.4421    8.3618   54.7812 N   0  0  0  0  0  0  0  0  0  0  0  0
   27.6438    7.9180   53.8180 C   0  0  0  0  0  0  0  0  0  0  0  0
   26.3290    8.1305   53.9054 N   0  0  0  0  0  0  0  0  0  0  0  0
   25.7860    8.7923   54.9597 C   0  0  0  0  0  0  0  0  0  0  0  0
   24.5214    9.1262   55.2734 N   0  0  0  0  0  0  0  0  0  0  0  0
   24.5876    9.7721   56.4335 C   0  0  0  0  0  0  0  0  0  0  0  0
   25.8730    9.8530   56.8601 N   0  0  0  0  0  0  0  0  0  0  0  0
   26.6223    9.2442   55.9454 C   0  0  0  0  0  0  0  0  0  0  0  0
   29.4999    8.7896   57.3319 H   0  0  0  0  0  0  0  0  0  0  0  0
   28.8532   10.4978   57.1456 H   0  0  0  0  0  0  0  0  0  0  0  0
   21.1854    9.9771   52.5781 C   0  0  0  0  0  0  0  0  0  0  0  0
   20.4684    8.8824   53.0590 O   0  0  0  0  0  0  0  0  0  0  0  0
   20.8375    7.4870   52.1901 P   0  0  0  0  0  0  0  0  0  0  0  0
   20.8138    7.8471   50.5382 O   0  0  0  0  0  0  0  0  0  0  0  0
   19.7760    6.4352   52.4423 O   0  0  0  0  0  0  0  0  0  0  0  0
   20.2415    8.6358   50.3604 H   0  0  0  0  0  0  0  0  0  0  0  0
   22.3748    6.9011   52.5643 O   0  0  0  0  0  0  0  0  0  0  0  0
   22.3587    5.9221   53.9328 P   0  0  0  0  0  0  0  0  0  0  0  0
   23.8937    5.2636   54.1391 O   0  0  0  0  0  0  0  0  0  0  0  0
   21.2742    4.6397   53.6930 O   0  0  0  0  0  0  0  0  0  0  0  0
   21.9373    6.6785   55.1670 O   0  0  0  0  0  0  0  0  0  0  0  0
   23.9239    4.3001   53.9012 H   0  0  0  0  0  0  0  0  0  0  0  0
   21.1788    4.4228   52.7244 H   0  0  0  0  0  0  0  0  0  0  0  0
  7  8  1  0  0  0
  8  9  2  0  0  0
  9 10  1  0  0  0
 10 11  2  0  0  0
 11 12  1  0  0  0
 12 13  1  0  0  0
 13 14  1  0  0  0
 14 15  2  0  0  0
 15 16  1  0  0  0
 13  1  1  0  0  0
  1  2  1  0  0  0
  2  3  1  0  0  0
  3 19  1  0  0  0
 19 20  1  0  0  0
 20 21  1  0  0  0
 21 22  1  0  0  0
 21 23  2  0  0  0
 21 25  1  0  0  0
 25 26  1  0  0  0
 26 27  1  0  0  0
 26 28  1  0  0  0
 26 29  2  0  0  0
  3  4  1  0  0  0
  4  5  1  0  0  0
 16  8  1  0  0  0
  4  1  1  0  0  0
 16 12  2  0  0  0
  7 17  1  0  0  0
  7 18  1  0  0  0
 22 24  1  0  0  0
 27 30  1  0  0  0
 28 31  1  0  0  0
  5  6  1  0  0  0
M  END
> <minimizedAffinity>
6.61895

> <CNNscore>
0.4878790975

> <CNNaffinity>
5.7487363815

> <CNN_VS>
2.8046882153

> <CNNaffinity_variance>
0.3874046803

$$$$
[H]O[C@@]1([H])[C@]([H])(C([H])([H])OP(=O)(O[H])OP(=O)(O[H])O[H])O[C@@]1([H])n1c([H])nc2c(N([H])[H])nc([H])nc21


 31 33  0  0  0  0  0  0  0  0999 V2000
   23.6807    8.5630   55.6660 C   0  0  0  0  0  0  0  0  0  0  0  0
   22.7519    7.6856   55.1026 O   0  0  0  0  0  0  0  0  0  0  0  0
   22.0161    8.7580   54.6450 C   0  0  0  0  0  0  0  0  0  0  0  0
   22.8362    9.7643   55.3875 C   0  0  0  0  0  0  0  0  0  0  0  0
   23.4010   10.7647   54.6212 O   0  0  0  0  0  0  0  0  0  0  0  0
   23.0146   11.6499   54.8451 H   0  0  0  0  0  0  0  0  0  0  0  0
   29.5022    8.7808   54.1463 N   0  0  0  0  0  0  0  0  0  0  0  0
   28.4479    8.9768   55.0645 C   0  0  0  0  0  0  0  0  0  0  0  0
   28.6574    9.4587   56.3033 N   0  0  0  0  0  0  0  0  0  0  0  0
   27.6810    9.6506   57.1818 C   0  0  0  0  0  0  0  0  0  0  0  0
   26.4243    9.3583   56.8403 N   0  0  0  0  0  0  0  0  0  0  0  0
   26.1190    8.8673   55.6114 C   0  0  0  0  0  0  0  0  0  0  0  0
   24.9585    8.5026   55.0376 N   0  0  0  0  0  0  0  0  0  0  0  0
   25.2663    8.0940   53.8106 C   0  0  0  0  0  0  0  0  0  0  0  0
   26.6025    8.1936   53.5973 N   0  0  0  0  0  0  0  0  0  0  0  0
   27.1371    8.6748   54.7160 C   0  0  0  0  0  0  0  0  0  0  0  0
   30.1259    9.6016   53.9302 H   0  0  0  0  0  0  0  0  0  0  0  0
   29.6430    7.8444   53.7062 H   0  0  0  0  0  0  0  0  0  0  0  0
   20.5937    8.6955   55.2096 C   0  0  0  0  0  0  0  0  0  0  0  0
   19.8562    7.8852   54.3475 O   0  0  0  0  0  0  0  0  0  0  0  0
   20.8063    6.6421   53.7228 P   0  0  0  0  0  0  0  0  0  0  0  0
   19.7956    5.4556   53.0672 O   0  0  0  0  0  0  0  0  0  0  0  0
   21.5999    5.9972   54.8413 O   0  0  0  0  0  0  0  0  0  0  0  0
   18.8983    5.4906   53.4854 H   0  0  0  0  0  0  0  0  0  0  0  0
   21.8233    7.1858   52.4911 O   0  0  0  0  0  0  0  0  0  0  0  0
   20.9981    8.1201   51.3609 P   0  0  0  0  0  0  0  0  0  0  0  0
   21.3560    9.7406   51.6410 O   0  0  0  0  0  0  0  0  0  0  0  0
   19.3277    7.9154   51.5753 O   0  0  0  0  0  0  0  0  0  0  0  0
   21.3474    7.7383   49.9448 O   0  0  0  0  0  0  0  0  0  0  0  0
   20.5950   10.2274   52.0529 H   0  0  0  0  0  0  0  0  0  0  0  0
   19.1107    7.6747   52.5183 H   0  0  0  0  0  0  0  0  0  0  0  0
  7  8  1  0  0  0
  8  9  2  0  0  0
  9 10  1  0  0  0
 10 11  2  0  0  0
 11 12  1  0  0  0
 12 13  1  0  0  0
 13 14  1  0  0  0
 14 15  2  0  0  0
 15 16  1  0  0  0
 13  1  1  0  0  0
  1  2  1  0  0  0
  2  3  1  0  0  0
  3 19  1  0  0  0
 19 20  1  0  0  0
 20 21  1  0  0  0
 21 22  1  0  0  0
 21 23  2  0  0  0
 21 25  1  0  0  0
 25 26  1  0  0  0
 26 27  1  0  0  0
 26 28  1  0  0  0
 26 29  2  0  0  0
  3  4  1  0  0  0
  4  5  1  0  0  0
 16  8  1  0  0  0
  4  1  1  0  0  0
 16 12  2  0  0  0
  7 17  1  0  0  0
  7 18  1  0  0  0
 22 24  1  0  0  0
 27 30  1  0  0  0
 28 31  1  0  0  0
  5  6  1  0  0  0
M  END
> <minimizedAffinity>
7.22532

> <CNNscore>
0.4836976826

> <CNNaffinity>
5.5046987534

> <CNN_VS>
2.6626100540

> <CNNaffinity_variance>
0.0915438533

$$$$
[H]O[C@@]1([H])[C@]([H])(C([H])([H])OP(=O)(O[H])OP(=O)(O[H])O[H])O[C@@]1([H])n1c([H])nc2c(N([H])[H])nc([H])nc21


 31 33  0  0  0  0  0  0  0  0999 V2000
   24.8867    7.8670   53.2017 C   0  0  0  0  0  0  0  0  0  0  0  0
   23.8017    8.5999   52.7163 O   0  0  0  0  0  0  0  0  0  0  0  0
   22.9613    7.5446   53.0011 C   0  0  0  0  0  0  0  0  0  0  0  0
   24.0821    6.6154   53.3427 C   0  0  0  0  0  0  0  0  0  0  0  0
   24.0279    6.0421   54.5979 O   0  0  0  0  0  0  0  0  0  0  0  0
   23.8932    5.0616   54.5392 H   0  0  0  0  0  0  0  0  0  0  0  0
   28.3791    9.7723   57.7205 N   0  0  0  0  0  0  0  0  0  0  0  0
   28.1940    9.1330   56.4755 C   0  0  0  0  0  0  0  0  0  0  0  0
   29.2200    8.6093   55.7799 N   0  0  0  0  0  0  0  0  0  0  0  0
   29.0683    8.0043   54.6082 C   0  0  0  0  0  0  0  0  0  0  0  0
   27.8484    7.8995   54.0769 N   0  0  0  0  0  0  0  0  0  0  0  0
   26.7545    8.3987   54.7082 C   0  0  0  0  0  0  0  0  0  0  0  0
   25.4480    8.4203   54.3891 N   0  0  0  0  0  0  0  0  0  0  0  0
   24.8346    9.0460   55.3889 C   0  0  0  0  0  0  0  0  0  0  0  0
   25.7305    9.4213   56.3361 N   0  0  0  0  0  0  0  0  0  0  0  0
   26.9270    9.0201   55.9162 C   0  0  0  0  0  0  0  0  0  0  0  0
   28.8727    9.2360   58.4808 H   0  0  0  0  0  0  0  0  0  0  0  0
   28.0306   10.7462   57.8634 H   0  0  0  0  0  0  0  0  0  0  0  0
   22.2468    7.0862   51.7263 C   0  0  0  0  0  0  0  0  0  0  0  0
   20.9157    7.4820   51.8491 O   0  0  0  0  0  0  0  0  0  0  0  0
   20.3114    7.1107   53.3773 P   0  0  0  0  0  0  0  0  0  0  0  0
   20.1649    5.4320   53.5163 O   0  0  0  0  0  0  0  0  0  0  0  0
   18.9254    7.7034   53.5339 O   0  0  0  0  0  0  0  0  0  0  0  0
   20.0775    5.0135   52.6227 H   0  0  0  0  0  0  0  0  0  0  0  0
   21.3405    7.6382   54.6060 O   0  0  0  0  0  0  0  0  0  0  0  0
   21.2137    9.2962   54.8638 P   0  0  0  0  0  0  0  0  0  0  0  0
   21.1764   10.0699   53.3696 O   0  0  0  0  0  0  0  0  0  0  0  0
   22.5887    9.8421   55.6942 O   0  0  0  0  0  0  0  0  0  0  0  0
   19.9939    9.6530   55.6749 O   0  0  0  0  0  0  0  0  0  0  0  0
   22.0282   10.5386   53.1683 H   0  0  0  0  0  0  0  0  0  0  0  0
   23.3775    9.2606   55.5096 H   0  0  0  0  0  0  0  0  0  0  0  0
  7  8  1  0  0  0
  8  9  2  0  0  0
  9 10  1  0  0  0
 10 11  2  0  0  0
 11 12  1  0  0  0
 12 13  1  0  0  0
 13 14  1  0  0  0
 14 15  2  0  0  0
 15 16  1  0  0  0
 13  1  1  0  0  0
  1  2  1  0  0  0
  2  3  1  0  0  0
  3 19  1  0  0  0
 19 20  1  0  0  0
 20 21  1  0  0  0
 21 22  1  0  0  0
 21 23  2  0  0  0
 21 25  1  0  0  0
 25 26  1  0  0  0
 26 27  1  0  0  0
 26 28  1  0  0  0
 26 29  2  0  0  0
  3  4  1  0  0  0
  4  5  1  0  0  0
 16  8  1  0  0  0
  4  1  1  0  0  0
 16 12  2  0  0  0
  7 17  1  0  0  0
  7 18  1  0  0  0
 22 24  1  0  0  0
 27 30  1  0  0  0
 28 31  1  0  0  0
  5  6  1  0  0  0
M  END
> <minimizedAffinity>
3.92270

> <CNNscore>
0.4797271788

> <CNNaffinity>
5.4848108292

> <CNN_VS>
2.6312127113

> <CNNaffinity_variance>
0.1785780191

$$$$
[H]O[C@@]1([H])[C@]([H])(C([H])([H])OP(=O)(O[H])OP(=O)(O[H])O[H])O[C@@]1([H])n1c([H])nc2c(N([H])[H])nc([H])nc21


 31 33  0  0  0  0  0  0  0  0999 V2000
   21.1372    5.1721   53.6036 C   0  0  0  0  0  0  0  0  0  0  0  0
   21.4451    5.3571   54.9531 O   0  0  0  0  0  0  0  0  0  0  0  0
   21.0236    6.6673   54.8699 C   0  0  0  0  0  0  0  0  0  0  0  0
   20.8624    6.6247   53.3837 C   0  0  0  0  0  0  0  0  0  0  0  0
   19.6122    6.9614   52.9035 O   0  0  0  0  0  0  0  0  0  0  0  0
   19.6437    7.8016   52.3780 H   0  0  0  0  0  0  0  0  0  0  0  0
   15.8556    2.3112   53.1958 N   0  0  0  0  0  0  0  0  0  0  0  0
   16.6371    3.4395   53.5262 C   0  0  0  0  0  0  0  0  0  0  0  0
   16.0948    4.5642   54.0280 N   0  0  0  0  0  0  0  0  0  0  0  0
   16.8108    5.6359   54.3452 C   0  0  0  0  0  0  0  0  0  0  0  0
   18.1333    5.6181   54.1660 N   0  0  0  0  0  0  0  0  0  0  0  0
   18.7666    4.5261   53.6650 C   0  0  0  0  0  0  0  0  0  0  0  0
   20.0583    4.2643   53.3963 N   0  0  0  0  0  0  0  0  0  0  0  0
   20.0913    3.0248   52.9170 C   0  0  0  0  0  0  0  0  0  0  0  0
   18.8421    2.4968   52.8774 N   0  0  0  0  0  0  0  0  0  0  0  0
   18.0144    3.4283   53.3424 C   0  0  0  0  0  0  0  0  0  0  0  0
   15.2332    1.9073   53.9434 H   0  0  0  0  0  0  0  0  0  0  0  0
   15.9068    1.9046   52.2354 H   0  0  0  0  0  0  0  0  0  0  0  0
   22.1645    7.6098   55.2644 C   0  0  0  0  0  0  0  0  0  0  0  0
   23.3285    7.0857   54.7040 O   0  0  0  0  0  0  0  0  0  0  0  0
   23.8133    7.9836   53.3634 P   0  0  0  0  0  0  0  0  0  0  0  0
   23.0747    7.3482   51.9814 O   0  0  0  0  0  0  0  0  0  0  0  0
   25.3120    7.8539   53.1793 O   0  0  0  0  0  0  0  0  0  0  0  0
   22.8315    6.3981   52.1204 H   0  0  0  0  0  0  0  0  0  0  0  0
   23.3543    9.6022   53.4908 O   0  0  0  0  0  0  0  0  0  0  0  0
   21.8452    9.8839   52.8016 P   0  0  0  0  0  0  0  0  0  0  0  0
   20.6696    9.7008   53.9920 O   0  0  0  0  0  0  0  0  0  0  0  0
   21.5504    8.7220   51.6012 O   0  0  0  0  0  0  0  0  0  0  0  0
   21.7541   11.2517   52.1740 O   0  0  0  0  0  0  0  0  0  0  0  0
   20.1532    8.8598   53.8833 H   0  0  0  0  0  0  0  0  0  0  0  0
   22.0440    7.8758   51.7875 H   0  0  0  0  0  0  0  0  0  0  0  0
  7  8  1  0  0  0
  8  9  2  0  0  0
  9 10  1  0  0  0
 10 11  2  0  0  0
 11 12  1  0  0  0
 12 13  1  0  0  0
 13 14  1  0  0  0
 14 15  2  0  0  0
 15 16  1  0  0  0
 13  1  1  0  0  0
  1  2  1  0  0  0
  2  3  1  0  0  0
  3 19  1  0  0  0
 19 20  1  0  0  0
 20 21  1  0  0  0
 21 22  1  0  0  0
 21 23  2  0  0  0
 21 25  1  0  0  0
 25 26  1  0  0  0
 26 27  1  0  0  0
 26 28  1  0  0  0
 26 29  2  0  0  0
  3  4  1  0  0  0
  4  5  1  0  0  0
 16  8  1  0  0  0
  4  1  1  0  0  0
 16 12  2  0  0  0
  7 17  1  0  0  0
  7 18  1  0  0  0
 22 24  1  0  0  0
 27 30  1  0  0  0
 28 31  1  0  0  0
  5  6  1  0  0  0
M  END
> <minimizedAffinity>
21.01914

> <CNNscore>
0.4450502396

> <CNNaffinity>
5.5080986023

> <CNN_VS>
2.4513804913

> <CNNaffinity_variance>
0.3937091827

$$$$
[H]c1c([H])c([H])c2c(c1[H])N=C(N1C([H])([H])C([H])([H])N(C([H])([H])[H])C([H])([H])C1([H])[H])c1c([H])c(F)c([H])c([H])c1S2


 23 26  0  0  0  0  0  0  0  0999 V2000
   24.1325    8.7604   55.0802 C   0  0  0  0  0  0  0  0  0  0  0  0
   24.9809    9.4386   55.7608 N   0  0  0  0  0  0  0  0  0  0  0  0
   26.3598    9.3449   55.9346 C   0  0  0  0  0  0  0  0  0  0  0  0
   26.7641    9.8799   57.1645 C   0  0  0  0  0  0  0  0  0  0  0  0
   28.0705    9.8988   57.5486 C   0  0  0  0  0  0  0  0  0  0  0  0
   29.0296    9.3762   56.7047 C   0  0  0  0  0  0  0  0  0  0  0  0
   28.6626    8.8499   55.5031 C   0  0  0  0  0  0  0  0  0  0  0  0
   27.3411    8.8436   55.1412 C   0  0  0  0  0  0  0  0  0  0  0  0
   27.1026    8.0988   53.5259 S   0  0  0  0  0  0  0  0  0  0  0  0
   25.5419    7.2213   53.5463 C   0  0  0  0  0  0  0  0  0  0  0  0
   25.6413    6.0913   52.7764 C   0  0  0  0  0  0  0  0  0  0  0  0
   24.5312    5.2814   52.6810 C   0  0  0  0  0  0  0  0  0  0  0  0
   23.3768    5.6264   53.3503 C   0  0  0  0  0  0  0  0  0  0  0  0
   22.2440    4.8531   53.2874 F   0  0  0  0  0  0  0  0  0  0  0  0
   23.3149    6.7867   54.1252 C   0  0  0  0  0  0  0  0  0  0  0  0
   24.4158    7.6115   54.2336 C   0  0  0  0  0  0  0  0  0  0  0  0
   18.9747    8.3779   53.9681 C   0  0  0  0  0  0  0  0  0  0  0  0
   20.3655    8.5706   54.2330 N   0  0  0  0  0  0  0  0  0  0  0  0
   20.7365    7.8448   55.4065 C   0  0  0  0  0  0  0  0  0  0  0  0
   21.9055    8.5127   56.0987 C   0  0  0  0  0  0  0  0  0  0  0  0
   22.7672    9.1480   55.1373 N   0  0  0  0  0  0  0  0  0  0  0  0
   22.2252   10.1462   54.2567 C   0  0  0  0  0  0  0  0  0  0  0  0
   20.7193    9.9724   54.2589 C   0  0  0  0  0  0  0  0  0  0  0  0
 17 18  1  0  0  0
 18 19  1  0  0  0
 19 20  1  0  0  0
 20 21  1  0  0  0
 21 22  1  0  0  0
 22 23  1  0  0  0
 21  1  1  0  0  0
  1  2  2  0  0  0
  2  3  1  0  0  0
  3  4  2  0  0  0
  4  5  1  0  0  0
  5  6  2  0  0  0
  6  7  1  0  0  0
  7  8  2  0  0  0
  8  9  1  0  0  0
  9 10  1  0  0  0
 10 11  2  0  0  0
 11 12  1  0  0  0
 12 13  2  0  0  0
 13 14  1  0  0  0
 13 15  1  0  0  0
 15 16  2  0  0  0
 23 18  1  0  0  0
 16  1  1  0  0  0
  8  3  1  0  0  0
 16 10  1  0  0  0
M  END
> <minimizedAffinity>
29.75831

> <CNNscore>
0.5434754491

> <CNNaffinity>
5.7847051620

> <CNN_VS>
3.1438453197

> <CNNaffinity_variance>
0.4925943315

$$$$
[H]c1c([H])c([H])c2c(c1[H])N=C(N1C([H])([H])C([H])([H])N(C([H])([H])[H])C([H])([H])C1([H])[H])c1c([H])c(F)c([H])c([H])c1S2


 23 26  0  0  0  0  0  0  0  0999 V2000
   25.0792    9.3563   55.8201 C   0  0  0  0  0  0  0  0  0  0  0  0
   23.8752    9.7735   55.6802 N   0  0  0  0  0  0  0  0  0  0  0  0
   22.8945    9.5549   54.7156 C   0  0  0  0  0  0  0  0  0  0  0  0
   21.9914   10.6235   54.6442 C   0  0  0  0  0  0  0  0  0  0  0  0
   20.9456   10.6271   53.7719 C   0  0  0  0  0  0  0  0  0  0  0  0
   20.7651    9.5482   52.9302 C   0  0  0  0  0  0  0  0  0  0  0  0
   21.6293    8.4964   52.9798 C   0  0  0  0  0  0  0  0  0  0  0  0
   22.6732    8.5183   53.8670 C   0  0  0  0  0  0  0  0  0  0  0  0
   23.6735    7.0331   53.7461 S   0  0  0  0  0  0  0  0  0  0  0  0
   25.3782    7.4879   54.0517 C   0  0  0  0  0  0  0  0  0  0  0  0
   26.2042    6.7195   53.2727 C   0  0  0  0  0  0  0  0  0  0  0  0
   27.5610    6.9373   53.3692 C   0  0  0  0  0  0  0  0  0  0  0  0
   28.0364    7.9029   54.2300 C   0  0  0  0  0  0  0  0  0  0  0  0
   29.3789    8.1582   54.3625 F   0  0  0  0  0  0  0  0  0  0  0  0
   27.1622    8.6657   55.0077 C   0  0  0  0  0  0  0  0  0  0  0  0
   25.7997    8.4629   54.9259 C   0  0  0  0  0  0  0  0  0  0  0  0
   29.3741   10.9988   58.4359 C   0  0  0  0  0  0  0  0  0  0  0  0
   28.2066   10.4835   57.7932 N   0  0  0  0  0  0  0  0  0  0  0  0
   27.4536   11.5593   57.2299 C   0  0  0  0  0  0  0  0  0  0  0  0
   25.9827   11.2058   57.1697 C   0  0  0  0  0  0  0  0  0  0  0  0
   25.8100    9.7933   56.9571 N   0  0  0  0  0  0  0  0  0  0  0  0
   26.3869    8.8646   57.8900 C   0  0  0  0  0  0  0  0  0  0  0  0
   27.4494    9.6159   58.6676 C   0  0  0  0  0  0  0  0  0  0  0  0
 17 18  1  0  0  0
 18 19  1  0  0  0
 19 20  1  0  0  0
 20 21  1  0  0  0
 21 22  1  0  0  0
 22 23  1  0  0  0
 21  1  1  0  0  0
  1  2  2  0  0  0
  2  3  1  0  0  0
  3  4  2  0  0  0
  4  5  1  0  0  0
  5  6  2  0  0  0
  6  7  1  0  0  0
  7  8  2  0  0  0
  8  9  1  0  0  0
  9 10  1  0  0  0
 10 11  2  0  0  0
 11 12  1  0  0  0
 12 13  2  0  0  0
 13 14  1  0  0  0
 13 15  1  0  0  0
 15 16  2  0  0  0
 23 18  1  0  0  0
 16  1  1  0  0  0
  8  3  1  0  0  0
 16 10  1  0  0  0
M  END
> <minimizedAffinity>
31.55166

> <CNNscore>
0.5187150240

> <CNNaffinity>
5.4620776176

> <CNN_VS>
2.8332617283

> <CNNaffinity_variance>
0.6112052798

$$$$
[H]c1c([H])c([H])c2c(c1[H])N=C(N1C([H])([H])C([H])([H])N(C([H])([H])[H])C([H])([H])C1([H])[H])c1c([H])c(F)c([H])c([H])c1S2


 23 26  0  0  0  0  0  0  0  0999 V2000
   24.0065    7.5061   53.9736 C   0  0  0  0  0  0  0  0  0  0  0  0
   25.2552    7.2443   54.0972 N   0  0  0  0  0  0  0  0  0  0  0  0
   26.3344    7.9580   54.6131 C   0  0  0  0  0  0  0  0  0  0  0  0
   27.5444    7.5600   54.0299 C   0  0  0  0  0  0  0  0  0  0  0  0
   28.7342    8.1205   54.3830 C   0  0  0  0  0  0  0  0  0  0  0  0
   28.7547    9.1113   55.3439 C   0  0  0  0  0  0  0  0  0  0  0  0
   27.5919    9.5164   55.9262 C   0  0  0  0  0  0  0  0  0  0  0  0
   26.4085    8.9356   55.5525 C   0  0  0  0  0  0  0  0  0  0  0  0
   25.0189    9.6327   56.4490 S   0  0  0  0  0  0  0  0  0  0  0  0
   23.6094    9.6669   55.3453 C   0  0  0  0  0  0  0  0  0  0  0  0
   22.8511   10.7793   55.6044 C   0  0  0  0  0  0  0  0  0  0  0  0
   21.7221   10.9771   54.8405 C   0  0  0  0  0  0  0  0  0  0  0  0
   21.3964   10.0673   53.8579 C   0  0  0  0  0  0  0  0  0  0  0  0
   20.2822   10.2192   53.0700 F   0  0  0  0  0  0  0  0  0  0  0  0
   22.1948    8.9454   53.6241 C   0  0  0  0  0  0  0  0  0  0  0  0
   23.3298    8.7289   54.3785 C   0  0  0  0  0  0  0  0  0  0  0  0
   19.5274    4.7703   53.3110 C   0  0  0  0  0  0  0  0  0  0  0  0
   20.7820    5.4256   53.5058 N   0  0  0  0  0  0  0  0  0  0  0  0
   20.8496    6.5900   52.6804 C   0  0  0  0  0  0  0  0  0  0  0  0
   22.2857    6.9047   52.3196 C   0  0  0  0  0  0  0  0  0  0  0  0
   23.1716    6.5187   53.3857 N   0  0  0  0  0  0  0  0  0  0  0  0
   23.1820    5.1530   53.8334 C   0  0  0  0  0  0  0  0  0  0  0  0
   21.8947    4.5155   53.3496 C   0  0  0  0  0  0  0  0  0  0  0  0
 17 18  1  0  0  0
 18 19  1  0  0  0
 19 20  1  0  0  0
 20 21  1  0  0  0
 21 22  1  0  0  0
 22 23  1  0  0  0
 21  1  1  0  0  0
  1  2  2  0  0  0
  2  3  1  0  0  0
  3  4  2  0  0  0
  4  5  1  0  0  0
  5  6  2  0  0  0
  6  7  1  0  0  0
  7  8  2  0  0  0
  8  9  1  0  0  0
  9 10  1  0  0  0
 10 11  2  0  0  0
 11 12  1  0  0  0
 12 13  2  0  0  0
 13 14  1  0  0  0
 13 15  1  0  0  0
 15 16  2  0  0  0
 23 18  1  0  0  0
 16  1  1  0  0  0
  8  3  1  0  0  0
 16 10  1  0  0  0
M  END
> <minimizedAffinity>
18.14550

> <CNNscore>
0.4881199300

> <CNNaffinity>
5.7913603783

> <CNN_VS>
2.8268783092

> <CNNaffinity_variance>
0.5002534986

$$$$
[H]c1c([H])c([H])c2c(c1[H])N=C(N1C([H])([H])C([H])([H])N(C([H])([H])[H])C([H])([H])C1([H])[H])c1c([H])c(F)c([H])c([H])c1S2


 23 26  0  0  0  0  0  0  0  0999 V2000
   23.6375    8.9857   54.5154 C   0  0  0  0  0  0  0  0  0  0  0  0
   24.6097    9.6028   55.0788 N   0  0  0  0  0  0  0  0  0  0  0  0
   25.9068    9.2296   55.4227 C   0  0  0  0  0  0  0  0  0  0  0  0
   26.3927    9.9804   56.5010 C   0  0  0  0  0  0  0  0  0  0  0  0
   27.6421    9.7897   57.0081 C   0  0  0  0  0  0  0  0  0  0  0  0
   28.4589    8.8289   56.4467 C   0  0  0  0  0  0  0  0  0  0  0  0
   28.0102    8.0854   55.3973 C   0  0  0  0  0  0  0  0  0  0  0  0
   26.7487    8.2977   54.9064 C   0  0  0  0  0  0  0  0  0  0  0  0
   26.3812    7.2014   53.5340 S   0  0  0  0  0  0  0  0  0  0  0  0
   24.6440    6.7753   53.6161 C   0  0  0  0  0  0  0  0  0  0  0  0
   24.4686    5.4830   53.1933 C   0  0  0  0  0  0  0  0  0  0  0  0
   23.1877    4.9762   53.1964 C   0  0  0  0  0  0  0  0  0  0  0  0
   22.1422    5.7698   53.6167 C   0  0  0  0  0  0  0  0  0  0  0  0
   20.8480    5.3119   53.6385 F   0  0  0  0  0  0  0  0  0  0  0  0
   22.3616    7.0826   54.0403 C   0  0  0  0  0  0  0  0  0  0  0  0
   23.6371    7.6090   54.0446 C   0  0  0  0  0  0  0  0  0  0  0  0
   20.6136   12.9289   52.7006 C   0  0  0  0  0  0  0  0  0  0  0  0
   21.3982   11.8842   53.2791 N   0  0  0  0  0  0  0  0  0  0  0  0
   21.5117   10.8002   52.3552 C   0  0  0  0  0  0  0  0  0  0  0  0
   21.6944    9.4899   53.0911 C   0  0  0  0  0  0  0  0  0  0  0  0
   22.4228    9.6942   54.3151 N   0  0  0  0  0  0  0  0  0  0  0  0
   21.9108   10.6128   55.2946 C   0  0  0  0  0  0  0  0  0  0  0  0
   20.9119   11.5074   54.5877 C   0  0  0  0  0  0  0  0  0  0  0  0
 17 18  1  0  0  0
 18 19  1  0  0  0
 19 20  1  0  0  0
 20 21  1  0  0  0
 21 22  1  0  0  0
 22 23  1  0  0  0
 21  1  1  0  0  0
  1  2  2  0  0  0
  2  3  1  0  0  0
  3  4  2  0  0  0
  4  5  1  0  0  0
  5  6  2  0  0  0
  6  7  1  0  0  0
  7  8  2  0  0  0
  8  9  1  0  0  0
  9 10  1  0  0  0
 10 11  2  0  0  0
 11 12  1  0  0  0
 12 13  2  0  0  0
 13 14  1  0  0  0
 13 15  1  0  0  0
 15 16  2  0  0  0
 23 18  1  0  0  0
 16  1  1  0  0  0
  8  3  1  0  0  0
 16 10  1  0  0  0
M  END
> <minimizedAffinity>
23.02939

> <CNNscore>
0.4636123478

> <CNNaffinity>
5.6848287582

> <CNN_VS>
2.6355566978

> <CNNaffinity_variance>
0.2215521783

$$$$
[H]c1c([H])c([H])c2c(c1[H])N=C(N1C([H])([H])C([H])([H])N(C([H])([H])[H])C([H])([H])C1([H])[H])c1c([H])c(F)c([H])c([H])c1S2


 23 26  0  0  0  0  0  0  0  0999 V2000
   25.7394    8.3576   53.1638 C   0  0  0  0  0  0  0  0  0  0  0  0
   26.1088    8.6010   51.9607 N   0  0  0  0  0  0  0  0  0  0  0  0
   27.1920    9.2850   51.4138 C   0  0  0  0  0  0  0  0  0  0  0  0
   26.8948    9.7937   50.1429 C   0  0  0  0  0  0  0  0  0  0  0  0
   27.8066   10.4970   49.4159 C   0  0  0  0  0  0  0  0  0  0  0  0
   29.0633   10.7184   49.9423 C   0  0  0  0  0  0  0  0  0  0  0  0
   29.3775   10.2343   51.1761 C   0  0  0  0  0  0  0  0  0  0  0  0
   28.4412    9.5298   51.8864 C   0  0  0  0  0  0  0  0  0  0  0  0
   29.0806    9.0004   53.4774 S   0  0  0  0  0  0  0  0  0  0  0  0
   27.7364    9.0533   54.6592 C   0  0  0  0  0  0  0  0  0  0  0  0
   28.2191    9.4294   55.8860 C   0  0  0  0  0  0  0  0  0  0  0  0
   27.3196    9.5328   56.9241 C   0  0  0  0  0  0  0  0  0  0  0  0
   25.9873    9.2598   56.7008 C   0  0  0  0  0  0  0  0  0  0  0  0
   25.0516    9.3482   57.7018 F   0  0  0  0  0  0  0  0  0  0  0  0
   25.5340    8.8791   55.4357 C   0  0  0  0  0  0  0  0  0  0  0  0
   26.4189    8.7696   54.3826 C   0  0  0  0  0  0  0  0  0  0  0  0
   21.4501    6.7476   55.8088 C   0  0  0  0  0  0  0  0  0  0  0  0
   22.6355    7.0903   55.0884 N   0  0  0  0  0  0  0  0  0  0  0  0
   22.3872    8.2356   54.2709 C   0  0  0  0  0  0  0  0  0  0  0  0
   23.2842    8.2243   53.0514 C   0  0  0  0  0  0  0  0  0  0  0  0
   24.5481    7.6090   53.3585 N   0  0  0  0  0  0  0  0  0  0  0  0
   24.5726    6.2629   53.8617 C   0  0  0  0  0  0  0  0  0  0  0  0
   23.1813    5.9549   54.3787 C   0  0  0  0  0  0  0  0  0  0  0  0
 17 18  1  0  0  0
 18 19  1  0  0  0
 19 20  1  0  0  0
 20 21  1  0  0  0
 21 22  1  0  0  0
 22 23  1  0  0  0
 21  1  1  0  0  0
  1  2  2  0  0  0
  2  3  1  0  0  0
  3  4  2  0  0  0
  4  5  1  0  0  0
  5  6  2  0  0  0
  6  7  1  0  0  0
  7  8  2  0  0  0
  8  9  1  0  0  0
  9 10  1  0  0  0
 10 11  2  0  0  0
 11 12  1  0  0  0
 12 13  2  0  0  0
 13 14  1  0  0  0
 13 15  1  0  0  0
 15 16  2  0  0  0
 23 18  1  0  0  0
 16  1  1  0  0  0
  8  3  1  0  0  0
 16 10  1  0  0  0
M  END
> <minimizedAffinity>
42.53315

> <CNNscore>
0.4584487975

> <CNNaffinity>
5.4557137489

> <CNN_VS>
2.5011653900

> <CNNaffinity_variance>
0.3051086068

$$$$
[H]c1c([H])c([H])c2c(c1[H])N=C(N1C([H])([H])C([H])([H])N(C([H])([H])[H])C([H])([H])C1([H])[H])c1c([H])c(F)c([H])c([H])c1S2


 23 26  0  0  0  0  0  0  0  0999 V2000
   23.0920    7.3221   53.6160 C   0  0  0  0  0  0  0  0  0  0  0  0
   24.2473    7.0284   54.0876 N   0  0  0  0  0  0  0  0  0  0  0  0
   25.2818    7.7909   54.6247 C   0  0  0  0  0  0  0  0  0  0  0  0
   26.5244    7.1644   54.4630 C   0  0  0  0  0  0  0  0  0  0  0  0
   27.6798    7.7264   54.9144 C   0  0  0  0  0  0  0  0  0  0  0  0
   27.6313    8.9500   55.5512 C   0  0  0  0  0  0  0  0  0  0  0  0
   26.4356    9.5800   55.7211 C   0  0  0  0  0  0  0  0  0  0  0  0
   25.2880    8.9924   55.2573 C   0  0  0  0  0  0  0  0  0  0  0  0
   23.8456   10.0068   55.5907 S   0  0  0  0  0  0  0  0  0  0  0  0
   22.7027    9.8088   54.2266 C   0  0  0  0  0  0  0  0  0  0  0  0
   22.0541   10.9944   53.9962 C   0  0  0  0  0  0  0  0  0  0  0  0
   21.1359   11.0335   52.9702 C   0  0  0  0  0  0  0  0  0  0  0  0
   20.9024    9.9002   52.2214 C   0  0  0  0  0  0  0  0  0  0  0  0
   19.9977    9.8875   51.1887 F   0  0  0  0  0  0  0  0  0  0  0  0
   21.5838    8.7102   52.4873 C   0  0  0  0  0  0  0  0  0  0  0  0
   22.5074    8.6502   53.5108 C   0  0  0  0  0  0  0  0  0  0  0  0
   18.8887    4.1099   53.6377 C   0  0  0  0  0  0  0  0  0  0  0  0
   20.0798    4.8992   53.6353 N   0  0  0  0  0  0  0  0  0  0  0  0
   19.8689    6.0856   52.8674 C   0  0  0  0  0  0  0  0  0  0  0  0
   21.1721    6.5725   52.2705 C   0  0  0  0  0  0  0  0  0  0  0  0
   22.2749    6.2618   53.1410 N   0  0  0  0  0  0  0  0  0  0  0  0
   22.5143    4.8947   53.5142 C   0  0  0  0  0  0  0  0  0  0  0  0
   21.2364    4.1271   53.2392 C   0  0  0  0  0  0  0  0  0  0  0  0
 17 18  1  0  0  0
 18 19  1  0  0  0
 19 20  1  0  0  0
 20 21  1  0  0  0
 21 22  1  0  0  0
 22 23  1  0  0  0
 21  1  1  0  0  0
  1  2  2  0  0  0
  2  3  1  0  0  0
  3  4  2  0  0  0
  4  5  1  0  0  0
  5  6  2  0  0  0
  6  7  1  0  0  0
  7  8  2  0  0  0
  8  9  1  0  0  0
  9 10  1  0  0  0
 10 11  2  0  0  0
 11 12  1  0  0  0
 12 13  2  0  0  0
 13 14  1  0  0  0
 13 15  1  0  0  0
 15 16  2  0  0  0
 23 18  1  0  0  0
 16  1  1  0  0  0
  8  3  1  0  0  0
 16 10  1  0  0  0
M  END
> <minimizedAffinity>
22.33777

> <CNNscore>
0.4302222729

> <CNNaffinity>
5.8160371780

> <CNN_VS>
2.5021886826

> <CNNaffinity_variance>
0.6232743263

$$$$
[H]c1c([H])c([H])c2c(c1[H])N=C(N1C([H])([H])C([H])([H])N(C([H])([H])[H])C([H])([H])C1([H])[H])c1c([H])c(F)c([H])c([H])c1S2


 23 26  0  0  0  0  0  0  0  0999 V2000
   24.5871    8.2912   54.5852 C   0  0  0  0  0  0  0  0  0  0  0  0
   23.9687    9.3640   54.9165 N   0  0  0  0  0  0  0  0  0  0  0  0
   22.6207    9.7093   54.9781 C   0  0  0  0  0  0  0  0  0  0  0  0
   22.4318   11.0882   54.8182 C   0  0  0  0  0  0  0  0  0  0  0  0
   21.1937   11.6548   54.8458 C   0  0  0  0  0  0  0  0  0  0  0  0
   20.0879   10.8510   55.0368 C   0  0  0  0  0  0  0  0  0  0  0  0
   20.2445    9.5072   55.1949 C   0  0  0  0  0  0  0  0  0  0  0  0
   21.5015    8.9629   55.1629 C   0  0  0  0  0  0  0  0  0  0  0  0
   21.4562    7.1830   55.3877 S   0  0  0  0  0  0  0  0  0  0  0  0
   22.7597    6.4661   54.3913 C   0  0  0  0  0  0  0  0  0  0  0  0
   22.3461    5.2560   53.8972 C   0  0  0  0  0  0  0  0  0  0  0  0
   23.2222    4.5582   53.0953 C   0  0  0  0  0  0  0  0  0  0  0  0
   24.4640    5.0888   52.8202 C   0  0  0  0  0  0  0  0  0  0  0  0
   25.3729    4.4330   52.0270 F   0  0  0  0  0  0  0  0  0  0  0  0
   24.8489    6.3256   53.3429 C   0  0  0  0  0  0  0  0  0  0  0  0
   23.9861    7.0403   54.1484 C   0  0  0  0  0  0  0  0  0  0  0  0
   29.3769   10.4841   55.0702 C   0  0  0  0  0  0  0  0  0  0  0  0
   28.1119    9.8558   54.8548 N   0  0  0  0  0  0  0  0  0  0  0  0
   27.5544    9.4551   56.1079 C   0  0  0  0  0  0  0  0  0  0  0  0
   26.6490    8.2550   55.9289 C   0  0  0  0  0  0  0  0  0  0  0  0
   26.0064    8.2933   54.6421 N   0  0  0  0  0  0  0  0  0  0  0  0
   26.8125    8.3429   53.4533 C   0  0  0  0  0  0  0  0  0  0  0  0
   28.1963    8.7989   53.8716 C   0  0  0  0  0  0  0  0  0  0  0  0
 17 18  1  0  0  0
 18 19  1  0  0  0
 19 20  1  0  0  0
 20 21  1  0  0  0
 21 22  1  0  0  0
 22 23  1  0  0  0
 21  1  1  0  0  0
  1  2  2  0  0  0
  2  3  1  0  0  0
  3  4  2  0  0  0
  4  5  1  0  0  0
  5  6  2  0  0  0
  6  7  1  0  0  0
  7  8  2  0  0  0
  8  9  1  0  0  0
  9 10  1  0  0  0
 10 11  2  0  0  0
 11 12  1  0  0  0
 12 13  2  0  0  0
 13 14  1  0  0  0
 13 15  1  0  0  0
 15 16  2  0  0  0
 23 18  1  0  0  0
 16  1  1  0  0  0
  8  3  1  0  0  0
 16 10  1  0  0  0
M  END
> <minimizedAffinity>
29.51294

> <CNNscore>
0.4266703129

> <CNNaffinity>
5.4398889542

> <CNN_VS>
2.3210391998

> <CNNaffinity_variance>
0.2468678057

$$$$
[H]c1c([H])c([H])c2c(c1[H])N=C(N1C([H])([H])C([H])([H])N(C([H])([H])[H])C([H])([H])C1([H])[H])c1c([H])c(F)c([H])c([H])c1S2


 23 26  0  0  0  0  0  0  0  0999 V2000
   23.4176    7.3712   53.6949 C   0  0  0  0  0  0  0  0  0  0  0  0
   22.8656    6.2528   53.3988 N   0  0  0  0  0  0  0  0  0  0  0  0
   21.5411    5.8242   53.3514 C   0  0  0  0  0  0  0  0  0  0  0  0
   21.4368    4.4421   53.5548 C   0  0  0  0  0  0  0  0  0  0  0  0
   20.2355    3.8006   53.5479 C   0  0  0  0  0  0  0  0  0  0  0  0
   19.0827    4.5290   53.3346 C   0  0  0  0  0  0  0  0  0  0  0  0
   19.1570    5.8743   53.1342 C   0  0  0  0  0  0  0  0  0  0  0  0
   20.3785    6.4949   53.1460 C   0  0  0  0  0  0  0  0  0  0  0  0
   20.2245    8.2607   52.8657 S   0  0  0  0  0  0  0  0  0  0  0  0
   21.4824    9.0867   53.8360 C   0  0  0  0  0  0  0  0  0  0  0  0
   20.9960   10.2843   54.2930 C   0  0  0  0  0  0  0  0  0  0  0  0
   21.8283   11.0590   55.0706 C   0  0  0  0  0  0  0  0  0  0  0  0
   23.1003   10.6139   55.3591 C   0  0  0  0  0  0  0  0  0  0  0  0
   23.9679   11.3485   56.1292 F   0  0  0  0  0  0  0  0  0  0  0  0
   23.5597    9.3872   54.8745 C   0  0  0  0  0  0  0  0  0  0  0  0
   22.7417    8.5963   54.0939 C   0  0  0  0  0  0  0  0  0  0  0  0
   28.1898    9.2031   55.0574 C   0  0  0  0  0  0  0  0  0  0  0  0
   26.9208    8.7332   54.5986 N   0  0  0  0  0  0  0  0  0  0  0  0
   26.5108    7.6120   55.3837 C   0  0  0  0  0  0  0  0  0  0  0  0
   25.6140    6.6966   54.5777 C   0  0  0  0  0  0  0  0  0  0  0  0
   24.8344    7.4538   53.6347 N   0  0  0  0  0  0  0  0  0  0  0  0
   25.5050    8.2783   52.6672 C   0  0  0  0  0  0  0  0  0  0  0  0
   26.9174    8.4986   53.1718 C   0  0  0  0  0  0  0  0  0  0  0  0
 17 18  1  0  0  0
 18 19  1  0  0  0
 19 20  1  0  0  0
 20 21  1  0  0  0
 21 22  1  0  0  0
 22 23  1  0  0  0
 21  1  1  0  0  0
  1  2  2  0  0  0
  2  3  1  0  0  0
  3  4  2  0  0  0
  4  5  1  0  0  0
  5  6  2  0  0  0
  6  7  1  0  0  0
  7  8  2  0  0  0
  8  9  1  0  0  0
  9 10  1  0  0  0
 10 11  2  0  0  0
 11 12  1  0  0  0
 12 13  2  0  0  0
 13 14  1  0  0  0
 13 15  1  0  0  0
 15 16  2  0  0  0
 23 18  1  0  0  0
 16  1  1  0  0  0
  8  3  1  0  0  0
 16 10  1  0  0  0
M  END
> <minimizedAffinity>
23.96639

> <CNNscore>
0.4173600674

> <CNNaffinity>
5.8404107094

> <CNN_VS>
2.4375541210

> <CNNaffinity_variance>
0.4066737592

$$$$
[H]c1c([H])c([H])c2c(c1[H])N=C(N1C([H])([H])C([H])([H])N(C([H])([H])[H])C([H])([H])C1([H])[H])c1c([H])c(F)c([H])c([H])c1S2


 23 26  0  0  0  0  0  0  0  0999 V2000
   21.5113    8.7919   52.6703 C   0  0  0  0  0  0  0  0  0  0  0  0
   21.3170    9.5972   51.6921 N   0  0  0  0  0  0  0  0  0  0  0  0
   21.3568   10.9846   51.5746 C   0  0  0  0  0  0  0  0  0  0  0  0
   20.5356   11.4397   50.5349 C   0  0  0  0  0  0  0  0  0  0  0  0
   20.4195   12.7627   50.2337 C   0  0  0  0  0  0  0  0  0  0  0  0
   21.1298   13.6878   50.9720 C   0  0  0  0  0  0  0  0  0  0  0  0
   21.9353   13.2711   51.9883 C   0  0  0  0  0  0  0  0  0  0  0  0
   22.0341   11.9339   52.2702 C   0  0  0  0  0  0  0  0  0  0  0  0
   23.1451   11.6296   53.6464 S   0  0  0  0  0  0  0  0  0  0  0  0
   22.5078   10.2373   54.5744 C   0  0  0  0  0  0  0  0  0  0  0  0
   22.7606   10.4218   55.9092 C   0  0  0  0  0  0  0  0  0  0  0  0
   22.3310    9.4476   56.7832 C   0  0  0  0  0  0  0  0  0  0  0  0
   21.6729    8.3385   56.2972 C   0  0  0  0  0  0  0  0  0  0  0  0
   21.2251    7.3401   57.1266 F   0  0  0  0  0  0  0  0  0  0  0  0
   21.4342    8.1866   54.9294 C   0  0  0  0  0  0  0  0  0  0  0  0
   21.8566    9.1509   54.0374 C   0  0  0  0  0  0  0  0  0  0  0  0
   19.8314    3.8702   53.6406 C   0  0  0  0  0  0  0  0  0  0  0  0
   20.3751    5.1655   53.3795 N   0  0  0  0  0  0  0  0  0  0  0  0
   19.4720    5.9097   52.5596 C   0  0  0  0  0  0  0  0  0  0  0  0
   20.2239    6.9211   51.7209 C   0  0  0  0  0  0  0  0  0  0  0  0
   21.3849    7.3986   52.4241 N   0  0  0  0  0  0  0  0  0  0  0  0
   22.3772    6.4578   52.8664 C   0  0  0  0  0  0  0  0  0  0  0  0
   21.7251    5.0893   52.8670 C   0  0  0  0  0  0  0  0  0  0  0  0
 17 18  1  0  0  0
 18 19  1  0  0  0
 19 20  1  0  0  0
 20 21  1  0  0  0
 21 22  1  0  0  0
 22 23  1  0  0  0
 21  1  1  0  0  0
  1  2  2  0  0  0
  2  3  1  0  0  0
  3  4  2  0  0  0
  4  5  1  0  0  0
  5  6  2  0  0  0
  6  7  1  0  0  0
  7  8  2  0  0  0
  8  9  1  0  0  0
  9 10  1  0  0  0
 10 11  2  0  0  0
 11 12  1  0  0  0
 12 13  2  0  0  0
 13 14  1  0  0  0
 13 15  1  0  0  0
 15 16  2  0  0  0
 23 18  1  0  0  0
 16  1  1  0  0  0
  8  3  1  0  0  0
 16 10  1  0  0  0
M  END
> <minimizedAffinity>
41.85685

> <CNNscore>
0.4170255363

> <CNNaffinity>
5.3266501427

> <CNN_VS>
2.2213492393

> <CNNaffinity_variance>
0.6565827131

$$$$
[H]c1c([H])c([H])c(/C(=C2/C(=O)N([H])c3c([H])c(C(=O)OC([H])([H])[H])c([H])c([H])c32)N([H])c2c([H])c([H])c(N(C(=O)C([H])([H])N3C([H])([H])C([H])([H])N(C([H])([H])[H])C([H])([H])C3([H])[H])C([H])([H])[H])c([H])c2[H])c([H])c1[H]


 42 46  0  0  0  0  0  0  0  0999 V2000
   18.9050    4.9010   53.6810 C   0  0  0  0  0  0  0  0  0  0  0  0
   18.9385    6.2492   53.4980 C   0  0  0  0  0  0  0  0  0  0  0  0
   20.1383    6.9564   53.3569 C   0  0  0  0  0  0  0  0  0  0  0  0
   21.3031    6.2391   53.4110 C   0  0  0  0  0  0  0  0  0  0  0  0
   22.6840    6.6675   53.2791 C   0  0  0  0  0  0  0  0  0  0  0  0
   23.1676    7.8779   53.1931 C   0  0  0  0  0  0  0  0  0  0  0  0
   23.4924    5.4167   53.3946 C   0  0  0  0  0  0  0  0  0  0  0  0
   24.7222    5.3284   53.3341 O   0  0  0  0  0  0  0  0  0  0  0  0
   22.6024    4.3295   53.5887 N   0  0  0  0  0  0  0  0  0  0  0  0
   21.2856    4.8580   53.5955 C   0  0  0  0  0  0  0  0  0  0  0  0
   20.0855    4.1934   53.7305 C   0  0  0  0  0  0  0  0  0  0  0  0
   22.8631    3.3064   53.7078 H   0  0  0  0  0  0  0  0  0  0  0  0
   22.4089    9.0762   53.3767 C   0  0  0  0  0  0  0  0  0  0  0  0
   22.0439    9.9753   52.4022 C   0  0  0  0  0  0  0  0  0  0  0  0
   21.4146   11.1609   52.6837 C   0  0  0  0  0  0  0  0  0  0  0  0
   21.1265   11.4865   53.9818 C   0  0  0  0  0  0  0  0  0  0  0  0
   21.4696   10.6232   54.9934 C   0  0  0  0  0  0  0  0  0  0  0  0
   22.0963    9.4452   54.6980 C   0  0  0  0  0  0  0  0  0  0  0  0
   17.6707    4.1423   53.8326 C   0  0  0  0  0  0  0  0  0  0  0  0
   17.6370    2.9020   53.9488 O   0  0  0  0  0  0  0  0  0  0  0  0
   15.2140    4.2523   53.8266 C   0  0  0  0  0  0  0  0  0  0  0  0
   16.4785    4.8617   53.8457 O   0  0  0  0  0  0  0  0  0  0  0  0
   24.5752    8.0149   53.0528 N   0  0  0  0  0  0  0  0  0  0  0  0
   24.9470    7.7434   52.0939 H   0  0  0  0  0  0  0  0  0  0  0  0
   25.4496    8.4702   54.0728 C   0  0  0  0  0  0  0  0  0  0  0  0
   24.9978    9.0474   55.2362 C   0  0  0  0  0  0  0  0  0  0  0  0
   25.8893    9.4839   56.2239 C   0  0  0  0  0  0  0  0  0  0  0  0
   27.2428    9.3393   56.0411 C   0  0  0  0  0  0  0  0  0  0  0  0
   27.6956    8.7628   54.8793 C   0  0  0  0  0  0  0  0  0  0  0  0
   26.8083    8.3286   53.8966 C   0  0  0  0  0  0  0  0  0  0  0  0
   28.1657    9.7940   57.0746 N   0  0  0  0  0  0  0  0  0  0  0  0
   29.0186   10.8837   56.6557 C   0  0  0  0  0  0  0  0  0  0  0  0
   28.1601    9.2416   58.3459 C   0  0  0  0  0  0  0  0  0  0  0  0
   27.1620    8.4040   58.5431 O   0  0  0  0  0  0  0  0  0  0  0  0
   29.0317    9.4052   59.5016 C   0  0  0  0  0  0  0  0  0  0  0  0
   29.3418   10.6752   59.9967 N   0  0  0  0  0  0  0  0  0  0  0  0
   29.8117   10.7905   61.3349 C   0  0  0  0  0  0  0  0  0  0  0  0
   28.7569   11.3393   62.2700 C   0  0  0  0  0  0  0  0  0  0  0  0
   28.2040   12.5730   61.8321 N   0  0  0  0  0  0  0  0  0  0  0  0
   26.9870   12.9564   62.4451 C   0  0  0  0  0  0  0  0  0  0  0  0
   28.3708   12.8959   60.4641 C   0  0  0  0  0  0  0  0  0  0  0  0
   28.6135   11.7915   59.5161 C   0  0  0  0  0  0  0  0  0  0  0  0
 21 22  1  0  0  0
 22 19  1  0  0  0
 19 20  2  0  0  0
 19  1  1  0  0  0
  1  2  2  0  0  0
  2  3  1  0  0  0
  3  4  2  0  0  0
  4  5  1  0  0  0
  5  6  2  0  0  0
  6 23  1  0  0  0
 23 25  1  0  0  0
 25 26  2  0  0  0
 26 27  1  0  0  0
 27 28  2  0  0  0
 28 29  1  0  0  0
 29 30  2  0  0  0
 28 31  1  0  0  0
 31 32  1  0  0  0
 31 33  1  0  0  0
 33 34  2  0  0  0
 33 35  1  0  0  0
 35 36  1  0  0  0
 36 37  1  0  0  0
 37 38  1  0  0  0
 38 39  1  0  0  0
 39 40  1  0  0  0
 39 41  1  0  0  0
 41 42  1  0  0  0
  6 13  1  0  0  0
 13 14  2  0  0  0
 14 15  1  0  0  0
 15 16  2  0  0  0
 16 17  1  0  0  0
 17 18  2  0  0  0
  5  7  1  0  0  0
  7  8  2  0  0  0
  7  9  1  0  0  0
  9 10  1  0  0  0
 10 11  2  0  0  0
 11  1  1  0  0  0
 10  4  1  0  0  0
 30 25  1  0  0  0
 42 36  1  0  0  0
 18 13  1  0  0  0
 23 24  1  0  0  0
  9 12  1  0  0  0
M  END
> <minimizedAffinity>
19.10834

> <CNNscore>
0.5918573141

> <CNNaffinity>
7.0077233315

> <CNN_VS>
4.1475725174

> <CNNaffinity_variance>
0.3311737776

$$$$
[H]c1c([H])c([H])c(/C(=C2/C(=O)N([H])c3c([H])c(C(=O)OC([H])([H])[H])c([H])c([H])c32)N([H])c2c([H])c([H])c(N(C(=O)C([H])([H])N3C([H])([H])C([H])([H])N(C([H])([H])[H])C([H])([H])C3([H])[H])C([H])([H])[H])c([H])c2[H])c([H])c1[H]


 42 46  0  0  0  0  0  0  0  0999 V2000
   19.4052    4.9491   53.5620 C   0  0  0  0  0  0  0  0  0  0  0  0
   19.4157    6.3070   53.4720 C   0  0  0  0  0  0  0  0  0  0  0  0
   20.6039    7.0457   53.4267 C   0  0  0  0  0  0  0  0  0  0  0  0
   21.7815    6.3495   53.4787 C   0  0  0  0  0  0  0  0  0  0  0  0
   23.1565    6.8129   53.4311 C   0  0  0  0  0  0  0  0  0  0  0  0
   23.6159    8.0356   53.4463 C   0  0  0  0  0  0  0  0  0  0  0  0
   23.9876    5.5732   53.4940 C   0  0  0  0  0  0  0  0  0  0  0  0
   25.2205    5.5135   53.4766 O   0  0  0  0  0  0  0  0  0  0  0  0
   23.1153    4.4580   53.5787 N   0  0  0  0  0  0  0  0  0  0  0  0
   21.7878    4.9589   53.5687 C   0  0  0  0  0  0  0  0  0  0  0  0
   20.5985    4.2631   53.6106 C   0  0  0  0  0  0  0  0  0  0  0  0
   23.3941    3.4345   53.6387 H   0  0  0  0  0  0  0  0  0  0  0  0
   22.8241    9.2034   53.6801 C   0  0  0  0  0  0  0  0  0  0  0  0
   22.4108    9.6855   54.8999 C   0  0  0  0  0  0  0  0  0  0  0  0
   21.5543   10.7491   55.0266 C   0  0  0  0  0  0  0  0  0  0  0  0
   21.0764   11.3747   53.9067 C   0  0  0  0  0  0  0  0  0  0  0  0
   21.4583   10.9327   52.6637 C   0  0  0  0  0  0  0  0  0  0  0  0
   22.3124    9.8716   52.5526 C   0  0  0  0  0  0  0  0  0  0  0  0
   18.1833    4.1576   53.6128 C   0  0  0  0  0  0  0  0  0  0  0  0
   18.1077    2.9841   53.2004 O   0  0  0  0  0  0  0  0  0  0  0  0
   15.8107    4.1202   54.2582 C   0  0  0  0  0  0  0  0  0  0  0  0
   17.0534    4.7649   54.1546 O   0  0  0  0  0  0  0  0  0  0  0  0
   25.0244    8.2096   53.3717 N   0  0  0  0  0  0  0  0  0  0  0  0
   25.4425    7.9848   52.4198 H   0  0  0  0  0  0  0  0  0  0  0  0
   25.8442    8.6434   54.4450 C   0  0  0  0  0  0  0  0  0  0  0  0
   27.2164    8.5581   54.4138 C   0  0  0  0  0  0  0  0  0  0  0  0
   27.9958    8.9981   55.4907 C   0  0  0  0  0  0  0  0  0  0  0  0
   27.3925    9.5271   56.6053 C   0  0  0  0  0  0  0  0  0  0  0  0
   26.0218    9.6130   56.6379 C   0  0  0  0  0  0  0  0  0  0  0  0
   25.2465    9.1750   55.5663 C   0  0  0  0  0  0  0  0  0  0  0  0
   28.2102    9.9856   57.7225 N   0  0  0  0  0  0  0  0  0  0  0  0
   28.6874   11.3425   57.5769 C   0  0  0  0  0  0  0  0  0  0  0  0
   28.4431    9.1827   58.8281 C   0  0  0  0  0  0  0  0  0  0  0  0
   27.7409    8.0676   58.8166 O   0  0  0  0  0  0  0  0  0  0  0  0
   29.3027    9.3279   59.9953 C   0  0  0  0  0  0  0  0  0  0  0  0
   29.0257   10.2800   60.9806 N   0  0  0  0  0  0  0  0  0  0  0  0
   27.8297   11.0439   60.8750 C   0  0  0  0  0  0  0  0  0  0  0  0
   28.0914   12.4632   60.4222 C   0  0  0  0  0  0  0  0  0  0  0  0
   29.0435   13.1442   61.2281 N   0  0  0  0  0  0  0  0  0  0  0  0
   29.5990   14.3195   60.6676 C   0  0  0  0  0  0  0  0  0  0  0  0
   29.8943   12.3411   62.0246 C   0  0  0  0  0  0  0  0  0  0  0  0
   30.1070   10.9394   61.6156 C   0  0  0  0  0  0  0  0  0  0  0  0
 21 22  1  0  0  0
 22 19  1  0  0  0
 19 20  2  0  0  0
 19  1  1  0  0  0
  1  2  2  0  0  0
  2  3  1  0  0  0
  3  4  2  0  0  0
  4  5  1  0  0  0
  5  6  2  0  0  0
  6 23  1  0  0  0
 23 25  1  0  0  0
 25 26  2  0  0  0
 26 27  1  0  0  0
 27 28  2  0  0  0
 28 29  1  0  0  0
 29 30  2  0  0  0
 28 31  1  0  0  0
 31 32  1  0  0  0
 31 33  1  0  0  0
 33 34  2  0  0  0
 33 35  1  0  0  0
 35 36  1  0  0  0
 36 37  1  0  0  0
 37 38  1  0  0  0
 38 39  1  0  0  0
 39 40  1  0  0  0
 39 41  1  0  0  0
 41 42  1  0  0  0
  6 13  1  0  0  0
 13 14  2  0  0  0
 14 15  1  0  0  0
 15 16  2  0  0  0
 16 17  1  0  0  0
 17 18  2  0  0  0
  5  7  1  0  0  0
  7  8  2  0  0  0
  7  9  1  0  0  0
  9 10  1  0  0  0
 10 11  2  0  0  0
 11  1  1  0  0  0
 10  4  1  0  0  0
 30 25  1  0  0  0
 42 36  1  0  0  0
 18 13  1  0  0  0
 23 24  1  0  0  0
  9 12  1  0  0  0
M  END
> <minimizedAffinity>
18.15751

> <CNNscore>
0.5748791695

> <CNNaffinity>
6.9604730606

> <CNN_VS>
4.0014309883

> <CNNaffinity_variance>
0.3414490819

$$$$
[H]c1c([H])c([H])c(/C(=C2/C(=O)N([H])c3c([H])c(C(=O)OC([H])([H])[H])c([H])c([H])c32)N([H])c2c([H])c([H])c(N(C(=O)C([H])([H])N3C([H])([H])C([H])([H])N(C([H])([H])[H])C([H])([H])C3([H])[H])C([H])([H])[H])c([H])c2[H])c([H])c1[H]


 42 46  0  0  0  0  0  0  0  0999 V2000
   19.5189    5.0538   53.5340 C   0  0  0  0  0  0  0  0  0  0  0  0
   19.4778    6.4108   53.4384 C   0  0  0  0  0  0  0  0  0  0  0  0
   20.6370    7.1944   53.3988 C   0  0  0  0  0  0  0  0  0  0  0  0
   21.8401    6.5442   53.4624 C   0  0  0  0  0  0  0  0  0  0  0  0
   23.1966    7.0599   53.4230 C   0  0  0  0  0  0  0  0  0  0  0  0
   23.6086    8.2995   53.4365 C   0  0  0  0  0  0  0  0  0  0  0  0
   24.0742    5.8534   53.4972 C   0  0  0  0  0  0  0  0  0  0  0  0
   25.3086    5.8411   53.4892 O   0  0  0  0  0  0  0  0  0  0  0  0
   23.2448    4.7059   53.5801 N   0  0  0  0  0  0  0  0  0  0  0  0
   21.8992    5.1552   53.5582 C   0  0  0  0  0  0  0  0  0  0  0  0
   20.7372    4.4144   53.5943 C   0  0  0  0  0  0  0  0  0  0  0  0
   23.5623    3.6941   53.6465 H   0  0  0  0  0  0  0  0  0  0  0  0
   22.7708    9.4369   53.6595 C   0  0  0  0  0  0  0  0  0  0  0  0
   22.2888    9.8780   54.8696 C   0  0  0  0  0  0  0  0  0  0  0  0
   21.3944   10.9118   54.9806 C   0  0  0  0  0  0  0  0  0  0  0  0
   20.9471   11.5479   53.8540 C   0  0  0  0  0  0  0  0  0  0  0  0
   21.3973   11.1465   52.6202 C   0  0  0  0  0  0  0  0  0  0  0  0
   22.2886   10.1148   52.5248 C   0  0  0  0  0  0  0  0  0  0  0  0
   18.3279    4.2161   53.5791 C   0  0  0  0  0  0  0  0  0  0  0  0
   18.3011    3.0384   53.1729 O   0  0  0  0  0  0  0  0  0  0  0  0
   15.9662    4.0757   54.2499 C   0  0  0  0  0  0  0  0  0  0  0  0
   17.1708    4.7824   54.1078 O   0  0  0  0  0  0  0  0  0  0  0  0
   25.0099    8.5272   53.3715 N   0  0  0  0  0  0  0  0  0  0  0  0
   25.4039    8.5467   52.3837 H   0  0  0  0  0  0  0  0  0  0  0  0
   25.8518    8.7180   54.4972 C   0  0  0  0  0  0  0  0  0  0  0  0
   27.2057    8.4799   54.4616 C   0  0  0  0  0  0  0  0  0  0  0  0
   28.0081    8.6810   55.5915 C   0  0  0  0  0  0  0  0  0  0  0  0
   27.4463    9.1242   56.7637 C   0  0  0  0  0  0  0  0  0  0  0  0
   26.0940    9.3626   56.8008 C   0  0  0  0  0  0  0  0  0  0  0  0
   25.2957    9.1622   55.6764 C   0  0  0  0  0  0  0  0  0  0  0  0
   28.2880    9.3337   57.9361 N   0  0  0  0  0  0  0  0  0  0  0  0
   28.6983    8.1088   58.5853 C   0  0  0  0  0  0  0  0  0  0  0  0
   28.6795   10.6037   58.3301 C   0  0  0  0  0  0  0  0  0  0  0  0
   28.3433   11.5413   57.4672 O   0  0  0  0  0  0  0  0  0  0  0  0
   29.3881   11.1042   59.5005 C   0  0  0  0  0  0  0  0  0  0  0  0
   28.7929   12.0302   60.3621 N   0  0  0  0  0  0  0  0  0  0  0  0
   28.1842   13.1891   59.8039 C   0  0  0  0  0  0  0  0  0  0  0  0
   29.0192   14.4335   60.0097 C   0  0  0  0  0  0  0  0  0  0  0  0
   29.3628   14.6618   61.3696 N   0  0  0  0  0  0  0  0  0  0  0  0
   30.4188   15.5773   61.5944 C   0  0  0  0  0  0  0  0  0  0  0  0
   29.2680   13.5537   62.2451 C   0  0  0  0  0  0  0  0  0  0  0  0
   29.3345   12.2007   61.6602 C   0  0  0  0  0  0  0  0  0  0  0  0
 21 22  1  0  0  0
 22 19  1  0  0  0
 19 20  2  0  0  0
 19  1  1  0  0  0
  1  2  2  0  0  0
  2  3  1  0  0  0
  3  4  2  0  0  0
  4  5  1  0  0  0
  5  6  2  0  0  0
  6 23  1  0  0  0
 23 25  1  0  0  0
 25 26  2  0  0  0
 26 27  1  0  0  0
 27 28  2  0  0  0
 28 29  1  0  0  0
 29 30  2  0  0  0
 28 31  1  0  0  0
 31 32  1  0  0  0
 31 33  1  0  0  0
 33 34  2  0  0  0
 33 35  1  0  0  0
 35 36  1  0  0  0
 36 37  1  0  0  0
 37 38  1  0  0  0
 38 39  1  0  0  0
 39 40  1  0  0  0
 39 41  1  0  0  0
 41 42  1  0  0  0
  6 13  1  0  0  0
 13 14  2  0  0  0
 14 15  1  0  0  0
 15 16  2  0  0  0
 16 17  1  0  0  0
 17 18  2  0  0  0
  5  7  1  0  0  0
  7  8  2  0  0  0
  7  9  1  0  0  0
  9 10  1  0  0  0
 10 11  2  0  0  0
 11  1  1  0  0  0
 10  4  1  0  0  0
 30 25  1  0  0  0
 42 36  1  0  0  0
 18 13  1  0  0  0
 23 24  1  0  0  0
  9 12  1  0  0  0
M  END
> <minimizedAffinity>
17.35320

> <CNNscore>
0.5541377664

> <CNNaffinity>
6.6578912735

> <CNN_VS>
3.6893889904

> <CNNaffinity_variance>
0.1921983063

$$$$
[H]c1c([H])c([H])c(/C(=C2/C(=O)N([H])c3c([H])c(C(=O)OC([H])([H])[H])c([H])c([H])c32)N([H])c2c([H])c([H])c(N(C(=O)C([H])([H])N3C([H])([H])C([H])([H])N(C([H])([H])[H])C([H])([H])C3([H])[H])C([H])([H])[H])c([H])c2[H])c([H])c1[H]


 42 46  0  0  0  0  0  0  0  0999 V2000
   19.3181    4.9277   53.5639 C   0  0  0  0  0  0  0  0  0  0  0  0
   19.2798    6.2786   53.4029 C   0  0  0  0  0  0  0  0  0  0  0  0
   20.4407    7.0559   53.3166 C   0  0  0  0  0  0  0  0  0  0  0  0
   21.6426    6.4059   53.4026 C   0  0  0  0  0  0  0  0  0  0  0  0
   23.0001    6.9151   53.3281 C   0  0  0  0  0  0  0  0  0  0  0  0
   23.4154    8.1526   53.2783 C   0  0  0  0  0  0  0  0  0  0  0  0
   23.8751    5.7111   53.4542 C   0  0  0  0  0  0  0  0  0  0  0  0
   25.1093    5.6947   53.4375 O   0  0  0  0  0  0  0  0  0  0  0  0
   23.0434    4.5713   53.5989 N   0  0  0  0  0  0  0  0  0  0  0  0
   21.6988    5.0231   53.5654 C   0  0  0  0  0  0  0  0  0  0  0  0
   20.5352    4.2883   53.6460 C   0  0  0  0  0  0  0  0  0  0  0  0
   23.3587    3.5630   53.7119 H   0  0  0  0  0  0  0  0  0  0  0  0
   22.5823    9.3020   53.4521 C   0  0  0  0  0  0  0  0  0  0  0  0
   22.1724   10.1758   52.4724 C   0  0  0  0  0  0  0  0  0  0  0  0
   21.4683   11.3206   52.7454 C   0  0  0  0  0  0  0  0  0  0  0  0
   21.1473   11.6292   54.0399 C   0  0  0  0  0  0  0  0  0  0  0  0
   21.5327   10.7899   55.0565 C   0  0  0  0  0  0  0  0  0  0  0  0
   22.2340    9.6525   54.7695 C   0  0  0  0  0  0  0  0  0  0  0  0
   18.1253    4.0967   53.6586 C   0  0  0  0  0  0  0  0  0  0  0  0
   18.0883    2.9050   53.2965 O   0  0  0  0  0  0  0  0  0  0  0  0
   15.7241    4.0563   54.1878 C   0  0  0  0  0  0  0  0  0  0  0  0
   16.9786    4.6864   54.1842 O   0  0  0  0  0  0  0  0  0  0  0  0
   24.8167    8.3728   53.1919 N   0  0  0  0  0  0  0  0  0  0  0  0
   25.2077    8.3161   52.2043 H   0  0  0  0  0  0  0  0  0  0  0  0
   25.6624    8.6481   54.2971 C   0  0  0  0  0  0  0  0  0  0  0  0
   27.0249    8.4674   54.2536 C   0  0  0  0  0  0  0  0  0  0  0  0
   27.8307    8.7515   55.3630 C   0  0  0  0  0  0  0  0  0  0  0  0
   27.2636    9.2201   56.5228 C   0  0  0  0  0  0  0  0  0  0  0  0
   25.9026    9.4011   56.5677 C   0  0  0  0  0  0  0  0  0  0  0  0
   25.1010    9.1182   55.4637 C   0  0  0  0  0  0  0  0  0  0  0  0
   28.1087    9.5161   57.6739 N   0  0  0  0  0  0  0  0  0  0  0  0
   28.6443    8.3396   58.3214 C   0  0  0  0  0  0  0  0  0  0  0  0
   28.3907   10.8200   58.0503 C   0  0  0  0  0  0  0  0  0  0  0  0
   27.9503   11.7152   57.1893 O   0  0  0  0  0  0  0  0  0  0  0  0
   29.0765   11.3934   59.2005 C   0  0  0  0  0  0  0  0  0  0  0  0
   29.0489   10.7594   60.4461 N   0  0  0  0  0  0  0  0  0  0  0  0
   29.7625   11.3476   61.5277 C   0  0  0  0  0  0  0  0  0  0  0  0
   31.0406   10.6038   61.8460 C   0  0  0  0  0  0  0  0  0  0  0  0
   30.8404    9.2167   62.0817 N   0  0  0  0  0  0  0  0  0  0  0  0
   32.0005    8.4073   62.0270 C   0  0  0  0  0  0  0  0  0  0  0  0
   29.6350    8.6557   61.5965 C   0  0  0  0  0  0  0  0  0  0  0  0
   28.9447    9.3471   60.4908 C   0  0  0  0  0  0  0  0  0  0  0  0
 21 22  1  0  0  0
 22 19  1  0  0  0
 19 20  2  0  0  0
 19  1  1  0  0  0
  1  2  2  0  0  0
  2  3  1  0  0  0
  3  4  2  0  0  0
  4  5  1  0  0  0
  5  6  2  0  0  0
  6 23  1  0  0  0
 23 25  1  0  0  0
 25 26  2  0  0  0
 26 27  1  0  0  0
 27 28  2  0  0  0
 28 29  1  0  0  0
 29 30  2  0  0  0
 28 31  1  0  0  0
 31 32  1  0  0  0
 31 33  1  0  0  0
 33 34  2  0  0  0
 33 35  1  0  0  0
 35 36  1  0  0  0
 36 37  1  0  0  0
 37 38  1  0  0  0
 38 39  1  0  0  0
 39 40  1  0  0  0
 39 41  1  0  0  0
 41 42  1  0  0  0
  6 13  1  0  0  0
 13 14  2  0  0  0
 14 15  1  0  0  0
 15 16  2  0  0  0
 16 17  1  0  0  0
 17 18  2  0  0  0
  5  7  1  0  0  0
  7  8  2  0  0  0
  7  9  1  0  0  0
  9 10  1  0  0  0
 10 11  2  0  0  0
 11  1  1  0  0  0
 10  4  1  0  0  0
 30 25  1  0  0  0
 42 36  1  0  0  0
 18 13  1  0  0  0
 23 24  1  0  0  0
  9 12  1  0  0  0
M  END
> <minimizedAffinity>
16.74671

> <CNNscore>
0.5334664583

> <CNNaffinity>
6.7758049965

> <CNN_VS>
3.6146647930

> <CNNaffinity_variance>
0.2344041318

$$$$
[H]c1c([H])c([H])c(/C(=C2/C(=O)N([H])c3c([H])c(C(=O)OC([H])([H])[H])c([H])c([H])c32)N([H])c2c([H])c([H])c(N(C(=O)C([H])([H])N3C([H])([H])C([H])([H])N(C([H])([H])[H])C([H])([H])C3([H])[H])C([H])([H])[H])c([H])c2[H])c([H])c1[H]


 42 46  0  0  0  0  0  0  0  0999 V2000
   18.7620    5.6014   53.6780 C   0  0  0  0  0  0  0  0  0  0  0  0
   19.8822    4.8363   53.7881 C   0  0  0  0  0  0  0  0  0  0  0  0
   21.1703    5.3764   53.6952 C   0  0  0  0  0  0  0  0  0  0  0  0
   21.2748    6.7251   53.4841 C   0  0  0  0  0  0  0  0  0  0  0  0
   22.4455    7.5754   53.3657 C   0  0  0  0  0  0  0  0  0  0  0  0
   23.7069    7.2398   53.3125 C   0  0  0  0  0  0  0  0  0  0  0  0
   21.9067    8.9559   53.1785 C   0  0  0  0  0  0  0  0  0  0  0  0
   22.5669    9.9898   53.0395 O   0  0  0  0  0  0  0  0  0  0  0  0
   20.4902    8.8843   53.1863 N   0  0  0  0  0  0  0  0  0  0  0  0
   20.1376    7.5225   53.3715 C   0  0  0  0  0  0  0  0  0  0  0  0
   18.8841    6.9571   53.4684 C   0  0  0  0  0  0  0  0  0  0  0  0
   19.8110    9.6937   53.0750 H   0  0  0  0  0  0  0  0  0  0  0  0
   24.1919    5.8992   53.1993 C   0  0  0  0  0  0  0  0  0  0  0  0
   24.7039    5.3029   52.0707 C   0  0  0  0  0  0  0  0  0  0  0  0
   25.0390    3.9740   52.0198 C   0  0  0  0  0  0  0  0  0  0  0  0
   24.8661    3.1862   53.1259 C   0  0  0  0  0  0  0  0  0  0  0  0
   24.3583    3.7323   54.2792 C   0  0  0  0  0  0  0  0  0  0  0  0
   24.0287    5.0581   54.3154 C   0  0  0  0  0  0  0  0  0  0  0  0
   17.4110    5.0638   53.7687 C   0  0  0  0  0  0  0  0  0  0  0  0
   16.3968    5.7750   53.9041 O   0  0  0  0  0  0  0  0  0  0  0  0
   16.0247    3.0393   53.6055 C   0  0  0  0  0  0  0  0  0  0  0  0
   17.2703    3.6803   53.6980 O   0  0  0  0  0  0  0  0  0  0  0  0
   24.6621    8.2872   53.2119 N   0  0  0  0  0  0  0  0  0  0  0  0
   24.6657    8.7864   52.2726 H   0  0  0  0  0  0  0  0  0  0  0  0
   25.5539    8.6713   54.2461 C   0  0  0  0  0  0  0  0  0  0  0  0
   26.9123    8.4721   54.1681 C   0  0  0  0  0  0  0  0  0  0  0  0
   27.7646    8.8657   55.2071 C   0  0  0  0  0  0  0  0  0  0  0  0
   27.2484    9.4632   56.3309 C   0  0  0  0  0  0  0  0  0  0  0  0
   25.8916    9.6628   56.4102 C   0  0  0  0  0  0  0  0  0  0  0  0
   25.0438    9.2710   55.3762 C   0  0  0  0  0  0  0  0  0  0  0  0
   28.1418    9.8727   57.4084 N   0  0  0  0  0  0  0  0  0  0  0  0
   28.8411   11.1108   57.1466 C   0  0  0  0  0  0  0  0  0  0  0  0
   28.2448    9.1425   58.5820 C   0  0  0  0  0  0  0  0  0  0  0  0
   27.3634    8.1662   58.6646 O   0  0  0  0  0  0  0  0  0  0  0  0
   29.1267    9.2419   59.7372 C   0  0  0  0  0  0  0  0  0  0  0  0
   28.8893   10.1791   60.7469 N   0  0  0  0  0  0  0  0  0  0  0  0
   27.9963   11.2552   60.4834 C   0  0  0  0  0  0  0  0  0  0  0  0
   28.7215   12.5643   60.2636 C   0  0  0  0  0  0  0  0  0  0  0  0
   29.6048   12.9030   61.3242 N   0  0  0  0  0  0  0  0  0  0  0  0
   30.5655   13.9010   61.0327 C   0  0  0  0  0  0  0  0  0  0  0  0
   30.0034   11.8501   62.1819 C   0  0  0  0  0  0  0  0  0  0  0  0
   29.9276   10.4698   61.6661 C   0  0  0  0  0  0  0  0  0  0  0  0
 21 22  1  0  0  0
 22 19  1  0  0  0
 19 20  2  0  0  0
 19  1  1  0  0  0
  1  2  2  0  0  0
  2  3  1  0  0  0
  3  4  2  0  0  0
  4  5  1  0  0  0
  5  6  2  0  0  0
  6 23  1  0  0  0
 23 25  1  0  0  0
 25 26  2  0  0  0
 26 27  1  0  0  0
 27 28  2  0  0  0
 28 29  1  0  0  0
 29 30  2  0  0  0
 28 31  1  0  0  0
 31 32  1  0  0  0
 31 33  1  0  0  0
 33 34  2  0  0  0
 33 35  1  0  0  0
 35 36  1  0  0  0
 36 37  1  0  0  0
 37 38  1  0  0  0
 38 39  1  0  0  0
 39 40  1  0  0  0
 39 41  1  0  0  0
 41 42  1  0  0  0
  6 13  1  0  0  0
 13 14  2  0  0  0
 14 15  1  0  0  0
 15 16  2  0  0  0
 16 17  1  0  0  0
 17 18  2  0  0  0
  5  7  1  0  0  0
  7  8  2  0  0  0
  7  9  1  0  0  0
  9 10  1  0  0  0
 10 11  2  0  0  0
 11  1  1  0  0  0
 10  4  1  0  0  0
 30 25  1  0  0  0
 42 36  1  0  0  0
 18 13  1  0  0  0
 23 24  1  0  0  0
  9 12  1  0  0  0
M  END
> <minimizedAffinity>
35.65321

> <CNNscore>
0.4561425447

> <CNNaffinity>
6.4327468872

> <CNN_VS>
2.9342496395

> <CNNaffinity_variance>
0.5314731002

$$$$
[H]c1c([H])c([H])c(/C(=C2/C(=O)N([H])c3c([H])c(C(=O)OC([H])([H])[H])c([H])c([H])c32)N([H])c2c([H])c([H])c(N(C(=O)C([H])([H])N3C([H])([H])C([H])([H])N(C([H])([H])[H])C([H])([H])C3([H])[H])C([H])([H])[H])c([H])c2[H])c([H])c1[H]


 42 46  0  0  0  0  0  0  0  0999 V2000
   21.3630   11.1250   51.5056 C   0  0  0  0  0  0  0  0  0  0  0  0
   22.6390   10.9905   51.9595 C   0  0  0  0  0  0  0  0  0  0  0  0
   23.0967    9.8179   52.5717 C   0  0  0  0  0  0  0  0  0  0  0  0
   22.2053    8.7875   52.7063 C   0  0  0  0  0  0  0  0  0  0  0  0
   22.3738    7.4588   53.2665 C   0  0  0  0  0  0  0  0  0  0  0  0
   23.4004    6.9534   53.8966 C   0  0  0  0  0  0  0  0  0  0  0  0
   21.0485    6.7921   53.0928 C   0  0  0  0  0  0  0  0  0  0  0  0
   20.7544    5.6421   53.4320 O   0  0  0  0  0  0  0  0  0  0  0  0
   20.1686    7.7104   52.4650 N   0  0  0  0  0  0  0  0  0  0  0  0
   20.8960    8.9086   52.2449 C   0  0  0  0  0  0  0  0  0  0  0  0
   20.4790   10.0782   51.6461 C   0  0  0  0  0  0  0  0  0  0  0  0
   19.1526    7.5420   52.2039 H   0  0  0  0  0  0  0  0  0  0  0  0
   24.5506    7.6949   54.3120 C   0  0  0  0  0  0  0  0  0  0  0  0
   25.8209    7.6003   53.7935 C   0  0  0  0  0  0  0  0  0  0  0  0
   26.8935    8.2654   54.3299 C   0  0  0  0  0  0  0  0  0  0  0  0
   26.7187    9.0637   55.4282 C   0  0  0  0  0  0  0  0  0  0  0  0
   25.4700    9.1931   55.9852 C   0  0  0  0  0  0  0  0  0  0  0  0
   24.4102    8.5242   55.4399 C   0  0  0  0  0  0  0  0  0  0  0  0
   20.8615   12.3346   50.8674 C   0  0  0  0  0  0  0  0  0  0  0  0
   20.5031   12.3837   49.6749 O   0  0  0  0  0  0  0  0  0  0  0  0
   20.7983   14.7807   51.1126 C   0  0  0  0  0  0  0  0  0  0  0  0
   20.7879   13.4839   51.6502 O   0  0  0  0  0  0  0  0  0  0  0  0
   23.3057    5.6035   54.3308 N   0  0  0  0  0  0  0  0  0  0  0  0
   23.3159    4.8893   53.5426 H   0  0  0  0  0  0  0  0  0  0  0  0
   23.2051    5.1943   55.6854 C   0  0  0  0  0  0  0  0  0  0  0  0
   22.2565    5.6965   56.5451 C   0  0  0  0  0  0  0  0  0  0  0  0
   22.1840    5.2684   57.8764 C   0  0  0  0  0  0  0  0  0  0  0  0
   23.0700    4.3301   58.3461 C   0  0  0  0  0  0  0  0  0  0  0  0
   24.0181    3.8275   57.4885 C   0  0  0  0  0  0  0  0  0  0  0  0
   24.0901    4.2537   56.1639 C   0  0  0  0  0  0  0  0  0  0  0  0
   22.9876    3.8870   59.7331 N   0  0  0  0  0  0  0  0  0  0  0  0
   22.0063    4.6036   60.5165 C   0  0  0  0  0  0  0  0  0  0  0  0
   23.7595    2.8372   60.2060 C   0  0  0  0  0  0  0  0  0  0  0  0
   24.4300    2.2172   59.2559 O   0  0  0  0  0  0  0  0  0  0  0  0
   23.9724    2.2844   61.5370 C   0  0  0  0  0  0  0  0  0  0  0  0
   25.1021    2.6249   62.2867 N   0  0  0  0  0  0  0  0  0  0  0  0
   25.4800    3.9943   62.3685 C   0  0  0  0  0  0  0  0  0  0  0  0
   26.6885    4.3099   61.5151 C   0  0  0  0  0  0  0  0  0  0  0  0
   27.8036    3.4720   61.7874 N   0  0  0  0  0  0  0  0  0  0  0  0
   28.8234    3.4630   60.8057 C   0  0  0  0  0  0  0  0  0  0  0  0
   27.5364    2.2534   62.4560 C   0  0  0  0  0  0  0  0  0  0  0  0
   26.1718    1.6993   62.3677 C   0  0  0  0  0  0  0  0  0  0  0  0
 21 22  1  0  0  0
 22 19  1  0  0  0
 19 20  2  0  0  0
 19  1  1  0  0  0
  1  2  2  0  0  0
  2  3  1  0  0  0
  3  4  2  0  0  0
  4  5  1  0  0  0
  5  6  2  0  0  0
  6 23  1  0  0  0
 23 25  1  0  0  0
 25 26  2  0  0  0
 26 27  1  0  0  0
 27 28  2  0  0  0
 28 29  1  0  0  0
 29 30  2  0  0  0
 28 31  1  0  0  0
 31 32  1  0  0  0
 31 33  1  0  0  0
 33 34  2  0  0  0
 33 35  1  0  0  0
 35 36  1  0  0  0
 36 37  1  0  0  0
 37 38  1  0  0  0
 38 39  1  0  0  0
 39 40  1  0  0  0
 39 41  1  0  0  0
 41 42  1  0  0  0
  6 13  1  0  0  0
 13 14  2  0  0  0
 14 15  1  0  0  0
 15 16  2  0  0  0
 16 17  1  0  0  0
 17 18  2  0  0  0
  5  7  1  0  0  0
  7  8  2  0  0  0
  7  9  1  0  0  0
  9 10  1  0  0  0
 10 11  2  0  0  0
 11  1  1  0  0  0
 10  4  1  0  0  0
 30 25  1  0  0  0
 42 36  1  0  0  0
 18 13  1  0  0  0
 23 24  1  0  0  0
  9 12  1  0  0  0
M  END
> <minimizedAffinity>
40.30593

> <CNNscore>
0.4126503766

> <CNNaffinity>
6.1242628098

> <CNN_VS>
2.5271792412

> <CNNaffinity_variance>
0.6996877193

$$$$
[H]c1c([H])c([H])c(/C(=C2/C(=O)N([H])c3c([H])c(C(=O)OC([H])([H])[H])c([H])c([H])c32)N([H])c2c([H])c([H])c(N(C(=O)C([H])([H])N3C([H])([H])C([H])([H])N(C([H])([H])[H])C([H])([H])C3([H])[H])C([H])([H])[H])c([H])c2[H])c([H])c1[H]


 42 46  0  0  0  0  0  0  0  0999 V2000
   22.3622   10.0579   52.9932 C   0  0  0  0  0  0  0  0  0  0  0  0
   23.6068    9.5891   52.7043 C   0  0  0  0  0  0  0  0  0  0  0  0
   24.5148    9.2113   53.7005 C   0  0  0  0  0  0  0  0  0  0  0  0
   24.1084    9.3307   55.0023 C   0  0  0  0  0  0  0  0  0  0  0  0
   24.7947    9.0080   56.2403 C   0  0  0  0  0  0  0  0  0  0  0  0
   26.0315    8.6297   56.4234 C   0  0  0  0  0  0  0  0  0  0  0  0
   23.8162    9.3277   57.3227 C   0  0  0  0  0  0  0  0  0  0  0  0
   23.9949    9.1961   58.5371 O   0  0  0  0  0  0  0  0  0  0  0  0
   22.6294    9.8152   56.7182 N   0  0  0  0  0  0  0  0  0  0  0  0
   22.8365    9.8068   55.3145 C   0  0  0  0  0  0  0  0  0  0  0  0
   21.9673   10.1695   54.3079 C   0  0  0  0  0  0  0  0  0  0  0  0
   21.7447   10.1304   57.2150 H   0  0  0  0  0  0  0  0  0  0  0  0
   27.0387    8.6090   55.4083 C   0  0  0  0  0  0  0  0  0  0  0  0
   27.0895    7.7726   54.3178 C   0  0  0  0  0  0  0  0  0  0  0  0
   28.1547    7.7417   53.4545 C   0  0  0  0  0  0  0  0  0  0  0  0
   29.2251    8.5686   53.6652 C   0  0  0  0  0  0  0  0  0  0  0  0
   29.2248    9.4237   54.7399 C   0  0  0  0  0  0  0  0  0  0  0  0
   28.1564    9.4436   55.5919 C   0  0  0  0  0  0  0  0  0  0  0  0
   21.3999   10.4594   51.9759 C   0  0  0  0  0  0  0  0  0  0  0  0
   20.8166    9.6530   51.2261 O   0  0  0  0  0  0  0  0  0  0  0  0
   21.6248   12.6067   50.7986 C   0  0  0  0  0  0  0  0  0  0  0  0
   21.1339   11.8208   51.8531 O   0  0  0  0  0  0  0  0  0  0  0  0
   26.4457    8.3591   57.7556 N   0  0  0  0  0  0  0  0  0  0  0  0
   26.0385    7.4667   58.1669 H   0  0  0  0  0  0  0  0  0  0  0  0
   27.3242    9.1768   58.5119 C   0  0  0  0  0  0  0  0  0  0  0  0
   28.0391   10.2119   57.9565 C   0  0  0  0  0  0  0  0  0  0  0  0
   28.8962   11.0012   58.7331 C   0  0  0  0  0  0  0  0  0  0  0  0
   29.0354   10.7486   60.0759 C   0  0  0  0  0  0  0  0  0  0  0  0
   28.3218    9.7149   60.6322 C   0  0  0  0  0  0  0  0  0  0  0  0
   27.4691    8.9297   59.8591 C   0  0  0  0  0  0  0  0  0  0  0  0
   29.9280   11.5758   60.8796 N   0  0  0  0  0  0  0  0  0  0  0  0
   29.6353   11.5437   62.2950 C   0  0  0  0  0  0  0  0  0  0  0  0
   30.9808   12.2733   60.3082 C   0  0  0  0  0  0  0  0  0  0  0  0
   31.1622   11.9871   59.0346 O   0  0  0  0  0  0  0  0  0  0  0  0
   31.9234   13.2516   60.8343 C   0  0  0  0  0  0  0  0  0  0  0  0
   31.4779   14.4479   61.4039 N   0  0  0  0  0  0  0  0  0  0  0  0
   30.1468   14.5125   61.9032 C   0  0  0  0  0  0  0  0  0  0  0  0
   29.2288   15.2994   60.9943 C   0  0  0  0  0  0  0  0  0  0  0  0
   29.7106   16.6037   60.7008 N   0  0  0  0  0  0  0  0  0  0  0  0
   29.1075   17.2506   59.5955 C   0  0  0  0  0  0  0  0  0  0  0  0
   31.0904   16.8360   60.9141 C   0  0  0  0  0  0  0  0  0  0  0  0
   31.9971   15.6719   60.9142 C   0  0  0  0  0  0  0  0  0  0  0  0
 21 22  1  0  0  0
 22 19  1  0  0  0
 19 20  2  0  0  0
 19  1  1  0  0  0
  1  2  2  0  0  0
  2  3  1  0  0  0
  3  4  2  0  0  0
  4  5  1  0  0  0
  5  6  2  0  0  0
  6 23  1  0  0  0
 23 25  1  0  0  0
 25 26  2  0  0  0
 26 27  1  0  0  0
 27 28  2  0  0  0
 28 29  1  0  0  0
 29 30  2  0  0  0
 28 31  1  0  0  0
 31 32  1  0  0  0
 31 33  1  0  0  0
 33 34  2  0  0  0
 33 35  1  0  0  0
 35 36  1  0  0  0
 36 37  1  0  0  0
 37 38  1  0  0  0
 38 39  1  0  0  0
 39 40  1  0  0  0
 39 41  1  0  0  0
 41 42  1  0  0  0
  6 13  1  0  0  0
 13 14  2  0  0  0
 14 15  1  0  0  0
 15 16  2  0  0  0
 16 17  1  0  0  0
 17 18  2  0  0  0
  5  7  1  0  0  0
  7  8  2  0  0  0
  7  9  1  0  0  0
  9 10  1  0  0  0
 10 11  2  0  0  0
 11  1  1  0  0  0
 10  4  1  0  0  0
 30 25  1  0  0  0
 42 36  1  0  0  0
 18 13  1  0  0  0
 23 24  1  0  0  0
  9 12  1  0  0  0
M  END
> <minimizedAffinity>
41.56255

> <CNNscore>
0.4009753764

> <CNNaffinity>
5.8882894516

> <CNN_VS>
2.3610591888

> <CNNaffinity_variance>
0.0705165789

$$$$
[H]c1c([H])c([H])c(/C(=C2/C(=O)N([H])c3c([H])c(C(=O)OC([H])([H])[H])c([H])c([H])c32)N([H])c2c([H])c([H])c(N(C(=O)C([H])([H])N3C([H])([H])C([H])([H])N(C([H])([H])[H])C([H])([H])C3([H])[H])C([H])([H])[H])c([H])c2[H])c([H])c1[H]


 42 46  0  0  0  0  0  0  0  0999 V2000
   20.8458    5.9218   53.6160 C   0  0  0  0  0  0  0  0  0  0  0  0
   22.1717    5.6232   53.5437 C   0  0  0  0  0  0  0  0  0  0  0  0
   23.1613    6.4854   54.0303 C   0  0  0  0  0  0  0  0  0  0  0  0
   22.7501    7.6643   54.5919 C   0  0  0  0  0  0  0  0  0  0  0  0
   23.5141    8.7408   55.1960 C   0  0  0  0  0  0  0  0  0  0  0  0
   24.8089    8.9058   55.2469 C   0  0  0  0  0  0  0  0  0  0  0  0
   22.4948    9.7315   55.6555 C   0  0  0  0  0  0  0  0  0  0  0  0
   22.7168   10.8015   56.2296 O   0  0  0  0  0  0  0  0  0  0  0  0
   21.2098    9.2345   55.3187 N   0  0  0  0  0  0  0  0  0  0  0  0
   21.3963    7.9837   54.6755 C   0  0  0  0  0  0  0  0  0  0  0  0
   20.4481    7.1107   54.1864 C   0  0  0  0  0  0  0  0  0  0  0  0
   20.2756    9.7038   55.5085 H   0  0  0  0  0  0  0  0  0  0  0  0
   25.7635    8.1003   54.5503 C   0  0  0  0  0  0  0  0  0  0  0  0
   27.0225    7.7573   54.9847 C   0  0  0  0  0  0  0  0  0  0  0  0
   27.9186    7.0764   54.2011 C   0  0  0  0  0  0  0  0  0  0  0  0
   27.5694    6.7111   52.9288 C   0  0  0  0  0  0  0  0  0  0  0  0
   26.3237    7.0291   52.4460 C   0  0  0  0  0  0  0  0  0  0  0  0
   25.4409    7.7080   53.2382 C   0  0  0  0  0  0  0  0  0  0  0  0
   19.7970    5.0434   53.1154 C   0  0  0  0  0  0  0  0  0  0  0  0
   18.5848    5.3288   53.1564 O   0  0  0  0  0  0  0  0  0  0  0  0
   19.7736    2.5848   53.0694 C   0  0  0  0  0  0  0  0  0  0  0  0
   20.1937    3.8265   52.5670 O   0  0  0  0  0  0  0  0  0  0  0  0
   25.2990   10.0555   55.9234 N   0  0  0  0  0  0  0  0  0  0  0  0
   24.7924   10.9573   55.6754 H   0  0  0  0  0  0  0  0  0  0  0  0
   26.3671   10.0512   56.8569 C   0  0  0  0  0  0  0  0  0  0  0  0
   27.6483   10.4220   56.5221 C   0  0  0  0  0  0  0  0  0  0  0  0
   28.6791   10.4082   57.4698 C   0  0  0  0  0  0  0  0  0  0  0  0
   28.4206   10.0197   58.7614 C   0  0  0  0  0  0  0  0  0  0  0  0
   27.1412    9.6491   59.0974 C   0  0  0  0  0  0  0  0  0  0  0  0
   26.1157    9.6628   58.1542 C   0  0  0  0  0  0  0  0  0  0  0  0
   29.4982   10.0098   59.7440 N   0  0  0  0  0  0  0  0  0  0  0  0
   30.0210    8.6908   60.0221 C   0  0  0  0  0  0  0  0  0  0  0  0
   29.9838   11.1832   60.2996 C   0  0  0  0  0  0  0  0  0  0  0  0
   29.4830   12.2672   59.7421 O   0  0  0  0  0  0  0  0  0  0  0  0
   30.9352   11.4541   61.3690 C   0  0  0  0  0  0  0  0  0  0  0  0
   31.0169   12.7193   61.9578 N   0  0  0  0  0  0  0  0  0  0  0  0
   29.8254   13.3216   62.4503 C   0  0  0  0  0  0  0  0  0  0  0  0
   29.3266   14.4306   61.5506 C   0  0  0  0  0  0  0  0  0  0  0  0
   30.3084   15.4228   61.2838 N   0  0  0  0  0  0  0  0  0  0  0  0
   30.0410   16.2768   60.1869 C   0  0  0  0  0  0  0  0  0  0  0  0
   31.6579   15.0605   61.5093 C   0  0  0  0  0  0  0  0  0  0  0  0
   32.0020   13.6257   61.4936 C   0  0  0  0  0  0  0  0  0  0  0  0
 21 22  1  0  0  0
 22 19  1  0  0  0
 19 20  2  0  0  0
 19  1  1  0  0  0
  1  2  2  0  0  0
  2  3  1  0  0  0
  3  4  2  0  0  0
  4  5  1  0  0  0
  5  6  2  0  0  0
  6 23  1  0  0  0
 23 25  1  0  0  0
 25 26  2  0  0  0
 26 27  1  0  0  0
 27 28  2  0  0  0
 28 29  1  0  0  0
 29 30  2  0  0  0
 28 31  1  0  0  0
 31 32  1  0  0  0
 31 33  1  0  0  0
 33 34  2  0  0  0
 33 35  1  0  0  0
 35 36  1  0  0  0
 36 37  1  0  0  0
 37 38  1  0  0  0
 38 39  1  0  0  0
 39 40  1  0  0  0
 39 41  1  0  0  0
 41 42  1  0  0  0
  6 13  1  0  0  0
 13 14  2  0  0  0
 14 15  1  0  0  0
 15 16  2  0  0  0
 16 17  1  0  0  0
 17 18  2  0  0  0
  5  7  1  0  0  0
  7  8  2  0  0  0
  7  9  1  0  0  0
  9 10  1  0  0  0
 10 11  2  0  0  0
 11  1  1  0  0  0
 10  4  1  0  0  0
 30 25  1  0  0  0
 42 36  1  0  0  0
 18 13  1  0  0  0
 23 24  1  0  0  0
  9 12  1  0  0  0
M  END
> <minimizedAffinity>
35.80148

> <CNNscore>
0.3888679743

> <CNNaffinity>
6.3542046547

> <CNN_VS>
2.4709467888

> <CNNaffinity_variance>
0.2592267096

$$$$
[H]c1c([H])c([H])c(/C(=C2/C(=O)N([H])c3c([H])c(C(=O)OC([H])([H])[H])c([H])c([H])c32)N([H])c2c([H])c([H])c(N(C(=O)C([H])([H])N3C([H])([H])C([H])([H])N(C([H])([H])[H])C([H])([H])C3([H])[H])C([H])([H])[H])c([H])c2[H])c([H])c1[H]


 42 46  0  0  0  0  0  0  0  0999 V2000
   19.7149    4.9500   53.5497 C   0  0  0  0  0  0  0  0  0  0  0  0
   19.8719    5.9245   52.6127 C   0  0  0  0  0  0  0  0  0  0  0  0
   20.6268    7.0788   52.8516 C   0  0  0  0  0  0  0  0  0  0  0  0
   21.2146    7.2045   54.0817 C   0  0  0  0  0  0  0  0  0  0  0  0
   22.0621    8.2522   54.6218 C   0  0  0  0  0  0  0  0  0  0  0  0
   22.3804    9.4067   54.1002 C   0  0  0  0  0  0  0  0  0  0  0  0
   22.4128    7.7972   56.0007 C   0  0  0  0  0  0  0  0  0  0  0  0
   23.1250    8.3948   56.8128 O   0  0  0  0  0  0  0  0  0  0  0  0
   21.7838    6.5466   56.2287 N   0  0  0  0  0  0  0  0  0  0  0  0
   21.0653    6.2146   55.0511 C   0  0  0  0  0  0  0  0  0  0  0  0
   20.3149    5.0901   54.7816 C   0  0  0  0  0  0  0  0  0  0  0  0
   21.8350    5.9598   57.1130 H   0  0  0  0  0  0  0  0  0  0  0  0
   21.8046    9.9527   52.9104 C   0  0  0  0  0  0  0  0  0  0  0  0
   21.3419    9.2487   51.8232 C   0  0  0  0  0  0  0  0  0  0  0  0
   20.9109    9.8579   50.6726 C   0  0  0  0  0  0  0  0  0  0  0  0
   20.9320   11.2233   50.5770 C   0  0  0  0  0  0  0  0  0  0  0  0
   21.3847   11.9738   51.6344 C   0  0  0  0  0  0  0  0  0  0  0  0
   21.8112   11.3531   52.7748 C   0  0  0  0  0  0  0  0  0  0  0  0
   18.9332    3.7411   53.3271 C   0  0  0  0  0  0  0  0  0  0  0  0
   19.1965    2.9069   52.4396 O   0  0  0  0  0  0  0  0  0  0  0  0
   16.7018    4.3507   54.1617 C   0  0  0  0  0  0  0  0  0  0  0  0
   17.8391    3.5277   54.1616 O   0  0  0  0  0  0  0  0  0  0  0  0
   23.2527   10.2462   54.8445 N   0  0  0  0  0  0  0  0  0  0  0  0
   22.8800   11.2292   55.0066 H   0  0  0  0  0  0  0  0  0  0  0  0
   24.5190    9.8533   55.3489 C   0  0  0  0  0  0  0  0  0  0  0  0
   25.2360    8.8047   54.8223 C   0  0  0  0  0  0  0  0  0  0  0  0
   26.4849    8.4449   55.3435 C   0  0  0  0  0  0  0  0  0  0  0  0
   27.0163    9.1434   56.3999 C   0  0  0  0  0  0  0  0  0  0  0  0
   26.3011   10.1912   56.9269 C   0  0  0  0  0  0  0  0  0  0  0  0
   25.0584   10.5489   56.4082 C   0  0  0  0  0  0  0  0  0  0  0  0
   28.3184    8.7650   56.9365 N   0  0  0  0  0  0  0  0  0  0  0  0
   29.3200    8.5267   55.9215 C   0  0  0  0  0  0  0  0  0  0  0  0
   28.5492    8.7006   58.3018 C   0  0  0  0  0  0  0  0  0  0  0  0
   27.5412    9.1528   59.0202 O   0  0  0  0  0  0  0  0  0  0  0  0
   29.6801    8.2383   59.0952 C   0  0  0  0  0  0  0  0  0  0  0  0
   29.9115    8.7379   60.3801 N   0  0  0  0  0  0  0  0  0  0  0  0
   29.1070    9.8138   60.8496 C   0  0  0  0  0  0  0  0  0  0  0  0
   29.8512   11.1307   60.8515 C   0  0  0  0  0  0  0  0  0  0  0  0
   31.0783   11.0822   61.5667 N   0  0  0  0  0  0  0  0  0  0  0  0
   31.9828   12.1412   61.3134 C   0  0  0  0  0  0  0  0  0  0  0  0
   31.6302    9.7997   61.7984 C   0  0  0  0  0  0  0  0  0  0  0  0
   31.2289    8.7000   60.9001 C   0  0  0  0  0  0  0  0  0  0  0  0
 21 22  1  0  0  0
 22 19  1  0  0  0
 19 20  2  0  0  0
 19  1  1  0  0  0
  1  2  2  0  0  0
  2  3  1  0  0  0
  3  4  2  0  0  0
  4  5  1  0  0  0
  5  6  2  0  0  0
  6 23  1  0  0  0
 23 25  1  0  0  0
 25 26  2  0  0  0
 26 27  1  0  0  0
 27 28  2  0  0  0
 28 29  1  0  0  0
 29 30  2  0  0  0
 28 31  1  0  0  0
 31 32  1  0  0  0
 31 33  1  0  0  0
 33 34  2  0  0  0
 33 35  1  0  0  0
 35 36  1  0  0  0
 36 37  1  0  0  0
 37 38  1  0  0  0
 38 39  1  0  0  0
 39 40  1  0  0  0
 39 41  1  0  0  0
 41 42  1  0  0  0
  6 13  1  0  0  0
 13 14  2  0  0  0
 14 15  1  0  0  0
 15 16  2  0  0  0
 16 17  1  0  0  0
 17 18  2  0  0  0
  5  7  1  0  0  0
  7  8  2  0  0  0
  7  9  1  0  0  0
  9 10  1  0  0  0
 10 11  2  0  0  0
 11  1  1  0  0  0
 10  4  1  0  0  0
 30 25  1  0  0  0
 42 36  1  0  0  0
 18 13  1  0  0  0
 23 24  1  0  0  0
  9 12  1  0  0  0
M  END
> <minimizedAffinity>
34.20773

> <CNNscore>
0.3824333847

> <CNNaffinity>
6.0325441360

> <CNN_VS>
2.3070461750

> <CNNaffinity_variance>
0.1559828222

$$$$
[H]c1c([H])c([H])c2c(c1[H])c1c3c(c4c5c([H])c([H])c([H])c([H])c5n5c4c1n2[C@]1([H])O[C@]5(C([H])([H])[H])[C@@]([H])(OC([H])([H])[H])[C@]([H])(N([H])C([H])([H])[H])C1([H])[H])C([H])([H])N([H])C3=O


 37 44  0  0  0  0  0  0  0  0999 V2000
   20.8149   10.4679   54.3799 C   0  0  0  0  0  0  0  0  0  0  0  0
   20.0025    9.1354   54.4654 C   0  0  0  0  0  0  0  0  0  0  0  0
   21.0103    8.2017   54.3970 C   0  0  0  0  0  0  0  0  0  0  0  0
   21.7910    8.4413   55.5165 O   0  0  0  0  0  0  0  0  0  0  0  0
   22.9255    9.1655   55.0310 C   0  0  0  0  0  0  0  0  0  0  0  0
   23.5675    9.6265   56.3686 C   0  0  0  0  0  0  0  0  0  0  0  0
   22.3379   10.2513   54.2869 C   0  0  0  0  0  0  0  0  0  0  0  0
   23.8308    8.1897   54.4809 N   0  0  0  0  0  0  0  0  0  0  0  0
   25.1955    8.3077   54.4269 C   0  0  0  0  0  0  0  0  0  0  0  0
   26.0603    9.3311   54.6908 C   0  0  0  0  0  0  0  0  0  0  0  0
   27.4295    9.1544   54.5286 C   0  0  0  0  0  0  0  0  0  0  0  0
   27.9602    7.9567   54.1006 C   0  0  0  0  0  0  0  0  0  0  0  0
   27.1034    6.9026   53.8252 C   0  0  0  0  0  0  0  0  0  0  0  0
   25.7667    7.1203   53.9981 C   0  0  0  0  0  0  0  0  0  0  0  0
   24.7291    6.2574   53.7790 C   0  0  0  0  0  0  0  0  0  0  0  0
   24.5990    4.9347   53.3816 C   0  0  0  0  0  0  0  0  0  0  0  0
   25.6802    3.9836   53.0167 C   0  0  0  0  0  0  0  0  0  0  0  0
   24.9985    2.7673   52.6753 N   0  0  0  0  0  0  0  0  0  0  0  0
   23.5712    2.9318   52.8311 C   0  0  0  0  0  0  0  0  0  0  0  0
   22.8169    1.9778   52.5883 O   0  0  0  0  0  0  0  0  0  0  0  0
   23.3811    4.2871   53.2679 C   0  0  0  0  0  0  0  0  0  0  0  0
   22.2111    4.9722   53.5559 C   0  0  0  0  0  0  0  0  0  0  0  0
   20.8785    4.7119   53.5086 C   0  0  0  0  0  0  0  0  0  0  0  0
   20.1418    3.6086   53.2038 C   0  0  0  0  0  0  0  0  0  0  0  0
   18.7417    3.7283   53.2702 C   0  0  0  0  0  0  0  0  0  0  0  0
   18.1144    4.8988   53.6256 C   0  0  0  0  0  0  0  0  0  0  0  0
   18.8733    6.0161   53.9342 C   0  0  0  0  0  0  0  0  0  0  0  0
   20.2476    5.8820   53.8639 C   0  0  0  0  0  0  0  0  0  0  0  0
   21.1251    6.8310   54.1239 N   0  0  0  0  0  0  0  0  0  0  0  0
   22.3615    6.2835   53.9479 C   0  0  0  0  0  0  0  0  0  0  0  0
   23.5983    6.9255   54.0688 C   0  0  0  0  0  0  0  0  0  0  0  0
   25.5044    1.9114   52.3623 H   0  0  0  0  0  0  0  0  0  0  0  0
   20.0473   10.6280   56.5763 C   0  0  0  0  0  0  0  0  0  0  0  0
   20.4154   11.3753   55.3928 N   0  0  0  0  0  0  0  0  0  0  0  0
   19.6014   11.9157   55.0874 H   0  0  0  0  0  0  0  0  0  0  0  0
   22.8279   10.5167   53.0022 O   0  0  0  0  0  0  0  0  0  0  0  0
   21.8474   10.9181   52.1031 C   0  0  0  0  0  0  0  0  0  0  0  0
 33 34  1  0  0  0
 34  1  1  0  0  0
  1  2  1  0  0  0
  2  3  1  0  0  0
  3  4  1  0  0  0
  4  5  1  0  0  0
  5  6  1  0  0  0
  5  7  1  0  0  0
  7 36  1  0  0  0
 36 37  1  0  0  0
  5  8  1  0  0  0
  8  9  1  0  0  0
  9 10  2  0  0  0
 10 11  1  0  0  0
 11 12  2  0  0  0
 12 13  1  0  0  0
 13 14  2  0  0  0
 14 15  1  0  0  0
 15 16  2  0  0  0
 16 17  1  0  0  0
 17 18  1  0  0  0
 18 19  1  0  0  0
 19 20  2  0  0  0
 19 21  1  0  0  0
 21 22  2  0  0  0
 22 23  1  0  0  0
 23 24  2  0  0  0
 24 25  1  0  0  0
 25 26  2  0  0  0
 26 27  1  0  0  0
 27 28  2  0  0  0
 28 29  1  0  0  0
 29 30  1  0  0  0
 30 31  2  0  0  0
  7  1  1  0  0  0
 31  8  1  0  0  0
 29  3  1  0  0  0
 14  9  1  0  0  0
 31 15  1  0  0  0
 21 16  1  0  0  0
 30 22  1  0  0  0
 28 23  1  0  0  0
 34 35  1  0  0  0
 18 32  1  0  0  0
M  END
> <minimizedAffinity>
74.36740

> <CNNscore>
0.2678494751

> <CNNaffinity>
6.2455244064

> <CNN_VS>
1.6728603840

> <CNNaffinity_variance>
0.2963938713

$$$$
[H]c1c([H])c([H])c2c(c1[H])c1c3c(c4c5c([H])c([H])c([H])c([H])c5n5c4c1n2[C@]1([H])O[C@]5(C([H])([H])[H])[C@@]([H])(OC([H])([H])[H])[C@]([H])(N([H])C([H])([H])[H])C1([H])[H])C([H])([H])N([H])C3=O


 37 44  0  0  0  0  0  0  0  0999 V2000
   25.5126   11.2067   55.8122 C   0  0  0  0  0  0  0  0  0  0  0  0
   24.4437   12.0139   55.0068 C   0  0  0  0  0  0  0  0  0  0  0  0
   23.6028   11.0072   54.5927 C   0  0  0  0  0  0  0  0  0  0  0  0
   23.1071   10.4564   55.7637 O   0  0  0  0  0  0  0  0  0  0  0  0
   23.8576    9.2535   55.9561 C   0  0  0  0  0  0  0  0  0  0  0  0
   23.4402    8.8817   57.4057 C   0  0  0  0  0  0  0  0  0  0  0  0
   25.2273    9.6931   55.8617 C   0  0  0  0  0  0  0  0  0  0  0  0
   23.2566    8.2548   55.1099 N   0  0  0  0  0  0  0  0  0  0  0  0
   23.2438    6.9056   55.3523 C   0  0  0  0  0  0  0  0  0  0  0  0
   23.8592    6.1124   56.2780 C   0  0  0  0  0  0  0  0  0  0  0  0
   23.6607    4.7366   56.2686 C   0  0  0  0  0  0  0  0  0  0  0  0
   22.8471    4.1279   55.3374 C   0  0  0  0  0  0  0  0  0  0  0  0
   22.2118    4.9110   54.3865 C   0  0  0  0  0  0  0  0  0  0  0  0
   22.4351    6.2571   54.4328 C   0  0  0  0  0  0  0  0  0  0  0  0
   21.9461    7.2294   53.6052 C   0  0  0  0  0  0  0  0  0  0  0  0
   21.0800    7.2745   52.5225 C   0  0  0  0  0  0  0  0  0  0  0  0
   20.3799    6.1388   51.8694 C   0  0  0  0  0  0  0  0  0  0  0  0
   19.6282    6.7366   50.8024 N   0  0  0  0  0  0  0  0  0  0  0  0
   19.8260    8.1680   50.7905 C   0  0  0  0  0  0  0  0  0  0  0  0
   19.2453    8.8573   49.9386 O   0  0  0  0  0  0  0  0  0  0  0  0
   20.7304    8.4449   51.8718 C   0  0  0  0  0  0  0  0  0  0  0  0
   21.2613    9.6517   52.2995 C   0  0  0  0  0  0  0  0  0  0  0  0
   21.2083   10.9494   51.9005 C   0  0  0  0  0  0  0  0  0  0  0  0
   20.5359   11.6086   50.9176 C   0  0  0  0  0  0  0  0  0  0  0  0
   20.7428   12.9961   50.8123 C   0  0  0  0  0  0  0  0  0  0  0  0
   21.5836   13.6856   51.6536 C   0  0  0  0  0  0  0  0  0  0  0  0
   22.2633   13.0052   52.6510 C   0  0  0  0  0  0  0  0  0  0  0  0
   22.0491   11.6423   52.7409 C   0  0  0  0  0  0  0  0  0  0  0  0
   22.6036   10.8354   53.6240 N   0  0  0  0  0  0  0  0  0  0  0  0
   22.1186    9.5855   53.3748 C   0  0  0  0  0  0  0  0  0  0  0  0
   22.4578    8.3979   54.0313 C   0  0  0  0  0  0  0  0  0  0  0  0
   19.0376    6.1760   50.1517 H   0  0  0  0  0  0  0  0  0  0  0  0
   27.1789   11.9082   57.2854 C   0  0  0  0  0  0  0  0  0  0  0  0
   25.7509   11.7972   57.0785 N   0  0  0  0  0  0  0  0  0  0  0  0
   25.3622   11.2130   57.8238 H   0  0  0  0  0  0  0  0  0  0  0  0
   26.1019    8.9674   55.0434 O   0  0  0  0  0  0  0  0  0  0  0  0
   27.3382    8.7218   55.6282 C   0  0  0  0  0  0  0  0  0  0  0  0
 33 34  1  0  0  0
 34  1  1  0  0  0
  1  2  1  0  0  0
  2  3  1  0  0  0
  3  4  1  0  0  0
  4  5  1  0  0  0
  5  6  1  0  0  0
  5  7  1  0  0  0
  7 36  1  0  0  0
 36 37  1  0  0  0
  5  8  1  0  0  0
  8  9  1  0  0  0
  9 10  2  0  0  0
 10 11  1  0  0  0
 11 12  2  0  0  0
 12 13  1  0  0  0
 13 14  2  0  0  0
 14 15  1  0  0  0
 15 16  2  0  0  0
 16 17  1  0  0  0
 17 18  1  0  0  0
 18 19  1  0  0  0
 19 20  2  0  0  0
 19 21  1  0  0  0
 21 22  2  0  0  0
 22 23  1  0  0  0
 23 24  2  0  0  0
 24 25  1  0  0  0
 25 26  2  0  0  0
 26 27  1  0  0  0
 27 28  2  0  0  0
 28 29  1  0  0  0
 29 30  1  0  0  0
 30 31  2  0  0  0
  7  1  1  0  0  0
 31  8  1  0  0  0
 29  3  1  0  0  0
 14  9  1  0  0  0
 31 15  1  0  0  0
 21 16  1  0  0  0
 30 22  1  0  0  0
 28 23  1  0  0  0
 34 35  1  0  0  0
 18 32  1  0  0  0
M  END
> <minimizedAffinity>
90.65440

> <CNNscore>
0.2349292189

> <CNNaffinity>
5.6602587700

> <CNN_VS>
1.3297601938

> <CNNaffinity_variance>
1.3129875660

$$$$
[H]c1c([H])c([H])c2c(c1[H])c1c3c(c4c5c([H])c([H])c([H])c([H])c5n5c4c1n2[C@]1([H])O[C@]5(C([H])([H])[H])[C@@]([H])(OC([H])([H])[H])[C@]([H])(N([H])C([H])([H])[H])C1([H])[H])C([H])([H])N([H])C3=O


 37 44  0  0  0  0  0  0  0  0999 V2000
   20.9061    9.8934   54.7013 C   0  0  0  0  0  0  0  0  0  0  0  0
   21.1884    8.4024   54.3269 C   0  0  0  0  0  0  0  0  0  0  0  0
   22.5388    8.3147   54.5734 C   0  0  0  0  0  0  0  0  0  0  0  0
   22.6684    8.5743   55.9284 O   0  0  0  0  0  0  0  0  0  0  0  0
   23.1129    9.9321   56.0064 C   0  0  0  0  0  0  0  0  0  0  0  0
   22.9454   10.2036   57.5270 C   0  0  0  0  0  0  0  0  0  0  0  0
   22.1550   10.6462   55.1999 C   0  0  0  0  0  0  0  0  0  0  0  0
   24.5333    9.9134   55.7686 N   0  0  0  0  0  0  0  0  0  0  0  0
   25.4391   10.8105   56.2726 C   0  0  0  0  0  0  0  0  0  0  0  0
   25.3149   11.9859   56.9566 C   0  0  0  0  0  0  0  0  0  0  0  0
   26.4445   12.7022   57.3349 C   0  0  0  0  0  0  0  0  0  0  0  0
   27.7160   12.2607   57.0382 C   0  0  0  0  0  0  0  0  0  0  0  0
   27.8688   11.0708   56.3439 C   0  0  0  0  0  0  0  0  0  0  0  0
   26.7327   10.4004   55.9922 C   0  0  0  0  0  0  0  0  0  0  0  0
   26.6171    9.2293   55.2962 C   0  0  0  0  0  0  0  0  0  0  0  0
   27.4936    8.3015   54.7529 C   0  0  0  0  0  0  0  0  0  0  0  0
   28.9786    8.3418   54.7564 C   0  0  0  0  0  0  0  0  0  0  0  0
   29.3790    7.1547   54.0555 N   0  0  0  0  0  0  0  0  0  0  0  0
   28.2177    6.3978   53.6471 C   0  0  0  0  0  0  0  0  0  0  0  0
   28.3694    5.3311   53.0331 O   0  0  0  0  0  0  0  0  0  0  0  0
   27.0823    7.1512   54.1025 C   0  0  0  0  0  0  0  0  0  0  0  0
   25.7283    6.8870   53.9676 C   0  0  0  0  0  0  0  0  0  0  0  0
   24.9636    5.9362   53.3700 C   0  0  0  0  0  0  0  0  0  0  0  0
   25.2416    4.7892   52.6918 C   0  0  0  0  0  0  0  0  0  0  0  0
   24.1505    4.0444   52.2082 C   0  0  0  0  0  0  0  0  0  0  0  0
   22.8457    4.4337   52.3976 C   0  0  0  0  0  0  0  0  0  0  0  0
   22.5734    5.6028   53.0895 C   0  0  0  0  0  0  0  0  0  0  0  0
   23.6566    6.3232   53.5579 C   0  0  0  0  0  0  0  0  0  0  0  0
   23.5916    7.4520   54.2361 N   0  0  0  0  0  0  0  0  0  0  0  0
   24.8751    7.8198   54.5130 C   0  0  0  0  0  0  0  0  0  0  0  0
   25.3019    8.9746   55.1769 C   0  0  0  0  0  0  0  0  0  0  0  0
   30.3793    6.9150   53.8873 H   0  0  0  0  0  0  0  0  0  0  0  0
   20.0163   11.0580   56.5153 C   0  0  0  0  0  0  0  0  0  0  0  0
   19.7802   10.0008   55.5556 N   0  0  0  0  0  0  0  0  0  0  0  0
   19.6364    9.1267   56.0685 H   0  0  0  0  0  0  0  0  0  0  0  0
   22.6351   11.5540   54.2479 O   0  0  0  0  0  0  0  0  0  0  0  0
   21.8998   11.5669   53.0689 C   0  0  0  0  0  0  0  0  0  0  0  0
 33 34  1  0  0  0
 34  1  1  0  0  0
  1  2  1  0  0  0
  2  3  1  0  0  0
  3  4  1  0  0  0
  4  5  1  0  0  0
  5  6  1  0  0  0
  5  7  1  0  0  0
  7 36  1  0  0  0
 36 37  1  0  0  0
  5  8  1  0  0  0
  8  9  1  0  0  0
  9 10  2  0  0  0
 10 11  1  0  0  0
 11 12  2  0  0  0
 12 13  1  0  0  0
 13 14  2  0  0  0
 14 15  1  0  0  0
 15 16  2  0  0  0
 16 17  1  0  0  0
 17 18  1  0  0  0
 18 19  1  0  0  0
 19 20  2  0  0  0
 19 21  1  0  0  0
 21 22  2  0  0  0
 22 23  1  0  0  0
 23 24  2  0  0  0
 24 25  1  0  0  0
 25 26  2  0  0  0
 26 27  1  0  0  0
 27 28  2  0  0  0
 28 29  1  0  0  0
 29 30  1  0  0  0
 30 31  2  0  0  0
  7  1  1  0  0  0
 31  8  1  0  0  0
 29  3  1  0  0  0
 14  9  1  0  0  0
 31 15  1  0  0  0
 21 16  1  0  0  0
 30 22  1  0  0  0
 28 23  1  0  0  0
 34 35  1  0  0  0
 18 32  1  0  0  0
M  END
> <minimizedAffinity>
90.48729

> <CNNscore>
0.1941563934

> <CNNaffinity>
5.9075112343

> <CNN_VS>
1.1469811201

> <CNNaffinity_variance>
0.4708147943

$$$$
[H]c1c([H])c([H])c2c(c1[H])c1c3c(c4c5c([H])c([H])c([H])c([H])c5n5c4c1n2[C@]1([H])O[C@]5(C([H])([H])[H])[C@@]([H])(OC([H])([H])[H])[C@]([H])(N([H])C([H])([H])[H])C1([H])[H])C([H])([H])N([H])C3=O


 37 44  0  0  0  0  0  0  0  0999 V2000
   24.4752    4.3178   53.4214 C   0  0  0  0  0  0  0  0  0  0  0  0
   23.4512    5.0088   52.4640 C   0  0  0  0  0  0  0  0  0  0  0  0
   23.5449    6.3193   52.8713 C   0  0  0  0  0  0  0  0  0  0  0  0
   24.8600    6.6752   52.6176 O   0  0  0  0  0  0  0  0  0  0  0  0
   25.5136    6.6151   53.8890 C   0  0  0  0  0  0  0  0  0  0  0  0
   27.0003    6.7389   53.4552 C   0  0  0  0  0  0  0  0  0  0  0  0
   25.1790    5.3006   54.3772 C   0  0  0  0  0  0  0  0  0  0  0  0
   25.2029    7.8462   54.5691 N   0  0  0  0  0  0  0  0  0  0  0  0
   25.9985    8.4696   55.4951 C   0  0  0  0  0  0  0  0  0  0  0  0
   27.1456    8.1085   56.1422 C   0  0  0  0  0  0  0  0  0  0  0  0
   27.7335    8.9673   57.0636 C   0  0  0  0  0  0  0  0  0  0  0  0
   27.1890   10.1990   57.3566 C   0  0  0  0  0  0  0  0  0  0  0  0
   26.0243   10.5886   56.7139 C   0  0  0  0  0  0  0  0  0  0  0  0
   25.4813    9.7142   55.8169 C   0  0  0  0  0  0  0  0  0  0  0  0
   24.3407    9.8543   55.0762 C   0  0  0  0  0  0  0  0  0  0  0  0
   23.3826   10.8414   54.8977 C   0  0  0  0  0  0  0  0  0  0  0  0
   23.3091   12.1688   55.5607 C   0  0  0  0  0  0  0  0  0  0  0  0
   22.1241   12.7793   55.0280 N   0  0  0  0  0  0  0  0  0  0  0  0
   21.4932   11.8989   54.0714 C   0  0  0  0  0  0  0  0  0  0  0  0
   20.4556   12.2635   53.4982 O   0  0  0  0  0  0  0  0  0  0  0  0
   22.3108   10.7184   54.0307 C   0  0  0  0  0  0  0  0  0  0  0  0
   22.1580    9.5564   53.2906 C   0  0  0  0  0  0  0  0  0  0  0  0
   21.2458    9.0565   52.4165 C   0  0  0  0  0  0  0  0  0  0  0  0
   20.1069    9.5478   51.8559 C   0  0  0  0  0  0  0  0  0  0  0  0
   19.4100    8.7082   50.9680 C   0  0  0  0  0  0  0  0  0  0  0  0
   19.8375    7.4385   50.6594 C   0  0  0  0  0  0  0  0  0  0  0  0
   20.9983    6.9480   51.2352 C   0  0  0  0  0  0  0  0  0  0  0  0
   21.6711    7.7853   52.1056 C   0  0  0  0  0  0  0  0  0  0  0  0
   22.7883    7.4928   52.7418 N   0  0  0  0  0  0  0  0  0  0  0  0
   23.1188    8.5891   53.4823 C   0  0  0  0  0  0  0  0  0  0  0  0
   24.2036    8.7278   54.3543 C   0  0  0  0  0  0  0  0  0  0  0  0
   21.8023   13.7263   55.3216 H   0  0  0  0  0  0  0  0  0  0  0  0
   25.0910    2.0964   53.0669 C   0  0  0  0  0  0  0  0  0  0  0  0
   25.3560    3.4716   52.7021 N   0  0  0  0  0  0  0  0  0  0  0  0
   26.3289    3.6855   52.9381 H   0  0  0  0  0  0  0  0  0  0  0  0
   24.7106    5.1805   55.6914 O   0  0  0  0  0  0  0  0  0  0  0  0
   23.3462    5.4101   55.8204 C   0  0  0  0  0  0  0  0  0  0  0  0
 33 34  1  0  0  0
 34  1  1  0  0  0
  1  2  1  0  0  0
  2  3  1  0  0  0
  3  4  1  0  0  0
  4  5  1  0  0  0
  5  6  1  0  0  0
  5  7  1  0  0  0
  7 36  1  0  0  0
 36 37  1  0  0  0
  5  8  1  0  0  0
  8  9  1  0  0  0
  9 10  2  0  0  0
 10 11  1  0  0  0
 11 12  2  0  0  0
 12 13  1  0  0  0
 13 14  2  0  0  0
 14 15  1  0  0  0
 15 16  2  0  0  0
 16 17  1  0  0  0
 17 18  1  0  0  0
 18 19  1  0  0  0
 19 20  2  0  0  0
 19 21  1  0  0  0
 21 22  2  0  0  0
 22 23  1  0  0  0
 23 24  2  0  0  0
 24 25  1  0  0  0
 25 26  2  0  0  0
 26 27  1  0  0  0
 27 28  2  0  0  0
 28 29  1  0  0  0
 29 30  1  0  0  0
 30 31  2  0  0  0
  7  1  1  0  0  0
 31  8  1  0  0  0
 29  3  1  0  0  0
 14  9  1  0  0  0
 31 15  1  0  0  0
 21 16  1  0  0  0
 30 22  1  0  0  0
 28 23  1  0  0  0
 34 35  1  0  0  0
 18 32  1  0  0  0
M  END
> <minimizedAffinity>
88.41293

> <CNNscore>
0.1928667426

> <CNNaffinity>
5.7067699432

> <CNN_VS>
1.1006461382

> <CNNaffinity_variance>
0.8013479114

$$$$
[H]c1c([H])c([H])c2c(c1[H])c1c3c(c4c5c([H])c([H])c([H])c([H])c5n5c4c1n2[C@]1([H])O[C@]5(C([H])([H])[H])[C@@]([H])(OC([H])([H])[H])[C@]([H])(N([H])C([H])([H])[H])C1([H])[H])C([H])([H])N([H])C3=O


 37 44  0  0  0  0  0  0  0  0999 V2000
   27.1824    7.7949   54.7873 C   0  0  0  0  0  0  0  0  0  0  0  0
   26.8651    6.4388   54.0779 C   0  0  0  0  0  0  0  0  0  0  0  0
   25.5112    6.5571   53.8658 C   0  0  0  0  0  0  0  0  0  0  0  0
   25.3785    7.6565   53.0328 O   0  0  0  0  0  0  0  0  0  0  0  0
   24.9681    8.7258   53.8903 C   0  0  0  0  0  0  0  0  0  0  0  0
   25.1315    9.9404   52.9353 C   0  0  0  0  0  0  0  0  0  0  0  0
   25.9496    8.7058   54.9459 C   0  0  0  0  0  0  0  0  0  0  0  0
   23.5493    8.5733   54.0865 N   0  0  0  0  0  0  0  0  0  0  0  0
   22.6630    9.5904   54.3297 C   0  0  0  0  0  0  0  0  0  0  0  0
   22.8121   10.9203   54.6016 C   0  0  0  0  0  0  0  0  0  0  0  0
   21.6984   11.7221   54.8227 C   0  0  0  0  0  0  0  0  0  0  0  0
   20.4183   11.2133   54.7776 C   0  0  0  0  0  0  0  0  0  0  0  0
   20.2403    9.8661   54.5043 C   0  0  0  0  0  0  0  0  0  0  0  0
   21.3615    9.1161   54.2938 C   0  0  0  0  0  0  0  0  0  0  0  0
   21.4523    7.7781   54.0284 C   0  0  0  0  0  0  0  0  0  0  0  0
   20.5565    6.7370   53.8337 C   0  0  0  0  0  0  0  0  0  0  0  0
   19.0730    6.7904   53.8910 C   0  0  0  0  0  0  0  0  0  0  0  0
   18.6476    5.4443   53.6301 N   0  0  0  0  0  0  0  0  0  0  0  0
   19.7923    4.5918   53.4035 C   0  0  0  0  0  0  0  0  0  0  0  0
   19.6179    3.3899   53.1527 O   0  0  0  0  0  0  0  0  0  0  0  0
   20.9431    5.4406   53.5416 C   0  0  0  0  0  0  0  0  0  0  0  0
   22.2908    5.1347   53.4357 C   0  0  0  0  0  0  0  0  0  0  0  0
   23.0355    4.0172   53.2296 C   0  0  0  0  0  0  0  0  0  0  0  0
   22.7334    2.7144   52.9757 C   0  0  0  0  0  0  0  0  0  0  0  0
   23.8086    1.8217   52.8148 C   0  0  0  0  0  0  0  0  0  0  0  0
   25.1215    2.2196   52.9044 C   0  0  0  0  0  0  0  0  0  0  0  0
   25.4184    3.5480   53.1629 C   0  0  0  0  0  0  0  0  0  0  0  0
   24.3505    4.4123   53.3187 C   0  0  0  0  0  0  0  0  0  0  0  0
   24.4393    5.7045   53.5650 N   0  0  0  0  0  0  0  0  0  0  0  0
   23.1635    6.1813   53.6328 C   0  0  0  0  0  0  0  0  0  0  0  0
   22.7615    7.4902   53.9181 C   0  0  0  0  0  0  0  0  0  0  0  0
   17.6428    5.1677   53.6178 H   0  0  0  0  0  0  0  0  0  0  0  0
   28.1189    9.8632   54.2545 C   0  0  0  0  0  0  0  0  0  0  0  0
   28.3046    8.4291   54.1977 N   0  0  0  0  0  0  0  0  0  0  0  0
   28.3946    8.1549   53.2155 H   0  0  0  0  0  0  0  0  0  0  0  0
   25.4995    8.7533   56.2710 O   0  0  0  0  0  0  0  0  0  0  0  0
   25.7976    9.9458   56.9190 C   0  0  0  0  0  0  0  0  0  0  0  0
 33 34  1  0  0  0
 34  1  1  0  0  0
  1  2  1  0  0  0
  2  3  1  0  0  0
  3  4  1  0  0  0
  4  5  1  0  0  0
  5  6  1  0  0  0
  5  7  1  0  0  0
  7 36  1  0  0  0
 36 37  1  0  0  0
  5  8  1  0  0  0
  8  9  1  0  0  0
  9 10  2  0  0  0
 10 11  1  0  0  0
 11 12  2  0  0  0
 12 13  1  0  0  0
 13 14  2  0  0  0
 14 15  1  0  0  0
 15 16  2  0  0  0
 16 17  1  0  0  0
 17 18  1  0  0  0
 18 19  1  0  0  0
 19 20  2  0  0  0
 19 21  1  0  0  0
 21 22  2  0  0  0
 22 23  1  0  0  0
 23 24  2  0  0  0
 24 25  1  0  0  0
 25 26  2  0  0  0
 26 27  1  0  0  0
 27 28  2  0  0  0
 28 29  1  0  0  0
 29 30  1  0  0  0
 30 31  2  0  0  0
  7  1  1  0  0  0
 31  8  1  0  0  0
 29  3  1  0  0  0
 14  9  1  0  0  0
 31 15  1  0  0  0
 21 16  1  0  0  0
 30 22  1  0  0  0
 28 23  1  0  0  0
 34 35  1  0  0  0
 18 32  1  0  0  0
M  END
> <minimizedAffinity>
87.48401

> <CNNscore>
0.1826239675

> <CNNaffinity>
5.9896621704

> <CNN_VS>
1.0938558578

> <CNNaffinity_variance>
1.1380234957

$$$$
[H]c1c([H])c([H])c2c(c1[H])c1c3c(c4c5c([H])c([H])c([H])c([H])c5n5c4c1n2[C@]1([H])O[C@]5(C([H])([H])[H])[C@@]([H])(OC([H])([H])[H])[C@]([H])(N([H])C([H])([H])[H])C1([H])[H])C([H])([H])N([H])C3=O


 37 44  0  0  0  0  0  0  0  0999 V2000
   27.6083   11.3386   56.7636 C   0  0  0  0  0  0  0  0  0  0  0  0
   26.0687   11.3352   57.0324 C   0  0  0  0  0  0  0  0  0  0  0  0
   25.6743   10.2262   56.3206 C   0  0  0  0  0  0  0  0  0  0  0  0
   26.3383    9.1674   56.9192 O   0  0  0  0  0  0  0  0  0  0  0  0
   27.4399    8.8809   56.0523 C   0  0  0  0  0  0  0  0  0  0  0  0
   28.2605    7.9060   56.9410 C   0  0  0  0  0  0  0  0  0  0  0  0
   28.0791   10.1623   55.8864 C   0  0  0  0  0  0  0  0  0  0  0  0
   26.9174    8.0795   54.9755 N   0  0  0  0  0  0  0  0  0  0  0  0
   27.6204    7.1422   54.2639 C   0  0  0  0  0  0  0  0  0  0  0  0
   28.9403    6.7951   54.2170 C   0  0  0  0  0  0  0  0  0  0  0  0
   29.3723    5.7858   53.3644 C   0  0  0  0  0  0  0  0  0  0  0  0
   28.4978    5.1061   52.5442 C   0  0  0  0  0  0  0  0  0  0  0  0
   27.1529    5.4403   52.5724 C   0  0  0  0  0  0  0  0  0  0  0  0
   26.7730    6.4372   53.4244 C   0  0  0  0  0  0  0  0  0  0  0  0
   25.5241    6.9576   53.6215 C   0  0  0  0  0  0  0  0  0  0  0  0
   24.2492    6.7007   53.1390 C   0  0  0  0  0  0  0  0  0  0  0  0
   23.8440    5.6831   52.1355 C   0  0  0  0  0  0  0  0  0  0  0  0
   22.4255    5.8526   51.9940 N   0  0  0  0  0  0  0  0  0  0  0  0
   21.9565    6.9032   52.8684 C   0  0  0  0  0  0  0  0  0  0  0  0
   20.7493    7.1866   52.8889 O   0  0  0  0  0  0  0  0  0  0  0  0
   23.1228    7.3917   53.5503 C   0  0  0  0  0  0  0  0  0  0  0  0
   23.2443    8.4027   54.4907 C   0  0  0  0  0  0  0  0  0  0  0  0
   22.4189    9.3084   55.0775 C   0  0  0  0  0  0  0  0  0  0  0  0
   21.0805    9.5476   55.0126 C   0  0  0  0  0  0  0  0  0  0  0  0
   20.5750   10.6053   55.7902 C   0  0  0  0  0  0  0  0  0  0  0  0
   21.3757   11.3831   56.5928 C   0  0  0  0  0  0  0  0  0  0  0  0
   22.7369   11.1312   56.6519 C   0  0  0  0  0  0  0  0  0  0  0  0
   23.2176   10.0886   55.8817 C   0  0  0  0  0  0  0  0  0  0  0  0
   24.4764    9.7025   55.8133 N   0  0  0  0  0  0  0  0  0  0  0  0
   24.5175    8.6423   54.9567 C   0  0  0  0  0  0  0  0  0  0  0  0
   25.6480    7.9312   54.5411 C   0  0  0  0  0  0  0  0  0  0  0  0
   21.8559    5.2763   51.3383 H   0  0  0  0  0  0  0  0  0  0  0  0
   27.8192   12.6408   58.6869 C   0  0  0  0  0  0  0  0  0  0  0  0
   28.3367   11.4953   57.9694 N   0  0  0  0  0  0  0  0  0  0  0  0
   29.3268   11.6612   57.7696 H   0  0  0  0  0  0  0  0  0  0  0  0
   28.4115   10.5748   54.5901 O   0  0  0  0  0  0  0  0  0  0  0  0
   29.3781   11.5725   54.5529 C   0  0  0  0  0  0  0  0  0  0  0  0
 33 34  1  0  0  0
 34  1  1  0  0  0
  1  2  1  0  0  0
  2  3  1  0  0  0
  3  4  1  0  0  0
  4  5  1  0  0  0
  5  6  1  0  0  0
  5  7  1  0  0  0
  7 36  1  0  0  0
 36 37  1  0  0  0
  5  8  1  0  0  0
  8  9  1  0  0  0
  9 10  2  0  0  0
 10 11  1  0  0  0
 11 12  2  0  0  0
 12 13  1  0  0  0
 13 14  2  0  0  0
 14 15  1  0  0  0
 15 16  2  0  0  0
 16 17  1  0  0  0
 17 18  1  0  0  0
 18 19  1  0  0  0
 19 20  2  0  0  0
 19 21  1  0  0  0
 21 22  2  0  0  0
 22 23  1  0  0  0
 23 24  2  0  0  0
 24 25  1  0  0  0
 25 26  2  0  0  0
 26 27  1  0  0  0
 27 28  2  0  0  0
 28 29  1  0  0  0
 29 30  1  0  0  0
 30 31  2  0  0  0
  7  1  1  0  0  0
 31  8  1  0  0  0
 29  3  1  0  0  0
 14  9  1  0  0  0
 31 15  1  0  0  0
 21 16  1  0  0  0
 30 22  1  0  0  0
 28 23  1  0  0  0
 34 35  1  0  0  0
 18 32  1  0  0  0
M  END
> <minimizedAffinity>
84.07242

> <CNNscore>
0.1768364608

> <CNNaffinity>
5.8186240196

> <CNN_VS>
1.0289448500

> <CNNaffinity_variance>
0.8436062932

$$$$
[H]c1c([H])c([H])c2c(c1[H])c1c3c(c4c5c([H])c([H])c([H])c([H])c5n5c4c1n2[C@]1([H])O[C@]5(C([H])([H])[H])[C@@]([H])(OC([H])([H])[H])[C@]([H])(N([H])C([H])([H])[H])C1([H])[H])C([H])([H])N([H])C3=O


 37 44  0  0  0  0  0  0  0  0999 V2000
   21.6013    5.0147   53.5157 C   0  0  0  0  0  0  0  0  0  0  0  0
   21.0933    6.4473   53.8796 C   0  0  0  0  0  0  0  0  0  0  0  0
   22.2817    7.1240   54.0277 C   0  0  0  0  0  0  0  0  0  0  0  0
   22.8852    7.0555   52.7821 O   0  0  0  0  0  0  0  0  0  0  0  0
   23.8751    6.0297   52.9039 C   0  0  0  0  0  0  0  0  0  0  0  0
   24.2756    5.8368   51.4152 C   0  0  0  0  0  0  0  0  0  0  0  0
   23.1369    4.9116   53.4359 C   0  0  0  0  0  0  0  0  0  0  0  0
   25.0175    6.6349   53.5389 N   0  0  0  0  0  0  0  0  0  0  0  0
   26.3230    6.2556   53.3627 C   0  0  0  0  0  0  0  0  0  0  0  0
   26.9168    5.1998   52.7323 C   0  0  0  0  0  0  0  0  0  0  0  0
   28.3007    5.0689   52.7314 C   0  0  0  0  0  0  0  0  0  0  0  0
   29.1160    5.9862   53.3585 C   0  0  0  0  0  0  0  0  0  0  0  0
   28.5377    7.0665   54.0064 C   0  0  0  0  0  0  0  0  0  0  0  0
   27.1755    7.1555   53.9821 C   0  0  0  0  0  0  0  0  0  0  0  0
   26.3748    8.1039   54.5554 C   0  0  0  0  0  0  0  0  0  0  0  0
   26.5722    9.2701   55.2801 C   0  0  0  0  0  0  0  0  0  0  0  0
   27.8631    9.8693   55.7059 C   0  0  0  0  0  0  0  0  0  0  0  0
   27.4963   11.0525   56.4313 N   0  0  0  0  0  0  0  0  0  0  0  0
   26.0592   11.2039   56.4497 C   0  0  0  0  0  0  0  0  0  0  0  0
   25.5557   12.1794   57.0267 O   0  0  0  0  0  0  0  0  0  0  0  0
   25.5399   10.0770   55.7258 C   0  0  0  0  0  0  0  0  0  0  0  0
   24.2275    9.7246   55.4521 C   0  0  0  0  0  0  0  0  0  0  0  0
   22.9934   10.2049   55.7557 C   0  0  0  0  0  0  0  0  0  0  0  0
   22.5453   11.3015   56.4263 C   0  0  0  0  0  0  0  0  0  0  0  0
   21.1526   11.4660   56.5374 C   0  0  0  0  0  0  0  0  0  0  0  0
   20.2560   10.5727   56.0007 C   0  0  0  0  0  0  0  0  0  0  0  0
   20.7224    9.4598   55.3198 C   0  0  0  0  0  0  0  0  0  0  0  0
   22.0935    9.3127   55.2197 C   0  0  0  0  0  0  0  0  0  0  0  0
   22.7162    8.3237   54.6094 N   0  0  0  0  0  0  0  0  0  0  0  0
   24.0528    8.5640   54.7323 C   0  0  0  0  0  0  0  0  0  0  0  0
   25.1041    7.7608   54.2784 C   0  0  0  0  0  0  0  0  0  0  0  0
   28.2026   11.6826   56.8678 H   0  0  0  0  0  0  0  0  0  0  0  0
   19.7909    3.7187   52.8215 C   0  0  0  0  0  0  0  0  0  0  0  0
   20.9226    4.5055   52.3803 N   0  0  0  0  0  0  0  0  0  0  0  0
   21.5426    3.9001   51.8353 H   0  0  0  0  0  0  0  0  0  0  0  0
   23.6738    4.2226   54.5304 O   0  0  0  0  0  0  0  0  0  0  0  0
   23.6088    4.9327   55.7231 C   0  0  0  0  0  0  0  0  0  0  0  0
 33 34  1  0  0  0
 34  1  1  0  0  0
  1  2  1  0  0  0
  2  3  1  0  0  0
  3  4  1  0  0  0
  4  5  1  0  0  0
  5  6  1  0  0  0
  5  7  1  0  0  0
  7 36  1  0  0  0
 36 37  1  0  0  0
  5  8  1  0  0  0
  8  9  1  0  0  0
  9 10  2  0  0  0
 10 11  1  0  0  0
 11 12  2  0  0  0
 12 13  1  0  0  0
 13 14  2  0  0  0
 14 15  1  0  0  0
 15 16  2  0  0  0
 16 17  1  0  0  0
 17 18  1  0  0  0
 18 19  1  0  0  0
 19 20  2  0  0  0
 19 21  1  0  0  0
 21 22  2  0  0  0
 22 23  1  0  0  0
 23 24  2  0  0  0
 24 25  1  0  0  0
 25 26  2  0  0  0
 26 27  1  0  0  0
 27 28  2  0  0  0
 28 29  1  0  0  0
 29 30  1  0  0  0
 30 31  2  0  0  0
  7  1  1  0  0  0
 31  8  1  0  0  0
 29  3  1  0  0  0
 14  9  1  0  0  0
 31 15  1  0  0  0
 21 16  1  0  0  0
 30 22  1  0  0  0
 28 23  1  0  0  0
 34 35  1  0  0  0
 18 32  1  0  0  0
M  END
> <minimizedAffinity>
92.76593

> <CNNscore>
0.1651979089

> <CNNaffinity>
5.5753831863

> <CNN_VS>
0.9210416675

> <CNNaffinity_variance>
1.5043985844

$$$$
[H]c1c([H])c([H])c2c(c1[H])c1c3c(c4c5c([H])c([H])c([H])c([H])c5n5c4c1n2[C@]1([H])O[C@]5(C([H])([H])[H])[C@@]([H])(OC([H])([H])[H])[C@]([H])(N([H])C([H])([H])[H])C1([H])[H])C([H])([H])N([H])C3=O


 37 44  0  0  0  0  0  0  0  0999 V2000
   21.7889   10.2104   55.5037 C   0  0  0  0  0  0  0  0  0  0  0  0
   23.2746   10.1557   55.0215 C   0  0  0  0  0  0  0  0  0  0  0  0
   23.3251    8.9062   54.4484 C   0  0  0  0  0  0  0  0  0  0  0  0
   22.4118    8.9576   53.4075 O   0  0  0  0  0  0  0  0  0  0  0  0
   21.2487    8.2846   53.8992 C   0  0  0  0  0  0  0  0  0  0  0  0
   20.2168    8.6488   52.7964 C   0  0  0  0  0  0  0  0  0  0  0  0
   20.9849    8.9430   55.1542 C   0  0  0  0  0  0  0  0  0  0  0  0
   21.4967    6.8737   53.7494 N   0  0  0  0  0  0  0  0  0  0  0  0
   20.5407    5.9120   53.5481 C   0  0  0  0  0  0  0  0  0  0  0  0
   19.1755    5.9248   53.5785 C   0  0  0  0  0  0  0  0  0  0  0  0
   18.4558    4.7596   53.3406 C   0  0  0  0  0  0  0  0  0  0  0  0
   19.0831    3.5627   53.0694 C   0  0  0  0  0  0  0  0  0  0  0  0
   20.4681    3.5232   53.0337 C   0  0  0  0  0  0  0  0  0  0  0  0
   21.1344    4.6906   53.2731 C   0  0  0  0  0  0  0  0  0  0  0  0
   22.4838    4.9070   53.3124 C   0  0  0  0  0  0  0  0  0  0  0  0
   23.6228    4.1429   53.1048 C   0  0  0  0  0  0  0  0  0  0  0  0
   23.7004    2.6987   52.7660 C   0  0  0  0  0  0  0  0  0  0  0  0
   25.1055    2.4179   52.6779 N   0  0  0  0  0  0  0  0  0  0  0  0
   25.8729    3.6165   52.9288 C   0  0  0  0  0  0  0  0  0  0  0  0
   27.1114    3.5682   52.8862 O   0  0  0  0  0  0  0  0  0  0  0  0
   24.9082    4.6493   53.1868 C   0  0  0  0  0  0  0  0  0  0  0  0
   25.0995    5.9871   53.4951 C   0  0  0  0  0  0  0  0  0  0  0  0
   26.1605    6.8068   53.7149 C   0  0  0  0  0  0  0  0  0  0  0  0
   27.5103    6.6408   53.6567 C   0  0  0  0  0  0  0  0  0  0  0  0
   28.3117    7.7565   53.9597 C   0  0  0  0  0  0  0  0  0  0  0  0
   27.7820    8.9777   54.3036 C   0  0  0  0  0  0  0  0  0  0  0  0
   26.4067    9.1362   54.3597 C   0  0  0  0  0  0  0  0  0  0  0  0
   25.6333    8.0302   54.0594 C   0  0  0  0  0  0  0  0  0  0  0  0
   24.3154    7.9935   54.0576 N   0  0  0  0  0  0  0  0  0  0  0  0
   23.9569    6.7280   53.6978 C   0  0  0  0  0  0  0  0  0  0  0  0
   22.6618    6.2081   53.6030 C   0  0  0  0  0  0  0  0  0  0  0  0
   25.4735    1.4668   52.4624 H   0  0  0  0  0  0  0  0  0  0  0  0
   21.3787   11.6191   53.6908 C   0  0  0  0  0  0  0  0  0  0  0  0
   21.1685   11.4222   55.1091 N   0  0  0  0  0  0  0  0  0  0  0  0
   21.5820   12.2143   55.6087 H   0  0  0  0  0  0  0  0  0  0  0  0
   20.7416    8.1487   56.2816 O   0  0  0  0  0  0  0  0  0  0  0  0
   21.7134    7.1803   56.5019 C   0  0  0  0  0  0  0  0  0  0  0  0
 33 34  1  0  0  0
 34  1  1  0  0  0
  1  2  1  0  0  0
  2  3  1  0  0  0
  3  4  1  0  0  0
  4  5  1  0  0  0
  5  6  1  0  0  0
  5  7  1  0  0  0
  7 36  1  0  0  0
 36 37  1  0  0  0
  5  8  1  0  0  0
  8  9  1  0  0  0
  9 10  2  0  0  0
 10 11  1  0  0  0
 11 12  2  0  0  0
 12 13  1  0  0  0
 13 14  2  0  0  0
 14 15  1  0  0  0
 15 16  2  0  0  0
 16 17  1  0  0  0
 17 18  1  0  0  0
 18 19  1  0  0  0
 19 20  2  0  0  0
 19 21  1  0  0  0
 21 22  2  0  0  0
 22 23  1  0  0  0
 23 24  2  0  0  0
 24 25  1  0  0  0
 25 26  2  0  0  0
 26 27  1  0  0  0
 27 28  2  0  0  0
 28 29  1  0  0  0
 29 30  1  0  0  0
 30 31  2  0  0  0
  7  1  1  0  0  0
 31  8  1  0  0  0
 29  3  1  0  0  0
 14  9  1  0  0  0
 31 15  1  0  0  0
 21 16  1  0  0  0
 30 22  1  0  0  0
 28 23  1  0  0  0
 34 35  1  0  0  0
 18 32  1  0  0  0
M  END
> <minimizedAffinity>
70.64238

> <CNNscore>
0.1620001644

> <CNNaffinity>
6.1990308762

> <CNN_VS>
1.0042439699

> <CNNaffinity_variance>
0.3562644422

$$$$
[H]c1c([H])c([H])c2c(c1[H])c1c3c(c4c5c([H])c([H])c([H])c([H])c5n5c4c1n2[C@]1([H])O[C@]5(C([H])([H])[H])[C@@]([H])(OC([H])([H])[H])[C@]([H])(N([H])C([H])([H])[H])C1([H])[H])C([H])([H])N([H])C3=O


 37 44  0  0  0  0  0  0  0  0999 V2000
   20.3521    4.6364   53.8247 C   0  0  0  0  0  0  0  0  0  0  0  0
   19.6336    5.4010   52.6663 C   0  0  0  0  0  0  0  0  0  0  0  0
   20.4085    6.5335   52.5708 C   0  0  0  0  0  0  0  0  0  0  0  0
   21.6685    6.0716   52.2251 O   0  0  0  0  0  0  0  0  0  0  0  0
   22.4220    6.1003   53.4411 C   0  0  0  0  0  0  0  0  0  0  0  0
   23.6886    5.3081   53.0144 C   0  0  0  0  0  0  0  0  0  0  0  0
   21.5914    5.3737   54.3685 C   0  0  0  0  0  0  0  0  0  0  0  0
   22.8572    7.4613   53.6225 N   0  0  0  0  0  0  0  0  0  0  0  0
   23.9993    7.8548   54.2705 C   0  0  0  0  0  0  0  0  0  0  0  0
   24.9277    7.1926   55.0218 C   0  0  0  0  0  0  0  0  0  0  0  0
   26.0020    7.8782   55.5769 C   0  0  0  0  0  0  0  0  0  0  0  0
   26.1694    9.2339   55.3939 C   0  0  0  0  0  0  0  0  0  0  0  0
   25.2401    9.9292   54.6361 C   0  0  0  0  0  0  0  0  0  0  0  0
   24.2013    9.2163   54.1101 C   0  0  0  0  0  0  0  0  0  0  0  0
   23.1572    9.6682   53.3520 C   0  0  0  0  0  0  0  0  0  0  0  0
   22.7703   10.8862   52.8126 C   0  0  0  0  0  0  0  0  0  0  0  0
   23.4530   12.1987   52.9466 C   0  0  0  0  0  0  0  0  0  0  0  0
   22.6302   13.1165   52.2107 N   0  0  0  0  0  0  0  0  0  0  0  0
   21.5025   12.4242   51.6300 C   0  0  0  0  0  0  0  0  0  0  0  0
   20.6829   13.0574   50.9479 O   0  0  0  0  0  0  0  0  0  0  0  0
   21.6385   11.0521   52.0335 C   0  0  0  0  0  0  0  0  0  0  0  0
   20.8261    9.9618   51.7640 C   0  0  0  0  0  0  0  0  0  0  0  0
   19.6512    9.7429   51.1178 C   0  0  0  0  0  0  0  0  0  0  0  0
   18.8067   10.5329   50.3998 C   0  0  0  0  0  0  0  0  0  0  0  0
   17.6533    9.9286   49.8673 C   0  0  0  0  0  0  0  0  0  0  0  0
   17.3643    8.5967   50.0477 C   0  0  0  0  0  0  0  0  0  0  0  0
   18.2307    7.8011   50.7799 C   0  0  0  0  0  0  0  0  0  0  0  0
   19.3592    8.4101   51.2966 C   0  0  0  0  0  0  0  0  0  0  0  0
   20.2926    7.8145   52.0123 N   0  0  0  0  0  0  0  0  0  0  0  0
   21.2270    8.7625   52.3087 C   0  0  0  0  0  0  0  0  0  0  0  0
   22.3784    8.6042   53.0869 C   0  0  0  0  0  0  0  0  0  0  0  0
   22.8542   14.1317   52.1352 H   0  0  0  0  0  0  0  0  0  0  0  0
   19.4509    2.7878   52.7250 C   0  0  0  0  0  0  0  0  0  0  0  0
   20.5851    3.2826   53.4755 N   0  0  0  0  0  0  0  0  0  0  0  0
   20.6889    2.7094   54.3172 H   0  0  0  0  0  0  0  0  0  0  0  0
   21.3560    5.9359   55.6292 O   0  0  0  0  0  0  0  0  0  0  0  0
   21.3926    7.3249   55.6362 C   0  0  0  0  0  0  0  0  0  0  0  0
 33 34  1  0  0  0
 34  1  1  0  0  0
  1  2  1  0  0  0
  2  3  1  0  0  0
  3  4  1  0  0  0
  4  5  1  0  0  0
  5  6  1  0  0  0
  5  7  1  0  0  0
  7 36  1  0  0  0
 36 37  1  0  0  0
  5  8  1  0  0  0
  8  9  1  0  0  0
  9 10  2  0  0  0
 10 11  1  0  0  0
 11 12  2  0  0  0
 12 13  1  0  0  0
 13 14  2  0  0  0
 14 15  1  0  0  0
 15 16  2  0  0  0
 16 17  1  0  0  0
 17 18  1  0  0  0
 18 19  1  0  0  0
 19 20  2  0  0  0
 19 21  1  0  0  0
 21 22  2  0  0  0
 22 23  1  0  0  0
 23 24  2  0  0  0
 24 25  1  0  0  0
 25 26  2  0  0  0
 26 27  1  0  0  0
 27 28  2  0  0  0
 28 29  1  0  0  0
 29 30  1  0  0  0
 30 31  2  0  0  0
  7  1  1  0  0  0
 31  8  1  0  0  0
 29  3  1  0  0  0
 14  9  1  0  0  0
 31 15  1  0  0  0
 21 16  1  0  0  0
 30 22  1  0  0  0
 28 23  1  0  0  0
 34 35  1  0  0  0
 18 32  1  0  0  0
M  END
> <minimizedAffinity>
90.65154

> <CNNscore>
0.1589313596

> <CNNaffinity>
5.6345243454

> <CNN_VS>
0.8955026269

> <CNNaffinity_variance>
1.1227828264

$$$$
[H]c1c([H])c([H])c2c(c1[H])c1c3c(c4c5c([H])c([H])c([H])c([H])c5n5c4c1n2[C@@]1([H])O[C@]5(C([H])([H])[H])[C@]([H])(OC([H])([H])[H])[C@]([H])(N([H])C([H])([H])[H])C1([H])[H])C([H])([H])N([H])C3=O


 37 44  0  0  0  0  0  0  0  0999 V2000
   21.0151   10.1901   53.3519 C   0  0  0  0  0  0  0  0  0  0  0  0
   20.5438    8.7975   53.1644 C   0  0  0  0  0  0  0  0  0  0  0  0
   20.7679    8.0344   54.4378 C   0  0  0  0  0  0  0  0  0  0  0  0
   21.6919    8.5301   55.2700 O   0  0  0  0  0  0  0  0  0  0  0  0
   22.8332    9.1343   54.7356 C   0  0  0  0  0  0  0  0  0  0  0  0
   23.3608    9.9039   55.9616 C   0  0  0  0  0  0  0  0  0  0  0  0
   22.5275   10.1109   53.6508 C   0  0  0  0  0  0  0  0  0  0  0  0
   23.7560    8.0796   54.3601 N   0  0  0  0  0  0  0  0  0  0  0  0
   25.0976    8.1621   54.3158 C   0  0  0  0  0  0  0  0  0  0  0  0
   25.9663    9.2009   54.5462 C   0  0  0  0  0  0  0  0  0  0  0  0
   27.3446    9.0444   54.4231 C   0  0  0  0  0  0  0  0  0  0  0  0
   27.8945    7.8285   54.0604 C   0  0  0  0  0  0  0  0  0  0  0  0
   27.0368    6.7911   53.8284 C   0  0  0  0  0  0  0  0  0  0  0  0
   25.6784    6.9607   53.9541 C   0  0  0  0  0  0  0  0  0  0  0  0
   24.6510    6.0945   53.7612 C   0  0  0  0  0  0  0  0  0  0  0  0
   24.5883    4.7601   53.3843 C   0  0  0  0  0  0  0  0  0  0  0  0
   25.7046    3.8403   53.0772 C   0  0  0  0  0  0  0  0  0  0  0  0
   25.0671    2.6051   52.7505 N   0  0  0  0  0  0  0  0  0  0  0  0
   23.6391    2.7399   52.8495 C   0  0  0  0  0  0  0  0  0  0  0  0
   22.8914    1.7863   52.6105 O   0  0  0  0  0  0  0  0  0  0  0  0
   23.3764    4.1052   53.2489 C   0  0  0  0  0  0  0  0  0  0  0  0
   22.2289    4.8213   53.5001 C   0  0  0  0  0  0  0  0  0  0  0  0
   20.8788    4.5029   53.4488 C   0  0  0  0  0  0  0  0  0  0  0  0
   20.1770    3.3659   53.1470 C   0  0  0  0  0  0  0  0  0  0  0  0
   18.7816    3.4340   53.2060 C   0  0  0  0  0  0  0  0  0  0  0  0
   18.1106    4.5780   53.5487 C   0  0  0  0  0  0  0  0  0  0  0  0
   18.8289    5.7105   53.8489 C   0  0  0  0  0  0  0  0  0  0  0  0
   20.2214    5.6658   53.7967 C   0  0  0  0  0  0  0  0  0  0  0  0
   21.0696    6.6465   54.0506 N   0  0  0  0  0  0  0  0  0  0  0  0
   22.2997    6.1574   53.8781 C   0  0  0  0  0  0  0  0  0  0  0  0
   23.5111    6.7784   54.0062 C   0  0  0  0  0  0  0  0  0  0  0  0
   25.5838    1.7390   52.4800 H   0  0  0  0  0  0  0  0  0  0  0  0
   20.6389   10.5656   55.7073 C   0  0  0  0  0  0  0  0  0  0  0  0
   20.3426   10.9509   54.3592 N   0  0  0  0  0  0  0  0  0  0  0  0
   19.3143   10.8455   54.2137 H   0  0  0  0  0  0  0  0  0  0  0  0
   22.8197   11.4462   53.9743 O   0  0  0  0  0  0  0  0  0  0  0  0
   22.2338   12.2535   53.0045 C   0  0  0  0  0  0  0  0  0  0  0  0
 33 34  1  0  0  0
 34  1  1  0  0  0
  1  2  1  0  0  0
  2  3  1  0  0  0
  3  4  1  0  0  0
  4  5  1  0  0  0
  5  6  1  0  0  0
  5  7  1  0  0  0
  7 36  1  0  0  0
 36 37  1  0  0  0
  5  8  1  0  0  0
  8  9  1  0  0  0
  9 10  2  0  0  0
 10 11  1  0  0  0
 11 12  2  0  0  0
 12 13  1  0  0  0
 13 14  2  0  0  0
 14 15  1  0  0  0
 15 16  2  0  0  0
 16 17  1  0  0  0
 17 18  1  0  0  0
 18 19  1  0  0  0
 19 20  2  0  0  0
 19 21  1  0  0  0
 21 22  2  0  0  0
 22 23  1  0  0  0
 23 24  2  0  0  0
 24 25  1  0  0  0
 25 26  2  0  0  0
 26 27  1  0  0  0
 27 28  2  0  0  0
 28 29  1  0  0  0
 29 30  1  0  0  0
 30 31  2  0  0  0
  7  1  1  0  0  0
 31  8  1  0  0  0
 29  3  1  0  0  0
 14  9  1  0  0  0
 31 15  1  0  0  0
 21 16  1  0  0  0
 30 22  1  0  0  0
 28 23  1  0  0  0
 34 35  1  0  0  0
 18 32  1  0  0  0
M  END
> <minimizedAffinity>
73.20746

> <CNNscore>
0.3024304807

> <CNNaffinity>
6.2942705154

> <CNN_VS>
1.9035792351

> <CNNaffinity_variance>
0.2591982484

$$$$
[H]c1c([H])c([H])c2c(c1[H])c1c3c(c4c5c([H])c([H])c([H])c([H])c5n5c4c1n2[C@@]1([H])O[C@]5(C([H])([H])[H])[C@]([H])(OC([H])([H])[H])[C@]([H])(N([H])C([H])([H])[H])C1([H])[H])C([H])([H])N([H])C3=O


 37 44  0  0  0  0  0  0  0  0999 V2000
   26.6710   12.1075   56.6040 C   0  0  0  0  0  0  0  0  0  0  0  0
   25.2527   11.8589   56.2531 C   0  0  0  0  0  0  0  0  0  0  0  0
   24.8000   10.5973   56.9296 C   0  0  0  0  0  0  0  0  0  0  0  0
   25.7636    9.7423   57.2932 O   0  0  0  0  0  0  0  0  0  0  0  0
   26.8911    9.6033   56.4793 C   0  0  0  0  0  0  0  0  0  0  0  0
   27.8676    8.9051   57.4451 C   0  0  0  0  0  0  0  0  0  0  0  0
   27.4793   10.9089   56.0627 C   0  0  0  0  0  0  0  0  0  0  0  0
   26.5384    8.7197   55.3839 N   0  0  0  0  0  0  0  0  0  0  0  0
   27.3697    7.9120   54.7019 C   0  0  0  0  0  0  0  0  0  0  0  0
   28.7259    7.7073   54.7776 C   0  0  0  0  0  0  0  0  0  0  0  0
   29.3791    6.8080   53.9387 C   0  0  0  0  0  0  0  0  0  0  0  0
   28.6819    6.0824   52.9901 C   0  0  0  0  0  0  0  0  0  0  0  0
   27.3331    6.2814   52.9080 C   0  0  0  0  0  0  0  0  0  0  0  0
   26.7020    7.1727   53.7431 C   0  0  0  0  0  0  0  0  0  0  0  0
   25.3984    7.5409   53.8311 C   0  0  0  0  0  0  0  0  0  0  0  0
   24.2540    7.1660   53.1409 C   0  0  0  0  0  0  0  0  0  0  0  0
   24.1248    6.1805   52.0461 C   0  0  0  0  0  0  0  0  0  0  0  0
   22.7359    6.1974   51.7154 N   0  0  0  0  0  0  0  0  0  0  0  0
   22.0356    7.1330   52.5529 C   0  0  0  0  0  0  0  0  0  0  0  0
   20.8180    7.3047   52.4363 O   0  0  0  0  0  0  0  0  0  0  0  0
   23.0205    7.7215   53.4340 C   0  0  0  0  0  0  0  0  0  0  0  0
   22.9628    8.6627   54.4356 C   0  0  0  0  0  0  0  0  0  0  0  0
   21.9296    9.4195   54.9710 C   0  0  0  0  0  0  0  0  0  0  0  0
   20.5855    9.5106   54.7233 C   0  0  0  0  0  0  0  0  0  0  0  0
   19.8476   10.4167   55.4914 C   0  0  0  0  0  0  0  0  0  0  0  0
   20.4160   11.1984   56.4621 C   0  0  0  0  0  0  0  0  0  0  0  0
   21.7659   11.0954   56.6987 C   0  0  0  0  0  0  0  0  0  0  0  0
   22.5216   10.1984   55.9449 C   0  0  0  0  0  0  0  0  0  0  0  0
   23.8191    9.9656   56.0317 N   0  0  0  0  0  0  0  0  0  0  0  0
   24.1132    9.0327   55.1232 C   0  0  0  0  0  0  0  0  0  0  0  0
   25.3182    8.4655   54.8139 C   0  0  0  0  0  0  0  0  0  0  0  0
   22.3101    5.6065   50.9673 H   0  0  0  0  0  0  0  0  0  0  0  0
   28.1063   13.1135   58.2648 C   0  0  0  0  0  0  0  0  0  0  0  0
   26.9479   12.3151   57.9918 N   0  0  0  0  0  0  0  0  0  0  0  0
   27.0883   11.3822   58.4383 H   0  0  0  0  0  0  0  0  0  0  0  0
   28.7533   11.1665   56.5951 O   0  0  0  0  0  0  0  0  0  0  0  0
   28.8153   10.5689   57.8499 C   0  0  0  0  0  0  0  0  0  0  0  0
 33 34  1  0  0  0
 34  1  1  0  0  0
  1  2  1  0  0  0
  2  3  1  0  0  0
  3  4  1  0  0  0
  4  5  1  0  0  0
  5  6  1  0  0  0
  5  7  1  0  0  0
  7 36  1  0  0  0
 36 37  1  0  0  0
  5  8  1  0  0  0
  8  9  1  0  0  0
  9 10  2  0  0  0
 10 11  1  0  0  0
 11 12  2  0  0  0
 12 13  1  0  0  0
 13 14  2  0  0  0
 14 15  1  0  0  0
 15 16  2  0  0  0
 16 17  1  0  0  0
 17 18  1  0  0  0
 18 19  1  0  0  0
 19 20  2  0  0  0
 19 21  1  0  0  0
 21 22  2  0  0  0
 22 23  1  0  0  0
 23 24  2  0  0  0
 24 25  1  0  0  0
 25 26  2  0  0  0
 26 27  1  0  0  0
 27 28  2  0  0  0
 28 29  1  0  0  0
 29 30  1  0  0  0
 30 31  2  0  0  0
  7  1  1  0  0  0
 31  8  1  0  0  0
 29  3  1  0  0  0
 14  9  1  0  0  0
 31 15  1  0  0  0
 21 16  1  0  0  0
 30 22  1  0  0  0
 28 23  1  0  0  0
 34 35  1  0  0  0
 18 32  1  0  0  0
M  END
> <minimizedAffinity>
76.98332

> <CNNscore>
0.2699545324

> <CNNaffinity>
6.0111913681

> <CNN_VS>
1.6227483749

> <CNNaffinity_variance>
1.2086488008

$$$$
[H]c1c([H])c([H])c2c(c1[H])c1c3c(c4c5c([H])c([H])c([H])c([H])c5n5c4c1n2[C@@]1([H])O[C@]5(C([H])([H])[H])[C@]([H])(OC([H])([H])[H])[C@]([H])(N([H])C([H])([H])[H])C1([H])[H])C([H])([H])N([H])C3=O


 37 44  0  0  0  0  0  0  0  0999 V2000
   20.9910    8.8878   52.9185 C   0  0  0  0  0  0  0  0  0  0  0  0
   21.9396    7.7798   52.6555 C   0  0  0  0  0  0  0  0  0  0  0  0
   22.3046    7.1341   53.9609 C   0  0  0  0  0  0  0  0  0  0  0  0
   22.1274    7.8785   55.0592 O   0  0  0  0  0  0  0  0  0  0  0  0
   22.3673    9.2537   54.9938 C   0  0  0  0  0  0  0  0  0  0  0  0
   21.6531    9.7386   56.2700 C   0  0  0  0  0  0  0  0  0  0  0  0
   21.7328    9.9050   53.8117 C   0  0  0  0  0  0  0  0  0  0  0  0
   23.7996    9.4575   55.1026 N   0  0  0  0  0  0  0  0  0  0  0  0
   24.4230   10.5394   55.6023 C   0  0  0  0  0  0  0  0  0  0  0  0
   23.9504   11.7328   56.0914 C   0  0  0  0  0  0  0  0  0  0  0  0
   24.8094   12.7277   56.5512 C   0  0  0  0  0  0  0  0  0  0  0  0
   26.1808   12.5507   56.5316 C   0  0  0  0  0  0  0  0  0  0  0  0
   26.6583   11.3670   56.0454 C   0  0  0  0  0  0  0  0  0  0  0  0
   25.7979   10.3940   55.5951 C   0  0  0  0  0  0  0  0  0  0  0  0
   26.0391    9.1684   55.0632 C   0  0  0  0  0  0  0  0  0  0  0  0
   27.2015    8.4608   54.7897 C   0  0  0  0  0  0  0  0  0  0  0  0
   28.6020    8.8696   55.0300 C   0  0  0  0  0  0  0  0  0  0  0  0
   29.3789    7.7671   54.5614 N   0  0  0  0  0  0  0  0  0  0  0  0
   28.5195    6.7289   54.0609 C   0  0  0  0  0  0  0  0  0  0  0  0
   28.9863    5.6793   53.6071 O   0  0  0  0  0  0  0  0  0  0  0  0
   27.1610    7.1999   54.2201 C   0  0  0  0  0  0  0  0  0  0  0  0
   25.9266    6.6662   53.9308 C   0  0  0  0  0  0  0  0  0  0  0  0
   25.5184    5.4697   53.3575 C   0  0  0  0  0  0  0  0  0  0  0  0
   26.1758    4.3677   52.8784 C   0  0  0  0  0  0  0  0  0  0  0  0
   25.3985    3.3275   52.3594 C   0  0  0  0  0  0  0  0  0  0  0  0
   24.0303    3.3766   52.3169 C   0  0  0  0  0  0  0  0  0  0  0  0
   23.3853    4.4892   52.8016 C   0  0  0  0  0  0  0  0  0  0  0  0
   24.1401    5.5387   53.3238 C   0  0  0  0  0  0  0  0  0  0  0  0
   23.6976    6.6760   53.8301 N   0  0  0  0  0  0  0  0  0  0  0  0
   24.7665    7.3806   54.2084 C   0  0  0  0  0  0  0  0  0  0  0  0
   24.8364    8.6237   54.7737 C   0  0  0  0  0  0  0  0  0  0  0  0
   30.4224    7.7397   54.5871 H   0  0  0  0  0  0  0  0  0  0  0  0
   19.3146    7.1785   53.2320 C   0  0  0  0  0  0  0  0  0  0  0  0
   19.7412    8.5185   53.5078 N   0  0  0  0  0  0  0  0  0  0  0  0
   19.0080    9.1692   53.1494 H   0  0  0  0  0  0  0  0  0  0  0  0
   20.7011   10.8035   54.1298 O   0  0  0  0  0  0  0  0  0  0  0  0
   21.0142   12.0286   53.5497 C   0  0  0  0  0  0  0  0  0  0  0  0
 33 34  1  0  0  0
 34  1  1  0  0  0
  1  2  1  0  0  0
  2  3  1  0  0  0
  3  4  1  0  0  0
  4  5  1  0  0  0
  5  6  1  0  0  0
  5  7  1  0  0  0
  7 36  1  0  0  0
 36 37  1  0  0  0
  5  8  1  0  0  0
  8  9  1  0  0  0
  9 10  2  0  0  0
 10 11  1  0  0  0
 11 12  2  0  0  0
 12 13  1  0  0  0
 13 14  2  0  0  0
 14 15  1  0  0  0
 15 16  2  0  0  0
 16 17  1  0  0  0
 17 18  1  0  0  0
 18 19  1  0  0  0
 19 20  2  0  0  0
 19 21  1  0  0  0
 21 22  2  0  0  0
 22 23  1  0  0  0
 23 24  2  0  0  0
 24 25  1  0  0  0
 25 26  2  0  0  0
 26 27  1  0  0  0
 27 28  2  0  0  0
 28 29  1  0  0  0
 29 30  1  0  0  0
 30 31  2  0  0  0
  7  1  1  0  0  0
 31  8  1  0  0  0
 29  3  1  0  0  0
 14  9  1  0  0  0
 31 15  1  0  0  0
 21 16  1  0  0  0
 30 22  1  0  0  0
 28 23  1  0  0  0
 34 35  1  0  0  0
 18 32  1  0  0  0
M  END
> <minimizedAffinity>
90.88431

> <CNNscore>
0.2171580344

> <CNNaffinity>
5.8409118652

> <CNN_VS>
1.2684009075

> <CNNaffinity_variance>
0.6238615513

$$$$
[H]c1c([H])c([H])c2c(c1[H])c1c3c(c4c5c([H])c([H])c([H])c([H])c5n5c4c1n2[C@@]1([H])O[C@]5(C([H])([H])[H])[C@]([H])(OC([H])([H])[H])[C@]([H])(N([H])C([H])([H])[H])C1([H])[H])C([H])([H])N([H])C3=O


 37 44  0  0  0  0  0  0  0  0999 V2000
   20.2431    5.2822   54.1276 C   0  0  0  0  0  0  0  0  0  0  0  0
   19.6542    6.3511   53.2866 C   0  0  0  0  0  0  0  0  0  0  0  0
   20.5526    6.5907   52.1078 C   0  0  0  0  0  0  0  0  0  0  0  0
   21.8260    6.2015   52.2455 O   0  0  0  0  0  0  0  0  0  0  0  0
   22.4435    6.3267   53.4930 C   0  0  0  0  0  0  0  0  0  0  0  0
   23.6654    5.4062   53.3108 C   0  0  0  0  0  0  0  0  0  0  0  0
   21.6117    5.8040   54.6151 C   0  0  0  0  0  0  0  0  0  0  0  0
   22.8631    7.7076   53.6410 N   0  0  0  0  0  0  0  0  0  0  0  0
   23.8993    8.1602   54.3691 C   0  0  0  0  0  0  0  0  0  0  0  0
   24.8016    7.5230   55.1856 C   0  0  0  0  0  0  0  0  0  0  0  0
   25.8008    8.2212   55.8589 C   0  0  0  0  0  0  0  0  0  0  0  0
   25.9226    9.5927   55.7306 C   0  0  0  0  0  0  0  0  0  0  0  0
   25.0282   10.2335   54.9212 C   0  0  0  0  0  0  0  0  0  0  0  0
   24.0471    9.5308   54.2628 C   0  0  0  0  0  0  0  0  0  0  0  0
   23.0555    9.9483   53.4349 C   0  0  0  0  0  0  0  0  0  0  0  0
   22.6770   11.1945   52.9550 C   0  0  0  0  0  0  0  0  0  0  0  0
   23.3010   12.5083   53.2217 C   0  0  0  0  0  0  0  0  0  0  0  0
   22.5076   13.4351   52.4799 N   0  0  0  0  0  0  0  0  0  0  0  0
   21.4528   12.7458   51.7875 C   0  0  0  0  0  0  0  0  0  0  0  0
   20.6470   13.3600   51.0812 O   0  0  0  0  0  0  0  0  0  0  0  0
   21.5908   11.3423   52.1099 C   0  0  0  0  0  0  0  0  0  0  0  0
   20.8931   10.2101   51.7582 C   0  0  0  0  0  0  0  0  0  0  0  0
   19.7743    9.9899   50.9667 C   0  0  0  0  0  0  0  0  0  0  0  0
   18.9528   10.8001   50.2285 C   0  0  0  0  0  0  0  0  0  0  0  0
   17.8942   10.1946   49.5443 C   0  0  0  0  0  0  0  0  0  0  0  0
   17.6596    8.8458   49.5891 C   0  0  0  0  0  0  0  0  0  0  0  0
   18.4928    8.0461   50.3340 C   0  0  0  0  0  0  0  0  0  0  0  0
   19.5549    8.6282   51.0247 C   0  0  0  0  0  0  0  0  0  0  0  0
   20.4510    8.0232   51.7840 N   0  0  0  0  0  0  0  0  0  0  0  0
   21.2787    8.9650   52.2422 C   0  0  0  0  0  0  0  0  0  0  0  0
   22.3576    8.8484   53.0741 C   0  0  0  0  0  0  0  0  0  0  0  0
   22.6854   14.4638   52.4578 H   0  0  0  0  0  0  0  0  0  0  0  0
   19.1580    3.2913   53.2975 C   0  0  0  0  0  0  0  0  0  0  0  0
   20.3851    4.0012   53.5076 N   0  0  0  0  0  0  0  0  0  0  0  0
   20.9970    3.4124   54.1146 H   0  0  0  0  0  0  0  0  0  0  0  0
   22.1385    4.6639   55.2442 O   0  0  0  0  0  0  0  0  0  0  0  0
   22.6322    5.0562   56.4843 C   0  0  0  0  0  0  0  0  0  0  0  0
 33 34  1  0  0  0
 34  1  1  0  0  0
  1  2  1  0  0  0
  2  3  1  0  0  0
  3  4  1  0  0  0
  4  5  1  0  0  0
  5  6  1  0  0  0
  5  7  1  0  0  0
  7 36  1  0  0  0
 36 37  1  0  0  0
  5  8  1  0  0  0
  8  9  1  0  0  0
  9 10  2  0  0  0
 10 11  1  0  0  0
 11 12  2  0  0  0
 12 13  1  0  0  0
 13 14  2  0  0  0
 14 15  1  0  0  0
 15 16  2  0  0  0
 16 17  1  0  0  0
 17 18  1  0  0  0
 18 19  1  0  0  0
 19 20  2  0  0  0
 19 21  1  0  0  0
 21 22  2  0  0  0
 22 23  1  0  0  0
 23 24  2  0  0  0
 24 25  1  0  0  0
 25 26  2  0  0  0
 26 27  1  0  0  0
 27 28  2  0  0  0
 28 29  1  0  0  0
 29 30  1  0  0  0
 30 31  2  0  0  0
  7  1  1  0  0  0
 31  8  1  0  0  0
 29  3  1  0  0  0
 14  9  1  0  0  0
 31 15  1  0  0  0
 21 16  1  0  0  0
 30 22  1  0  0  0
 28 23  1  0  0  0
 34 35  1  0  0  0
 18 32  1  0  0  0
M  END
> <minimizedAffinity>
95.33250

> <CNNscore>
0.1898281723

> <CNNaffinity>
5.6400527954

> <CNN_VS>
1.0706409216

> <CNNaffinity_variance>
1.4412305355

$$$$
[H]c1c([H])c([H])c2c(c1[H])c1c3c(c4c5c([H])c([H])c([H])c([H])c5n5c4c1n2[C@@]1([H])O[C@]5(C([H])([H])[H])[C@]([H])(OC([H])([H])[H])[C@]([H])(N([H])C([H])([H])[H])C1([H])[H])C([H])([H])N([H])C3=O


 37 44  0  0  0  0  0  0  0  0999 V2000
   22.2294    4.7436   53.9701 C   0  0  0  0  0  0  0  0  0  0  0  0
   21.9907    6.0549   54.6183 C   0  0  0  0  0  0  0  0  0  0  0  0
   22.3040    7.1456   53.6352 C   0  0  0  0  0  0  0  0  0  0  0  0
   23.1176    6.8157   52.6248 O   0  0  0  0  0  0  0  0  0  0  0  0
   24.1601    5.9147   52.8584 C   0  0  0  0  0  0  0  0  0  0  0  0
   24.5298    5.5117   51.4180 C   0  0  0  0  0  0  0  0  0  0  0  0
   23.7278    4.6964   53.6019 C   0  0  0  0  0  0  0  0  0  0  0  0
   25.2477    6.6491   53.4772 N   0  0  0  0  0  0  0  0  0  0  0  0
   26.5596    6.3649   53.3957 C   0  0  0  0  0  0  0  0  0  0  0  0
   27.2461    5.3415   52.7889 C   0  0  0  0  0  0  0  0  0  0  0  0
   28.6341    5.2505   52.8542 C   0  0  0  0  0  0  0  0  0  0  0  0
   29.3791    6.1935   53.5385 C   0  0  0  0  0  0  0  0  0  0  0  0
   28.7033    7.2134   54.1456 C   0  0  0  0  0  0  0  0  0  0  0  0
   27.3327    7.2901   54.0723 C   0  0  0  0  0  0  0  0  0  0  0  0
   26.4613    8.1868   54.6011 C   0  0  0  0  0  0  0  0  0  0  0  0
   26.6207    9.3241   55.3806 C   0  0  0  0  0  0  0  0  0  0  0  0
   27.8762    9.9263   55.8782 C   0  0  0  0  0  0  0  0  0  0  0  0
   27.4514   11.0695   56.6209 N   0  0  0  0  0  0  0  0  0  0  0  0
   26.0183   11.1803   56.5889 C   0  0  0  0  0  0  0  0  0  0  0  0
   25.4378   12.1038   57.1683 O   0  0  0  0  0  0  0  0  0  0  0  0
   25.5321   10.0679   55.8021 C   0  0  0  0  0  0  0  0  0  0  0  0
   24.2797    9.6430   55.4235 C   0  0  0  0  0  0  0  0  0  0  0  0
   22.9992   10.1186   55.6701 C   0  0  0  0  0  0  0  0  0  0  0  0
   22.4948   11.1871   56.3630 C   0  0  0  0  0  0  0  0  0  0  0  0
   21.1053   11.3427   56.3874 C   0  0  0  0  0  0  0  0  0  0  0  0
   20.2528   10.4781   55.7533 C   0  0  0  0  0  0  0  0  0  0  0  0
   20.7743    9.4109   55.0620 C   0  0  0  0  0  0  0  0  0  0  0  0
   22.1570    9.2359   55.0241 C   0  0  0  0  0  0  0  0  0  0  0  0
   22.8319    8.2774   54.4148 N   0  0  0  0  0  0  0  0  0  0  0  0
   24.1278    8.5032   54.6418 C   0  0  0  0  0  0  0  0  0  0  0  0
   25.2216    7.7889   54.2378 C   0  0  0  0  0  0  0  0  0  0  0  0
   28.1056   11.7193   57.1108 H   0  0  0  0  0  0  0  0  0  0  0  0
   20.0581    4.1185   53.1188 C   0  0  0  0  0  0  0  0  0  0  0  0
   21.4211    4.4511   52.8270 N   0  0  0  0  0  0  0  0  0  0  0  0
   21.8488    3.6420   52.3250 H   0  0  0  0  0  0  0  0  0  0  0  0
   23.7959    3.5081   52.8560 O   0  0  0  0  0  0  0  0  0  0  0  0
   25.0049    2.8892   53.1573 C   0  0  0  0  0  0  0  0  0  0  0  0
 33 34  1  0  0  0
 34  1  1  0  0  0
  1  2  1  0  0  0
  2  3  1  0  0  0
  3  4  1  0  0  0
  4  5  1  0  0  0
  5  6  1  0  0  0
  5  7  1  0  0  0
  7 36  1  0  0  0
 36 37  1  0  0  0
  5  8  1  0  0  0
  8  9  1  0  0  0
  9 10  2  0  0  0
 10 11  1  0  0  0
 11 12  2  0  0  0
 12 13  1  0  0  0
 13 14  2  0  0  0
 14 15  1  0  0  0
 15 16  2  0  0  0
 16 17  1  0  0  0
 17 18  1  0  0  0
 18 19  1  0  0  0
 19 20  2  0  0  0
 19 21  1  0  0  0
 21 22  2  0  0  0
 22 23  1  0  0  0
 23 24  2  0  0  0
 24 25  1  0  0  0
 25 26  2  0  0  0
 26 27  1  0  0  0
 27 28  2  0  0  0
 28 29  1  0  0  0
 29 30  1  0  0  0
 30 31  2  0  0  0
  7  1  1  0  0  0
 31  8  1  0  0  0
 29  3  1  0  0  0
 14  9  1  0  0  0
 31 15  1  0  0  0
 21 16  1  0  0  0
 30 22  1  0  0  0
 28 23  1  0  0  0
 34 35  1  0  0  0
 18 32  1  0  0  0
M  END
> <minimizedAffinity>
94.55312

> <CNNscore>
0.1618391871

> <CNNaffinity>
5.6190519333

> <CNN_VS>
0.9093828201

> <CNNaffinity_variance>
1.6030128002

$$$$
[H]c1c([H])c([H])c2c(c1[H])c1c3c(c4c5c([H])c([H])c([H])c([H])c5n5c4c1n2[C@@]1([H])O[C@]5(C([H])([H])[H])[C@]([H])(OC([H])([H])[H])[C@]([H])(N([H])C([H])([H])[H])C1([H])[H])C([H])([H])N([H])C3=O


 37 44  0  0  0  0  0  0  0  0999 V2000
   21.5413   10.4442   52.4439 C   0  0  0  0  0  0  0  0  0  0  0  0
   22.8079   10.0385   53.0980 C   0  0  0  0  0  0  0  0  0  0  0  0
   23.3851    8.8696   52.3534 C   0  0  0  0  0  0  0  0  0  0  0  0
   22.5267    8.1567   51.6139 O   0  0  0  0  0  0  0  0  0  0  0  0
   21.2202    7.9752   52.0757 C   0  0  0  0  0  0  0  0  0  0  0  0
   20.5136    7.5128   50.7870 C   0  0  0  0  0  0  0  0  0  0  0  0
   20.5826    9.2386   52.5460 C   0  0  0  0  0  0  0  0  0  0  0  0
   21.2433    6.9059   53.0560 N   0  0  0  0  0  0  0  0  0  0  0  0
   20.2371    6.0646   53.3533 C   0  0  0  0  0  0  0  0  0  0  0  0
   18.9438    5.9759   52.8990 C   0  0  0  0  0  0  0  0  0  0  0  0
   18.0649    5.0064   53.3752 C   0  0  0  0  0  0  0  0  0  0  0  0
   18.4637    4.0903   54.3313 C   0  0  0  0  0  0  0  0  0  0  0  0
   19.7480    4.1730   54.7888 C   0  0  0  0  0  0  0  0  0  0  0  0
   20.6043    5.1356   54.3091 C   0  0  0  0  0  0  0  0  0  0  0  0
   21.8953    5.4152   54.6223 C   0  0  0  0  0  0  0  0  0  0  0  0
   22.8042    4.8518   55.5073 C   0  0  0  0  0  0  0  0  0  0  0  0
   22.6089    3.6990   56.4124 C   0  0  0  0  0  0  0  0  0  0  0  0
   23.8606    3.5602   57.0854 N   0  0  0  0  0  0  0  0  0  0  0  0
   24.7856    4.5616   56.6288 C   0  0  0  0  0  0  0  0  0  0  0  0
   25.9335    4.6217   57.0808 O   0  0  0  0  0  0  0  0  0  0  0  0
   24.0875    5.3535   55.6397 C   0  0  0  0  0  0  0  0  0  0  0  0
   24.4369    6.4341   54.8635 C   0  0  0  0  0  0  0  0  0  0  0  0
   25.5974    7.1871   54.7488 C   0  0  0  0  0  0  0  0  0  0  0  0
   26.8300    7.1377   55.3440 C   0  0  0  0  0  0  0  0  0  0  0  0
   27.7721    8.0963   54.9580 C   0  0  0  0  0  0  0  0  0  0  0  0
   27.5049    9.0616   54.0235 C   0  0  0  0  0  0  0  0  0  0  0  0
   26.2634    9.0980   53.4352 C   0  0  0  0  0  0  0  0  0  0  0  0
   25.3083    8.1519   53.8047 C   0  0  0  0  0  0  0  0  0  0  0  0
   24.0736    8.0327   53.3500 N   0  0  0  0  0  0  0  0  0  0  0  0
   23.5214    6.9926   53.9786 C   0  0  0  0  0  0  0  0  0  0  0  0
   22.2608    6.4748   53.8668 C   0  0  0  0  0  0  0  0  0  0  0  0
   24.0550    2.8284   57.8044 H   0  0  0  0  0  0  0  0  0  0  0  0
   21.5980   12.3098   50.9120 C   0  0  0  0  0  0  0  0  0  0  0  0
   21.6481   10.8885   51.0886 N   0  0  0  0  0  0  0  0  0  0  0  0
   20.8609   10.4694   50.5462 H   0  0  0  0  0  0  0  0  0  0  0  0
   19.5034    9.6711   51.7577 O   0  0  0  0  0  0  0  0  0  0  0  0
   19.2387    8.6762   50.8220 C   0  0  0  0  0  0  0  0  0  0  0  0
 33 34  1  0  0  0
 34  1  1  0  0  0
  1  2  1  0  0  0
  2  3  1  0  0  0
  3  4  1  0  0  0
  4  5  1  0  0  0
  5  6  1  0  0  0
  5  7  1  0  0  0
  7 36  1  0  0  0
 36 37  1  0  0  0
  5  8  1  0  0  0
  8  9  1  0  0  0
  9 10  2  0  0  0
 10 11  1  0  0  0
 11 12  2  0  0  0
 12 13  1  0  0  0
 13 14  2  0  0  0
 14 15  1  0  0  0
 15 16  2  0  0  0
 16 17  1  0  0  0
 17 18  1  0  0  0
 18 19  1  0  0  0
 19 20  2  0  0  0
 19 21  1  0  0  0
 21 22  2  0  0  0
 22 23  1  0  0  0
 23 24  2  0  0  0
 24 25  1  0  0  0
 25 26  2  0  0  0
 26 27  1  0  0  0
 27 28  2  0  0  0
 28 29  1  0  0  0
 29 30  1  0  0  0
 30 31  2  0  0  0
  7  1  1  0  0  0
 31  8  1  0  0  0
 29  3  1  0  0  0
 14  9  1  0  0  0
 31 15  1  0  0  0
 21 16  1  0  0  0
 30 22  1  0  0  0
 28 23  1  0  0  0
 34 35  1  0  0  0
 18 32  1  0  0  0
M  END
> <minimizedAffinity>
80.48003

> <CNNscore>
0.1422229260

> <CNNaffinity>
5.8800916672

> <CNN_VS>
0.8362838626

> <CNNaffinity_variance>
0.3935764432

$$$$
[H]c1c([H])c([H])c2c(c1[H])c1c3c(c4c5c([H])c([H])c([H])c([H])c5n5c4c1n2[C@@]1([H])O[C@]5(C([H])([H])[H])[C@]([H])(OC([H])([H])[H])[C@]([H])(N([H])C([H])([H])[H])C1([H])[H])C([H])([H])N([H])C3=O


 37 44  0  0  0  0  0  0  0  0999 V2000
   26.8031    7.8433   55.3757 C   0  0  0  0  0  0  0  0  0  0  0  0
   26.3319    6.5202   54.9023 C   0  0  0  0  0  0  0  0  0  0  0  0
   25.8127    6.6636   53.5009 C   0  0  0  0  0  0  0  0  0  0  0  0
   25.4458    7.8961   53.1290 O   0  0  0  0  0  0  0  0  0  0  0  0
   24.8475    8.7396   54.0690 C   0  0  0  0  0  0  0  0  0  0  0  0
   24.9957   10.1070   53.3747 C   0  0  0  0  0  0  0  0  0  0  0  0
   25.5762    8.7801   55.3696 C   0  0  0  0  0  0  0  0  0  0  0  0
   23.4487    8.3674   54.1686 N   0  0  0  0  0  0  0  0  0  0  0  0
   22.4236    9.1718   54.5015 C   0  0  0  0  0  0  0  0  0  0  0  0
   22.3706   10.4930   54.8736 C   0  0  0  0  0  0  0  0  0  0  0  0
   21.1667   11.1172   55.1899 C   0  0  0  0  0  0  0  0  0  0  0  0
   19.9704   10.4251   55.1419 C   0  0  0  0  0  0  0  0  0  0  0  0
   20.0153    9.1105   54.7738 C   0  0  0  0  0  0  0  0  0  0  0  0
   21.2115    8.5078   54.4643 C   0  0  0  0  0  0  0  0  0  0  0  0
   21.4973    7.2329   54.0958 C   0  0  0  0  0  0  0  0  0  0  0  0
   20.7180    6.1020   53.8948 C   0  0  0  0  0  0  0  0  0  0  0  0
   19.2514    5.9641   54.0238 C   0  0  0  0  0  0  0  0  0  0  0  0
   18.9942    4.5962   53.7054 N   0  0  0  0  0  0  0  0  0  0  0  0
   20.2227    3.9179   53.3925 C   0  0  0  0  0  0  0  0  0  0  0  0
   20.2292    2.7216   53.0852 O   0  0  0  0  0  0  0  0  0  0  0  0
   21.2822    4.8942   53.5224 C   0  0  0  0  0  0  0  0  0  0  0  0
   22.6471    4.8479   53.3570 C   0  0  0  0  0  0  0  0  0  0  0  0
   23.5298    3.8325   53.0152 C   0  0  0  0  0  0  0  0  0  0  0  0
   23.3847    2.5073   52.7006 C   0  0  0  0  0  0  0  0  0  0  0  0
   24.5438    1.7837   52.4037 C   0  0  0  0  0  0  0  0  0  0  0  0
   25.7920    2.3479   52.4177 C   0  0  0  0  0  0  0  0  0  0  0  0
   25.9211    3.6788   52.7350 C   0  0  0  0  0  0  0  0  0  0  0  0
   24.7789    4.4200   53.0347 C   0  0  0  0  0  0  0  0  0  0  0  0
   24.7097    5.6989   53.3588 N   0  0  0  0  0  0  0  0  0  0  0  0
   23.4213    5.9850   53.5593 C   0  0  0  0  0  0  0  0  0  0  0  0
   22.8365    7.1657   53.9247 C   0  0  0  0  0  0  0  0  0  0  0  0
   18.0414    4.1692   53.7064 H   0  0  0  0  0  0  0  0  0  0  0  0
   29.1179    7.6994   54.7037 C   0  0  0  0  0  0  0  0  0  0  0  0
   27.8837    8.4252   54.6413 N   0  0  0  0  0  0  0  0  0  0  0  0
   28.0550    9.3830   55.0192 H   0  0  0  0  0  0  0  0  0  0  0  0
   26.1682   10.0195   55.6634 O   0  0  0  0  0  0  0  0  0  0  0  0
   26.9861    9.8437   56.7751 C   0  0  0  0  0  0  0  0  0  0  0  0
 33 34  1  0  0  0
 34  1  1  0  0  0
  1  2  1  0  0  0
  2  3  1  0  0  0
  3  4  1  0  0  0
  4  5  1  0  0  0
  5  6  1  0  0  0
  5  7  1  0  0  0
  7 36  1  0  0  0
 36 37  1  0  0  0
  5  8  1  0  0  0
  8  9  1  0  0  0
  9 10  2  0  0  0
 10 11  1  0  0  0
 11 12  2  0  0  0
 12 13  1  0  0  0
 13 14  2  0  0  0
 14 15  1  0  0  0
 15 16  2  0  0  0
 16 17  1  0  0  0
 17 18  1  0  0  0
 18 19  1  0  0  0
 19 20  2  0  0  0
 19 21  1  0  0  0
 21 22  2  0  0  0
 22 23  1  0  0  0
 23 24  2  0  0  0
 24 25  1  0  0  0
 25 26  2  0  0  0
 26 27  1  0  0  0
 27 28  2  0  0  0
 28 29  1  0  0  0
 29 30  1  0  0  0
 30 31  2  0  0  0
  7  1  1  0  0  0
 31  8  1  0  0  0
 29  3  1  0  0  0
 14  9  1  0  0  0
 31 15  1  0  0  0
 21 16  1  0  0  0
 30 22  1  0  0  0
 28 23  1  0  0  0
 34 35  1  0  0  0
 18 32  1  0  0  0
M  END
> <minimizedAffinity>
86.40808

> <CNNscore>
0.1416991204

> <CNNaffinity>
5.9386630058

> <CNN_VS>
0.8415033221

> <CNNaffinity_variance>
0.8356949687

$$$$
[H]c1c([H])c([H])c2c(c1[H])c1c3c(c4c5c([H])c([H])c([H])c([H])c5n5c4c1n2[C@@]1([H])O[C@]5(C([H])([H])[H])[C@]([H])(OC([H])([H])[H])[C@]([H])(N([H])C([H])([H])[H])C1([H])[H])C([H])([H])N([H])C3=O


 37 44  0  0  0  0  0  0  0  0999 V2000
   26.8093    8.5391   53.1468 C   0  0  0  0  0  0  0  0  0  0  0  0
   25.5351    8.9641   52.5204 C   0  0  0  0  0  0  0  0  0  0  0  0
   24.6368    9.5277   53.5833 C   0  0  0  0  0  0  0  0  0  0  0  0
   24.8988    9.1505   54.8406 O   0  0  0  0  0  0  0  0  0  0  0  0
   25.3515    7.8500   55.0794 C   0  0  0  0  0  0  0  0  0  0  0  0
   25.9133    7.9908   56.5071 C   0  0  0  0  0  0  0  0  0  0  0  0
   26.4564    7.4360   54.1673 C   0  0  0  0  0  0  0  0  0  0  0  0
   24.1964    6.9721   55.0705 N   0  0  0  0  0  0  0  0  0  0  0  0
   24.0606    5.8139   55.7404 C   0  0  0  0  0  0  0  0  0  0  0  0
   24.9180    5.1109   56.5513 C   0  0  0  0  0  0  0  0  0  0  0  0
   24.5483    3.9020   57.1352 C   0  0  0  0  0  0  0  0  0  0  0  0
   23.2950    3.3591   56.9183 C   0  0  0  0  0  0  0  0  0  0  0  0
   22.4373    4.0519   56.1120 C   0  0  0  0  0  0  0  0  0  0  0  0
   22.8164    5.2443   55.5426 C   0  0  0  0  0  0  0  0  0  0  0  0
   22.1514    6.0846   54.7092 C   0  0  0  0  0  0  0  0  0  0  0  0
   20.8837    6.0598   54.1442 C   0  0  0  0  0  0  0  0  0  0  0  0
   19.8234    5.0435   54.3148 C   0  0  0  0  0  0  0  0  0  0  0  0
   18.7434    5.5191   53.5109 N   0  0  0  0  0  0  0  0  0  0  0  0
   19.1020    6.7589   52.8774 C   0  0  0  0  0  0  0  0  0  0  0  0
   18.3091    7.3478   52.1358 O   0  0  0  0  0  0  0  0  0  0  0  0
   20.4516    7.0662   53.2979 C   0  0  0  0  0  0  0  0  0  0  0  0
   21.3219    8.0977   53.0313 C   0  0  0  0  0  0  0  0  0  0  0  0
   21.2356    9.2339   52.2385 C   0  0  0  0  0  0  0  0  0  0  0  0
   20.2605    9.7677   51.4382 C   0  0  0  0  0  0  0  0  0  0  0  0
   20.5518   10.9650   50.7772 C   0  0  0  0  0  0  0  0  0  0  0  0
   21.7561   11.6055   50.9031 C   0  0  0  0  0  0  0  0  0  0  0  0
   22.7243   11.0574   51.7100 C   0  0  0  0  0  0  0  0  0  0  0  0
   22.4559    9.8640   52.3790 C   0  0  0  0  0  0  0  0  0  0  0  0
   23.2575    9.1962   53.1895 N   0  0  0  0  0  0  0  0  0  0  0  0
   22.5898    8.1162   53.6016 C   0  0  0  0  0  0  0  0  0  0  0  0
   22.9893    7.1095   54.4362 C   0  0  0  0  0  0  0  0  0  0  0  0
   17.8312    5.0209   53.4107 H   0  0  0  0  0  0  0  0  0  0  0  0
   28.5843    9.1117   54.6804 C   0  0  0  0  0  0  0  0  0  0  0  0
   27.5790    9.5719   53.7686 N   0  0  0  0  0  0  0  0  0  0  0  0
   26.9254   10.1910   54.2968 H   0  0  0  0  0  0  0  0  0  0  0  0
   27.6918    7.2394   54.8061 O   0  0  0  0  0  0  0  0  0  0  0  0
   28.5631    6.6796   53.8772 C   0  0  0  0  0  0  0  0  0  0  0  0
 33 34  1  0  0  0
 34  1  1  0  0  0
  1  2  1  0  0  0
  2  3  1  0  0  0
  3  4  1  0  0  0
  4  5  1  0  0  0
  5  6  1  0  0  0
  5  7  1  0  0  0
  7 36  1  0  0  0
 36 37  1  0  0  0
  5  8  1  0  0  0
  8  9  1  0  0  0
  9 10  2  0  0  0
 10 11  1  0  0  0
 11 12  2  0  0  0
 12 13  1  0  0  0
 13 14  2  0  0  0
 14 15  1  0  0  0
 15 16  2  0  0  0
 16 17  1  0  0  0
 17 18  1  0  0  0
 18 19  1  0  0  0
 19 20  2  0  0  0
 19 21  1  0  0  0
 21 22  2  0  0  0
 22 23  1  0  0  0
 23 24  2  0  0  0
 24 25  1  0  0  0
 25 26  2  0  0  0
 26 27  1  0  0  0
 27 28  2  0  0  0
 28 29  1  0  0  0
 29 30  1  0  0  0
 30 31  2  0  0  0
  7  1  1  0  0  0
 31  8  1  0  0  0
 29  3  1  0  0  0
 14  9  1  0  0  0
 31 15  1  0  0  0
 21 16  1  0  0  0
 30 22  1  0  0  0
 28 23  1  0  0  0
 34 35  1  0  0  0
 18 32  1  0  0  0
M  END
> <minimizedAffinity>
85.67903

> <CNNscore>
0.1162128896

> <CNNaffinity>
5.4706087112

> <CNN_VS>
0.6357552409

> <CNNaffinity_variance>
1.8145058155

$$$$
[H]c1c([H])c([H])c2c(c1[H])c1c3c(c4c5c([H])c([H])c([H])c([H])c5n5c4c1n2[C@@]1([H])O[C@]5(C([H])([H])[H])[C@]([H])(OC([H])([H])[H])[C@]([H])(N([H])C([H])([H])[H])C1([H])[H])C([H])([H])N([H])C3=O


 37 44  0  0  0  0  0  0  0  0999 V2000
   25.6452    5.0820   52.9773 C   0  0  0  0  0  0  0  0  0  0  0  0
   24.2169    5.4735   53.0346 C   0  0  0  0  0  0  0  0  0  0  0  0
   24.0559    6.8162   52.3823 C   0  0  0  0  0  0  0  0  0  0  0  0
   25.1575    7.5727   52.3055 O   0  0  0  0  0  0  0  0  0  0  0  0
   26.0839    7.5320   53.3512 C   0  0  0  0  0  0  0  0  0  0  0  0
   27.3162    8.1663   52.6782 C   0  0  0  0  0  0  0  0  0  0  0  0
   26.4295    6.1449   53.7760 C   0  0  0  0  0  0  0  0  0  0  0  0
   25.5874    8.3860   54.4138 N   0  0  0  0  0  0  0  0  0  0  0  0
   26.3233    9.0506   55.3223 C   0  0  0  0  0  0  0  0  0  0  0  0
   27.6759    9.0998   55.5567 C   0  0  0  0  0  0  0  0  0  0  0  0
   28.2135    9.8670   56.5870 C   0  0  0  0  0  0  0  0  0  0  0  0
   27.3997   10.6129   57.4200 C   0  0  0  0  0  0  0  0  0  0  0  0
   26.0534   10.5680   57.1938 C   0  0  0  0  0  0  0  0  0  0  0  0
   25.5373    9.8061   56.1726 C   0  0  0  0  0  0  0  0  0  0  0  0
   24.2555    9.5980   55.7767 C   0  0  0  0  0  0  0  0  0  0  0  0
   23.0301   10.0633   56.2334 C   0  0  0  0  0  0  0  0  0  0  0  0
   22.7608   10.9922   57.3519 C   0  0  0  0  0  0  0  0  0  0  0  0
   21.3387   11.1182   57.3740 N   0  0  0  0  0  0  0  0  0  0  0  0
   20.7515   10.3205   56.3319 C   0  0  0  0  0  0  0  0  0  0  0  0
   19.5275   10.2855   56.1698 O   0  0  0  0  0  0  0  0  0  0  0  0
   21.8431    9.6731   55.6378 C   0  0  0  0  0  0  0  0  0  0  0  0
   21.9149    8.8045   54.5735 C   0  0  0  0  0  0  0  0  0  0  0  0
   20.9557    8.2054   53.7685 C   0  0  0  0  0  0  0  0  0  0  0  0
   19.5880    8.2575   53.7134 C   0  0  0  0  0  0  0  0  0  0  0  0
   18.9519    7.4894   52.7332 C   0  0  0  0  0  0  0  0  0  0  0  0
   19.6400    6.7041   51.8465 C   0  0  0  0  0  0  0  0  0  0  0  0
   21.0120    6.6626   51.9146 C   0  0  0  0  0  0  0  0  0  0  0  0
   21.6677    7.4204   52.8840 C   0  0  0  0  0  0  0  0  0  0  0  0
   22.9688    7.5051   53.0973 N   0  0  0  0  0  0  0  0  0  0  0  0
   23.1460    8.3433   54.1210 C   0  0  0  0  0  0  0  0  0  0  0  0
   24.3031    8.7474   54.7273 C   0  0  0  0  0  0  0  0  0  0  0  0
   20.8190   11.7106   58.0591 H   0  0  0  0  0  0  0  0  0  0  0  0
   25.3272    4.3176   50.7091 C   0  0  0  0  0  0  0  0  0  0  0  0
   26.2015    4.9239   51.6692 N   0  0  0  0  0  0  0  0  0  0  0  0
   27.0544    4.3275   51.7487 H   0  0  0  0  0  0  0  0  0  0  0  0
   27.7574    5.7718   53.5104 O   0  0  0  0  0  0  0  0  0  0  0  0
   28.5852    6.7713   54.0116 C   0  0  0  0  0  0  0  0  0  0  0  0
 33 34  1  0  0  0
 34  1  1  0  0  0
  1  2  1  0  0  0
  2  3  1  0  0  0
  3  4  1  0  0  0
  4  5  1  0  0  0
  5  6  1  0  0  0
  5  7  1  0  0  0
  7 36  1  0  0  0
 36 37  1  0  0  0
  5  8  1  0  0  0
  8  9  1  0  0  0
  9 10  2  0  0  0
 10 11  1  0  0  0
 11 12  2  0  0  0
 12 13  1  0  0  0
 13 14  2  0  0  0
 14 15  1  0  0  0
 15 16  2  0  0  0
 16 17  1  0  0  0
 17 18  1  0  0  0
 18 19  1  0  0  0
 19 20  2  0  0  0
 19 21  1  0  0  0
 21 22  2  0  0  0
 22 23  1  0  0  0
 23 24  2  0  0  0
 24 25  1  0  0  0
 25 26  2  0  0  0
 26 27  1  0  0  0
 27 28  2  0  0  0
 28 29  1  0  0  0
 29 30  1  0  0  0
 30 31  2  0  0  0
  7  1  1  0  0  0
 31  8  1  0  0  0
 29  3  1  0  0  0
 14  9  1  0  0  0
 31 15  1  0  0  0
 21 16  1  0  0  0
 30 22  1  0  0  0
 28 23  1  0  0  0
 34 35  1  0  0  0
 18 32  1  0  0  0
M  END
> <minimizedAffinity>
87.77008

> <CNNscore>
0.1151354164

> <CNNaffinity>
5.6409378052

> <CNN_VS>
0.6494717002

> <CNNaffinity_variance>
0.9207140207

$$$$
[H]c1c([H])c([H])c(C([H])([H])OC(=O)N([H])[C@]([H])(C(=O)N([H])[C@]([H])(C(=O)N([H])C([H])([H])C#N)C([H])([H])C([H])(C([H])([H])[H])C([H])([H])[H])C([H])([H])C([H])(C([H])([H])[H])C([H])([H])[H])c([H])c1[H]


 33 33  0  0  0  0  0  0  0  0999 V2000
   27.2003    8.6128   55.4064 C   0  0  0  0  0  0  0  0  0  0  0  0
   24.7246    9.2208   55.4203 N   0  0  0  0  0  0  0  0  0  0  0  0
   25.7635    8.2638   55.3019 C   0  0  0  0  0  0  0  0  0  0  0  0
   25.4410    7.0724   55.1000 O   0  0  0  0  0  0  0  0  0  0  0  0
   24.9798   10.2165   55.5881 H   0  0  0  0  0  0  0  0  0  0  0  0
   23.2921    8.8196   55.3082 C   0  0  0  0  0  0  0  0  0  0  0  0
   23.0506    8.2705   53.9702 C   0  0  0  0  0  0  0  0  0  0  0  0
   23.4830    8.8985   52.9697 O   0  0  0  0  0  0  0  0  0  0  0  0
   22.3563    7.0650   53.7422 N   0  0  0  0  0  0  0  0  0  0  0  0
   21.9628    6.4418   54.4791 H   0  0  0  0  0  0  0  0  0  0  0  0
   22.1412    6.5649   52.3710 C   0  0  0  0  0  0  0  0  0  0  0  0
   21.1659    7.4226   51.6791 C   0  0  0  0  0  0  0  0  0  0  0  0
   20.3942    8.0932   51.1433 N   0  0  0  0  0  0  0  0  0  0  0  0
   22.5432   10.0738   55.6411 C   0  0  0  0  0  0  0  0  0  0  0  0
   20.5740    8.9106   54.8975 C   0  0  0  0  0  0  0  0  0  0  0  0
   21.2402   10.3067   54.9951 C   0  0  0  0  0  0  0  0  0  0  0  0
   21.3839   10.7277   53.5233 C   0  0  0  0  0  0  0  0  0  0  0  0
   27.6942    8.8782   54.0821 N   0  0  0  0  0  0  0  0  0  0  0  0
   26.9468    8.5949   52.9048 C   0  0  0  0  0  0  0  0  0  0  0  0
   25.8087    8.0902   53.0575 O   0  0  0  0  0  0  0  0  0  0  0  0
   28.6488    9.3043   53.9033 H   0  0  0  0  0  0  0  0  0  0  0  0
   27.3974    8.8410   51.6245 O   0  0  0  0  0  0  0  0  0  0  0  0
   28.1369    9.9981   51.2919 C   0  0  0  0  0  0  0  0  0  0  0  0
   28.3623   10.1151   49.8411 C   0  0  0  0  0  0  0  0  0  0  0  0
   28.3946    8.9930   49.0659 C   0  0  0  0  0  0  0  0  0  0  0  0
   28.6026    9.0566   47.7071 C   0  0  0  0  0  0  0  0  0  0  0  0
   28.7875   10.2658   47.0740 C   0  0  0  0  0  0  0  0  0  0  0  0
   28.7562   11.4103   47.8532 C   0  0  0  0  0  0  0  0  0  0  0  0
   28.5480   11.3456   49.2130 C   0  0  0  0  0  0  0  0  0  0  0  0
   27.2769    9.7673   56.3520 C   0  0  0  0  0  0  0  0  0  0  0  0
   28.3346    9.7256   57.3850 C   0  0  0  0  0  0  0  0  0  0  0  0
   28.6050   10.9657   58.1463 C   0  0  0  0  0  0  0  0  0  0  0  0
   27.9270    8.6214   58.3728 C   0  0  0  0  0  0  0  0  0  0  0  0
 15 16  1  0  0  0
 16 17  1  0  0  0
 16 14  1  0  0  0
 14  6  1  0  0  0
  6  2  1  0  0  0
  2  3  1  0  0  0
  3  4  2  0  0  0
  3  1  1  0  0  0
  1 30  1  0  0  0
 30 31  1  0  0  0
 31 32  1  0  0  0
 31 33  1  0  0  0
  1 18  1  0  0  0
 18 19  1  0  0  0
 19 20  2  0  0  0
 19 22  1  0  0  0
 22 23  1  0  0  0
 23 24  1  0  0  0
 24 25  2  0  0  0
 25 26  1  0  0  0
 26 27  2  0  0  0
 27 28  1  0  0  0
 28 29  2  0  0  0
  6  7  1  0  0  0
  7  8  2  0  0  0
  7  9  1  0  0  0
  9 11  1  0  0  0
 11 12  1  0  0  0
 12 13  3  0  0  0
 29 24  1  0  0  0
  2  5  1  0  0  0
 18 21  1  0  0  0
  9 10  1  0  0  0
M  END
> <minimizedAffinity>
9.76693

> <CNNscore>
0.7482987642

> <CNNaffinity>
6.5538077354

> <CNN_VS>
4.9042062759

> <CNNaffinity_variance>
0.3765953183

$$$$
[H]c1c([H])c([H])c(C([H])([H])OC(=O)N([H])[C@]([H])(C(=O)N([H])[C@]([H])(C(=O)N([H])C([H])([H])C#N)C([H])([H])C([H])(C([H])([H])[H])C([H])([H])[H])C([H])([H])C([H])(C([H])([H])[H])C([H])([H])[H])c([H])c1[H]


 33 33  0  0  0  0  0  0  0  0999 V2000
   27.2619    8.3992   55.0468 C   0  0  0  0  0  0  0  0  0  0  0  0
   24.7699    8.8137   54.7041 N   0  0  0  0  0  0  0  0  0  0  0  0
   25.9297    8.0203   54.5185 C   0  0  0  0  0  0  0  0  0  0  0  0
   25.8119    6.9527   53.8776 O   0  0  0  0  0  0  0  0  0  0  0  0
   24.8547    9.7052   55.2356 H   0  0  0  0  0  0  0  0  0  0  0  0
   23.4504    8.3886   54.1528 C   0  0  0  0  0  0  0  0  0  0  0  0
   22.5682    9.5564   54.0646 C   0  0  0  0  0  0  0  0  0  0  0  0
   22.3090   10.2013   55.1130 O   0  0  0  0  0  0  0  0  0  0  0  0
   21.9916   10.0013   52.8575 N   0  0  0  0  0  0  0  0  0  0  0  0
   22.1370    9.5705   51.9198 H   0  0  0  0  0  0  0  0  0  0  0  0
   21.1079   11.1824   52.8327 C   0  0  0  0  0  0  0  0  0  0  0  0
   21.6153   12.1593   51.8560 C   0  0  0  0  0  0  0  0  0  0  0  0
   22.0091   12.9327   51.0951 N   0  0  0  0  0  0  0  0  0  0  0  0
   23.0048    7.3064   55.0883 C   0  0  0  0  0  0  0  0  0  0  0  0
   23.2433    5.4541   53.5731 C   0  0  0  0  0  0  0  0  0  0  0  0
   22.2575    6.1637   54.5360 C   0  0  0  0  0  0  0  0  0  0  0  0
   21.1176    6.6059   53.6037 C   0  0  0  0  0  0  0  0  0  0  0  0
   28.0864    8.7985   53.9383 N   0  0  0  0  0  0  0  0  0  0  0  0
   27.5918    8.9231   52.6098 C   0  0  0  0  0  0  0  0  0  0  0  0
   26.3781    8.6663   52.4249 O   0  0  0  0  0  0  0  0  0  0  0  0
   29.1165    9.0263   54.0457 H   0  0  0  0  0  0  0  0  0  0  0  0
   28.3614    9.3050   51.5306 O   0  0  0  0  0  0  0  0  0  0  0  0
   27.8230   10.0035   50.4267 C   0  0  0  0  0  0  0  0  0  0  0  0
   28.2499    9.4247   49.1414 C   0  0  0  0  0  0  0  0  0  0  0  0
   28.8906    8.2205   49.1180 C   0  0  0  0  0  0  0  0  0  0  0  0
   29.3068    7.6438   47.9399 C   0  0  0  0  0  0  0  0  0  0  0  0
   29.0902    8.2664   46.7305 C   0  0  0  0  0  0  0  0  0  0  0  0
   28.4404    9.4893   46.7448 C   0  0  0  0  0  0  0  0  0  0  0  0
   28.0243   10.0657   47.9243 C   0  0  0  0  0  0  0  0  0  0  0  0
   27.0141    9.4643   56.0653 C   0  0  0  0  0  0  0  0  0  0  0  0
   28.1151    9.7705   57.0042 C   0  0  0  0  0  0  0  0  0  0  0  0
   28.1634   11.1280   57.5919 C   0  0  0  0  0  0  0  0  0  0  0  0
   28.0056    8.7453   58.1436 C   0  0  0  0  0  0  0  0  0  0  0  0
 15 16  1  0  0  0
 16 17  1  0  0  0
 16 14  1  0  0  0
 14  6  1  0  0  0
  6  2  1  0  0  0
  2  3  1  0  0  0
  3  4  2  0  0  0
  3  1  1  0  0  0
  1 30  1  0  0  0
 30 31  1  0  0  0
 31 32  1  0  0  0
 31 33  1  0  0  0
  1 18  1  0  0  0
 18 19  1  0  0  0
 19 20  2  0  0  0
 19 22  1  0  0  0
 22 23  1  0  0  0
 23 24  1  0  0  0
 24 25  2  0  0  0
 25 26  1  0  0  0
 26 27  2  0  0  0
 27 28  1  0  0  0
 28 29  2  0  0  0
  6  7  1  0  0  0
  7  8  2  0  0  0
  7  9  1  0  0  0
  9 11  1  0  0  0
 11 12  1  0  0  0
 12 13  3  0  0  0
 29 24  1  0  0  0
  2  5  1  0  0  0
 18 21  1  0  0  0
  9 10  1  0  0  0
M  END
> <minimizedAffinity>
12.38367

> <CNNscore>
0.6991408467

> <CNNaffinity>
6.2143602371

> <CNN_VS>
4.3447132111

> <CNNaffinity_variance>
0.6320415735

$$$$
[H]c1c([H])c([H])c(C([H])([H])OC(=O)N([H])[C@]([H])(C(=O)N([H])[C@]([H])(C(=O)N([H])C([H])([H])C#N)C([H])([H])C([H])(C([H])([H])[H])C([H])([H])[H])C([H])([H])C([H])(C([H])([H])[H])C([H])([H])[H])c([H])c1[H]


 33 33  0  0  0  0  0  0  0  0999 V2000
   26.0322    8.0519   53.9205 C   0  0  0  0  0  0  0  0  0  0  0  0
   23.5580    7.7812   53.3689 N   0  0  0  0  0  0  0  0  0  0  0  0
   24.6088    7.9150   54.3108 C   0  0  0  0  0  0  0  0  0  0  0  0
   24.3092    7.9164   55.5251 O   0  0  0  0  0  0  0  0  0  0  0  0
   23.7941    7.7782   52.3546 H   0  0  0  0  0  0  0  0  0  0  0  0
   22.1398    7.6468   53.8120 C   0  0  0  0  0  0  0  0  0  0  0  0
   21.7412    6.2384   53.7256 C   0  0  0  0  0  0  0  0  0  0  0  0
   22.5801    5.3510   54.0273 O   0  0  0  0  0  0  0  0  0  0  0  0
   20.4566    5.8211   53.3216 N   0  0  0  0  0  0  0  0  0  0  0  0
   19.6672    6.4500   53.0620 H   0  0  0  0  0  0  0  0  0  0  0  0
   20.1157    4.3875   53.2507 C   0  0  0  0  0  0  0  0  0  0  0  0
   18.7521    4.1776   53.7629 C   0  0  0  0  0  0  0  0  0  0  0  0
   17.6790    4.0147   54.1556 N   0  0  0  0  0  0  0  0  0  0  0  0
   21.3953    8.5892   52.9161 C   0  0  0  0  0  0  0  0  0  0  0  0
   21.7158   10.9250   52.4413 C   0  0  0  0  0  0  0  0  0  0  0  0
   21.0582    9.9280   53.4293 C   0  0  0  0  0  0  0  0  0  0  0  0
   21.7640   10.2393   54.7595 C   0  0  0  0  0  0  0  0  0  0  0  0
   26.0817    8.4511   52.5398 N   0  0  0  0  0  0  0  0  0  0  0  0
   27.2108    9.0931   51.9586 C   0  0  0  0  0  0  0  0  0  0  0  0
   28.1938    9.3096   52.7069 O   0  0  0  0  0  0  0  0  0  0  0  0
   25.2764    8.2886   51.8691 H   0  0  0  0  0  0  0  0  0  0  0  0
   27.2832    9.4846   50.6379 O   0  0  0  0  0  0  0  0  0  0  0  0
   28.4999    9.8606   50.0257 C   0  0  0  0  0  0  0  0  0  0  0  0
   28.6851    9.2144   48.7152 C   0  0  0  0  0  0  0  0  0  0  0  0
   28.2848    9.8550   47.5792 C   0  0  0  0  0  0  0  0  0  0  0  0
   28.4387    9.2879   46.3349 C   0  0  0  0  0  0  0  0  0  0  0  0
   29.0073    8.0418   46.1891 C   0  0  0  0  0  0  0  0  0  0  0  0
   29.4166    7.3842   47.3370 C   0  0  0  0  0  0  0  0  0  0  0  0
   29.2622    7.9526   48.5819 C   0  0  0  0  0  0  0  0  0  0  0  0
   26.6316    9.0267   54.8815 C   0  0  0  0  0  0  0  0  0  0  0  0
   27.7240    8.5353   55.7492 C   0  0  0  0  0  0  0  0  0  0  0  0
   29.0638    8.3668   55.1433 C   0  0  0  0  0  0  0  0  0  0  0  0
   27.8322    9.5350   56.9111 C   0  0  0  0  0  0  0  0  0  0  0  0
 15 16  1  0  0  0
 16 17  1  0  0  0
 16 14  1  0  0  0
 14  6  1  0  0  0
  6  2  1  0  0  0
  2  3  1  0  0  0
  3  4  2  0  0  0
  3  1  1  0  0  0
  1 30  1  0  0  0
 30 31  1  0  0  0
 31 32  1  0  0  0
 31 33  1  0  0  0
  1 18  1  0  0  0
 18 19  1  0  0  0
 19 20  2  0  0  0
 19 22  1  0  0  0
 22 23  1  0  0  0
 23 24  1  0  0  0
 24 25  2  0  0  0
 25 26  1  0  0  0
 26 27  2  0  0  0
 27 28  1  0  0  0
 28 29  2  0  0  0
  6  7  1  0  0  0
  7  8  2  0  0  0
  7  9  1  0  0  0
  9 11  1  0  0  0
 11 12  1  0  0  0
 12 13  3  0  0  0
 29 24  1  0  0  0
  2  5  1  0  0  0
 18 21  1  0  0  0
  9 10  1  0  0  0
M  END
> <minimizedAffinity>
11.71334

> <CNNscore>
0.6639746428

> <CNNaffinity>
6.5484666824

> <CNN_VS>
4.3480157852

> <CNNaffinity_variance>
0.3346478939

$$$$
[H]c1c([H])c([H])c(C([H])([H])OC(=O)N([H])[C@]([H])(C(=O)N([H])[C@]([H])(C(=O)N([H])C([H])([H])C#N)C([H])([H])C([H])(C([H])([H])[H])C([H])([H])[H])C([H])([H])C([H])(C([H])([H])[H])C([H])([H])[H])c([H])c1[H]


 33 33  0  0  0  0  0  0  0  0999 V2000
   26.2415    7.8725   53.8211 C   0  0  0  0  0  0  0  0  0  0  0  0
   23.7866    7.6074   53.1870 N   0  0  0  0  0  0  0  0  0  0  0  0
   24.8849    7.3141   54.0336 C   0  0  0  0  0  0  0  0  0  0  0  0
   24.6887    6.5474   55.0020 O   0  0  0  0  0  0  0  0  0  0  0  0
   23.9368    8.2442   52.3768 H   0  0  0  0  0  0  0  0  0  0  0  0
   22.4391    7.0205   53.4433 C   0  0  0  0  0  0  0  0  0  0  0  0
   21.4310    7.7963   52.7142 C   0  0  0  0  0  0  0  0  0  0  0  0
   20.2809    7.3089   52.5658 O   0  0  0  0  0  0  0  0  0  0  0  0
   21.6820    9.0714   52.1677 N   0  0  0  0  0  0  0  0  0  0  0  0
   22.5812    9.5941   52.2332 H   0  0  0  0  0  0  0  0  0  0  0  0
   20.6270    9.8026   51.4404 C   0  0  0  0  0  0  0  0  0  0  0  0
   21.1089   11.1487   51.0915 C   0  0  0  0  0  0  0  0  0  0  0  0
   21.4880   12.2064   50.8276 N   0  0  0  0  0  0  0  0  0  0  0  0
   22.3197    7.0400   54.9366 C   0  0  0  0  0  0  0  0  0  0  0  0
   20.4704    8.5775   54.9259 C   0  0  0  0  0  0  0  0  0  0  0  0
   21.8383    8.2707   55.5871 C   0  0  0  0  0  0  0  0  0  0  0  0
   22.6871    9.4982   55.2172 C   0  0  0  0  0  0  0  0  0  0  0  0
   26.2859    8.4534   52.5063 N   0  0  0  0  0  0  0  0  0  0  0  0
   27.4016    9.1925   52.0228 C   0  0  0  0  0  0  0  0  0  0  0  0
   28.3772    9.3292   52.7993 O   0  0  0  0  0  0  0  0  0  0  0  0
   25.4867    8.3638   51.8151 H   0  0  0  0  0  0  0  0  0  0  0  0
   27.4690    9.7582   50.7665 O   0  0  0  0  0  0  0  0  0  0  0  0
   28.6965    9.9955   50.1083 C   0  0  0  0  0  0  0  0  0  0  0  0
   28.7630    9.3250   48.7986 C   0  0  0  0  0  0  0  0  0  0  0  0
   28.2971    9.9611   47.6853 C   0  0  0  0  0  0  0  0  0  0  0  0
   28.3397    9.3715   46.4426 C   0  0  0  0  0  0  0  0  0  0  0  0
   28.8585    8.1066   46.2754 C   0  0  0  0  0  0  0  0  0  0  0  0
   29.3338    7.4534   47.4002 C   0  0  0  0  0  0  0  0  0  0  0  0
   29.2908    8.0442   48.6435 C   0  0  0  0  0  0  0  0  0  0  0  0
   26.4734    8.8316   54.9434 C   0  0  0  0  0  0  0  0  0  0  0  0
   27.6252    8.5657   55.8323 C   0  0  0  0  0  0  0  0  0  0  0  0
   28.9618    8.4361   55.2100 C   0  0  0  0  0  0  0  0  0  0  0  0
   27.6638    9.7225   56.8430 C   0  0  0  0  0  0  0  0  0  0  0  0
 15 16  1  0  0  0
 16 17  1  0  0  0
 16 14  1  0  0  0
 14  6  1  0  0  0
  6  2  1  0  0  0
  2  3  1  0  0  0
  3  4  2  0  0  0
  3  1  1  0  0  0
  1 30  1  0  0  0
 30 31  1  0  0  0
 31 32  1  0  0  0
 31 33  1  0  0  0
  1 18  1  0  0  0
 18 19  1  0  0  0
 19 20  2  0  0  0
 19 22  1  0  0  0
 22 23  1  0  0  0
 23 24  1  0  0  0
 24 25  2  0  0  0
 25 26  1  0  0  0
 26 27  2  0  0  0
 27 28  1  0  0  0
 28 29  2  0  0  0
  6  7  1  0  0  0
  7  8  2  0  0  0
  7  9  1  0  0  0
  9 11  1  0  0  0
 11 12  1  0  0  0
 12 13  3  0  0  0
 29 24  1  0  0  0
  2  5  1  0  0  0
 18 21  1  0  0  0
  9 10  1  0  0  0
M  END
> <minimizedAffinity>
10.72947

> <CNNscore>
0.5562310815

> <CNNaffinity>
6.2979068756

> <CNN_VS>
3.5030915737

> <CNNaffinity_variance>
0.5115453601

$$$$
[H]c1c([H])c([H])c(C([H])([H])OC(=O)N([H])[C@]([H])(C(=O)N([H])[C@]([H])(C(=O)N([H])C([H])([H])C#N)C([H])([H])C([H])(C([H])([H])[H])C([H])([H])[H])C([H])([H])C([H])(C([H])([H])[H])C([H])([H])[H])c([H])c1[H]


 33 33  0  0  0  0  0  0  0  0999 V2000
   24.4006    7.5721   53.2266 C   0  0  0  0  0  0  0  0  0  0  0  0
   22.8943    9.6118   52.9625 N   0  0  0  0  0  0  0  0  0  0  0  0
   23.1346    8.2229   52.8131 C   0  0  0  0  0  0  0  0  0  0  0  0
   22.2292    7.5236   52.3078 O   0  0  0  0  0  0  0  0  0  0  0  0
   23.6404   10.2053   53.3815 H   0  0  0  0  0  0  0  0  0  0  0  0
   21.6022   10.2200   52.5310 C   0  0  0  0  0  0  0  0  0  0  0  0
   21.7928   11.6598   52.3297 C   0  0  0  0  0  0  0  0  0  0  0  0
   22.2975   12.3407   53.2592 O   0  0  0  0  0  0  0  0  0  0  0  0
   21.4405   12.3281   51.1394 N   0  0  0  0  0  0  0  0  0  0  0  0
   21.0317   11.8824   50.2907 H   0  0  0  0  0  0  0  0  0  0  0  0
   21.6534   13.7810   50.9974 C   0  0  0  0  0  0  0  0  0  0  0  0
   20.4930   14.5061   51.5392 C   0  0  0  0  0  0  0  0  0  0  0  0
   19.5774   15.0666   51.9631 N   0  0  0  0  0  0  0  0  0  0  0  0
   20.6465    9.8368   53.6194 C   0  0  0  0  0  0  0  0  0  0  0  0
   20.3072   10.3973   55.9334 C   0  0  0  0  0  0  0  0  0  0  0  0
   21.1843    9.5652   54.9634 C   0  0  0  0  0  0  0  0  0  0  0  0
   22.5872   10.1617   55.1636 C   0  0  0  0  0  0  0  0  0  0  0  0
   24.8582    8.2081   54.4325 N   0  0  0  0  0  0  0  0  0  0  0  0
   26.2336    8.4458   54.7095 C   0  0  0  0  0  0  0  0  0  0  0  0
   27.0637    8.0730   53.8463 O   0  0  0  0  0  0  0  0  0  0  0  0
   24.1946    8.5407   55.1899 H   0  0  0  0  0  0  0  0  0  0  0  0
   26.6975    9.0544   55.8572 O   0  0  0  0  0  0  0  0  0  0  0  0
   28.0741    9.2566   56.1030 C   0  0  0  0  0  0  0  0  0  0  0  0
   28.3391    9.6323   57.5023 C   0  0  0  0  0  0  0  0  0  0  0  0
   28.3967    8.6679   58.4655 C   0  0  0  0  0  0  0  0  0  0  0  0
   28.6413    8.9747   59.7844 C   0  0  0  0  0  0  0  0  0  0  0  0
   28.8385   10.2779   60.1844 C   0  0  0  0  0  0  0  0  0  0  0  0
   28.7818   11.2635   59.2133 C   0  0  0  0  0  0  0  0  0  0  0  0
   28.5369   10.9556   57.8935 C   0  0  0  0  0  0  0  0  0  0  0  0
   24.0920    6.1159   53.3587 C   0  0  0  0  0  0  0  0  0  0  0  0
   22.7934    5.7529   53.9663 C   0  0  0  0  0  0  0  0  0  0  0  0
   22.3646    4.3387   53.8849 C   0  0  0  0  0  0  0  0  0  0  0  0
   22.8846    6.1543   55.4467 C   0  0  0  0  0  0  0  0  0  0  0  0
 15 16  1  0  0  0
 16 17  1  0  0  0
 16 14  1  0  0  0
 14  6  1  0  0  0
  6  2  1  0  0  0
  2  3  1  0  0  0
  3  4  2  0  0  0
  3  1  1  0  0  0
  1 30  1  0  0  0
 30 31  1  0  0  0
 31 32  1  0  0  0
 31 33  1  0  0  0
  1 18  1  0  0  0
 18 19  1  0  0  0
 19 20  2  0  0  0
 19 22  1  0  0  0
 22 23  1  0  0  0
 23 24  1  0  0  0
 24 25  2  0  0  0
 25 26  1  0  0  0
 26 27  2  0  0  0
 27 28  1  0  0  0
 28 29  2  0  0  0
  6  7  1  0  0  0
  7  8  2  0  0  0
  7  9  1  0  0  0
  9 11  1  0  0  0
 11 12  1  0  0  0
 12 13  3  0  0  0
 29 24  1  0  0  0
  2  5  1  0  0  0
 18 21  1  0  0  0
  9 10  1  0  0  0
M  END
> <minimizedAffinity>
10.45679

> <CNNscore>
0.5523453951

> <CNNaffinity>
6.0909109116

> <CNN_VS>
3.3642866611

> <CNNaffinity_variance>
0.4276823997

$$$$
[H]c1c([H])c([H])c(C([H])([H])OC(=O)N([H])[C@]([H])(C(=O)N([H])[C@]([H])(C(=O)N([H])C([H])([H])C#N)C([H])([H])C([H])(C([H])([H])[H])C([H])([H])[H])C([H])([H])C([H])(C([H])([H])[H])C([H])([H])[H])c([H])c1[H]


 33 33  0  0  0  0  0  0  0  0999 V2000
   23.4970    9.8081   55.1810 C   0  0  0  0  0  0  0  0  0  0  0  0
   25.8746    9.7574   56.0995 N   0  0  0  0  0  0  0  0  0  0  0  0
   24.8143    9.1568   55.3755 C   0  0  0  0  0  0  0  0  0  0  0  0
   25.0106    8.0245   54.8820 O   0  0  0  0  0  0  0  0  0  0  0  0
   25.7238   10.7000   56.5159 H   0  0  0  0  0  0  0  0  0  0  0  0
   27.1833    9.0611   56.2672 C   0  0  0  0  0  0  0  0  0  0  0  0
   27.7342    9.3857   57.5867 C   0  0  0  0  0  0  0  0  0  0  0  0
   27.5534    8.5788   58.5347 O   0  0  0  0  0  0  0  0  0  0  0  0
   28.4642   10.5621   57.8525 N   0  0  0  0  0  0  0  0  0  0  0  0
   28.6988   11.3017   57.1568 H   0  0  0  0  0  0  0  0  0  0  0  0
   28.9908   10.8354   59.2032 C   0  0  0  0  0  0  0  0  0  0  0  0
   28.4956   12.1393   59.6726 C   0  0  0  0  0  0  0  0  0  0  0  0
   28.1027   13.1633   60.0320 N   0  0  0  0  0  0  0  0  0  0  0  0
   27.9889    9.5284   55.0936 C   0  0  0  0  0  0  0  0  0  0  0  0
   27.0911    8.7343   53.0086 C   0  0  0  0  0  0  0  0  0  0  0  0
   28.2661    8.5738   54.0066 C   0  0  0  0  0  0  0  0  0  0  0  0
   28.1366    7.1118   54.4650 C   0  0  0  0  0  0  0  0  0  0  0  0
   23.1176    9.6486   53.8031 N   0  0  0  0  0  0  0  0  0  0  0  0
   22.0180   10.3362   53.2174 C   0  0  0  0  0  0  0  0  0  0  0  0
   21.3664   11.1098   53.9591 O   0  0  0  0  0  0  0  0  0  0  0  0
   23.6381    9.0073   53.1380 H   0  0  0  0  0  0  0  0  0  0  0  0
   21.6348   10.2014   51.8991 O   0  0  0  0  0  0  0  0  0  0  0  0
   20.9100    9.0819   51.4325 C   0  0  0  0  0  0  0  0  0  0  0  0
   21.2833    7.8447   52.1393 C   0  0  0  0  0  0  0  0  0  0  0  0
   20.3114    7.0266   52.6364 C   0  0  0  0  0  0  0  0  0  0  0  0
   20.6156    5.8619   53.3032 C   0  0  0  0  0  0  0  0  0  0  0  0
   21.9238    5.4759   53.4952 C   0  0  0  0  0  0  0  0  0  0  0  0
   22.9171    6.3005   52.9939 C   0  0  0  0  0  0  0  0  0  0  0  0
   22.6116    7.4659   52.3266 C   0  0  0  0  0  0  0  0  0  0  0  0
   22.5726    9.1722   56.1681 C   0  0  0  0  0  0  0  0  0  0  0  0
   21.7614    8.0295   55.6951 C   0  0  0  0  0  0  0  0  0  0  0  0
   21.7494    6.8023   56.5225 C   0  0  0  0  0  0  0  0  0  0  0  0
   20.3212    8.5493   55.5662 C   0  0  0  0  0  0  0  0  0  0  0  0
 15 16  1  0  0  0
 16 17  1  0  0  0
 16 14  1  0  0  0
 14  6  1  0  0  0
  6  2  1  0  0  0
  2  3  1  0  0  0
  3  4  2  0  0  0
  3  1  1  0  0  0
  1 30  1  0  0  0
 30 31  1  0  0  0
 31 32  1  0  0  0
 31 33  1  0  0  0
  1 18  1  0  0  0
 18 19  1  0  0  0
 19 20  2  0  0  0
 19 22  1  0  0  0
 22 23  1  0  0  0
 23 24  1  0  0  0
 24 25  2  0  0  0
 25 26  1  0  0  0
 26 27  2  0  0  0
 27 28  1  0  0  0
 28 29  2  0  0  0
  6  7  1  0  0  0
  7  8  2  0  0  0
  7  9  1  0  0  0
  9 11  1  0  0  0
 11 12  1  0  0  0
 12 13  3  0  0  0
 29 24  1  0  0  0
  2  5  1  0  0  0
 18 21  1  0  0  0
  9 10  1  0  0  0
M  END
> <minimizedAffinity>
8.27664

> <CNNscore>
0.5373412371

> <CNNaffinity>
6.2522315979

> <CNN_VS>
3.3595819473

> <CNNaffinity_variance>
0.8324689865

$$$$
[H]c1c([H])c([H])c(C([H])([H])OC(=O)N([H])[C@]([H])(C(=O)N([H])[C@]([H])(C(=O)N([H])C([H])([H])C#N)C([H])([H])C([H])(C([H])([H])[H])C([H])([H])[H])C([H])([H])C([H])(C([H])([H])[H])C([H])([H])[H])c([H])c1[H]


 33 33  0  0  0  0  0  0  0  0999 V2000
   23.4558    8.5079   55.3786 C   0  0  0  0  0  0  0  0  0  0  0  0
   21.2761    7.8019   54.2609 N   0  0  0  0  0  0  0  0  0  0  0  0
   22.6905    7.8935   54.2677 C   0  0  0  0  0  0  0  0  0  0  0  0
   23.3114    7.4308   53.2856 O   0  0  0  0  0  0  0  0  0  0  0  0
   20.7471    8.1837   55.0726 H   0  0  0  0  0  0  0  0  0  0  0  0
   20.5510    7.1733   53.1185 C   0  0  0  0  0  0  0  0  0  0  0  0
   20.2246    5.7857   53.4623 C   0  0  0  0  0  0  0  0  0  0  0  0
   21.1638    4.9723   53.6584 O   0  0  0  0  0  0  0  0  0  0  0  0
   18.9035    5.3101   53.5887 N   0  0  0  0  0  0  0  0  0  0  0  0
   18.0388    5.8797   53.4700 H   0  0  0  0  0  0  0  0  0  0  0  0
   18.6379    3.9005   53.9336 C   0  0  0  0  0  0  0  0  0  0  0  0
   17.2048    3.7224   54.2172 C   0  0  0  0  0  0  0  0  0  0  0  0
   16.0827    3.5837   54.4493 N   0  0  0  0  0  0  0  0  0  0  0  0
   21.4847    7.3537   51.9608 C   0  0  0  0  0  0  0  0  0  0  0  0
   21.4143    9.7175   51.5233 C   0  0  0  0  0  0  0  0  0  0  0  0
   21.1244    8.3230   50.9119 C   0  0  0  0  0  0  0  0  0  0  0  0
   19.6099    8.3655   50.6501 C   0  0  0  0  0  0  0  0  0  0  0  0
   24.8571    8.3228   55.1133 N   0  0  0  0  0  0  0  0  0  0  0  0
   25.8768    9.0459   55.7931 C   0  0  0  0  0  0  0  0  0  0  0  0
   25.5093    9.8769   56.6578 O   0  0  0  0  0  0  0  0  0  0  0  0
   25.2155    7.6321   54.3928 H   0  0  0  0  0  0  0  0  0  0  0  0
   27.2265    8.8860   55.5577 O   0  0  0  0  0  0  0  0  0  0  0  0
   28.1799    9.8613   55.9273 C   0  0  0  0  0  0  0  0  0  0  0  0
   28.4225    9.8782   57.3799 C   0  0  0  0  0  0  0  0  0  0  0  0
   28.6389   11.0639   58.0188 C   0  0  0  0  0  0  0  0  0  0  0  0
   28.8698   11.1254   59.3740 C   0  0  0  0  0  0  0  0  0  0  0  0
   28.8913    9.9822   60.1421 C   0  0  0  0  0  0  0  0  0  0  0  0
   28.6725    8.7739   59.5018 C   0  0  0  0  0  0  0  0  0  0  0  0
   28.4415    8.7134   58.1455 C   0  0  0  0  0  0  0  0  0  0  0  0
   23.0093    9.9322   55.4490 C   0  0  0  0  0  0  0  0  0  0  0  0
   21.6626   10.2448   54.9235 C   0  0  0  0  0  0  0  0  0  0  0  0
   20.6169   10.6377   55.8945 C   0  0  0  0  0  0  0  0  0  0  0  0
   21.8501   11.3879   53.9138 C   0  0  0  0  0  0  0  0  0  0  0  0
 15 16  1  0  0  0
 16 17  1  0  0  0
 16 14  1  0  0  0
 14  6  1  0  0  0
  6  2  1  0  0  0
  2  3  1  0  0  0
  3  4  2  0  0  0
  3  1  1  0  0  0
  1 30  1  0  0  0
 30 31  1  0  0  0
 31 32  1  0  0  0
 31 33  1  0  0  0
  1 18  1  0  0  0
 18 19  1  0  0  0
 19 20  2  0  0  0
 19 22  1  0  0  0
 22 23  1  0  0  0
 23 24  1  0  0  0
 24 25  2  0  0  0
 25 26  1  0  0  0
 26 27  2  0  0  0
 27 28  1  0  0  0
 28 29  2  0  0  0
  6  7  1  0  0  0
  7  8  2  0  0  0
  7  9  1  0  0  0
  9 11  1  0  0  0
 11 12  1  0  0  0
 12 13  3  0  0  0
 29 24  1  0  0  0
  2  5  1  0  0  0
 18 21  1  0  0  0
  9 10  1  0  0  0
M  END
> <minimizedAffinity>
10.60091

> <CNNscore>
0.5277075768

> <CNNaffinity>
6.5920701027

> <CNN_VS>
3.4786853790

> <CNNaffinity_variance>
0.7045468092

$$$$
[H]c1c([H])c([H])c(C([H])([H])OC(=O)N([H])[C@]([H])(C(=O)N([H])[C@]([H])(C(=O)N([H])C([H])([H])C#N)C([H])([H])C([H])(C([H])([H])[H])C([H])([H])[H])C([H])([H])C([H])(C([H])([H])[H])C([H])([H])[H])c([H])c1[H]


 33 33  0  0  0  0  0  0  0  0999 V2000
   22.4369    7.4651   53.3988 C   0  0  0  0  0  0  0  0  0  0  0  0
   24.5326    8.3351   54.5608 N   0  0  0  0  0  0  0  0  0  0  0  0
   23.8783    7.3864   53.7356 C   0  0  0  0  0  0  0  0  0  0  0  0
   24.5588    6.4432   53.2756 O   0  0  0  0  0  0  0  0  0  0  0  0
   23.9772    9.1251   54.9505 H   0  0  0  0  0  0  0  0  0  0  0  0
   25.9869    8.2126   54.8705 C   0  0  0  0  0  0  0  0  0  0  0  0
   26.3090    9.0749   56.0118 C   0  0  0  0  0  0  0  0  0  0  0  0
   25.4290    9.8631   56.4440 O   0  0  0  0  0  0  0  0  0  0  0  0
   27.5616    9.0669   56.6586 N   0  0  0  0  0  0  0  0  0  0  0  0
   28.3680    8.4540   56.4132 H   0  0  0  0  0  0  0  0  0  0  0  0
   27.8276    9.9616   57.8011 C   0  0  0  0  0  0  0  0  0  0  0  0
   28.4970    9.2083   58.8736 C   0  0  0  0  0  0  0  0  0  0  0  0
   29.0150    8.6106   59.7142 N   0  0  0  0  0  0  0  0  0  0  0  0
   26.6578    8.5667   53.5785 C   0  0  0  0  0  0  0  0  0  0  0  0
   28.4107    7.0311   54.1728 C   0  0  0  0  0  0  0  0  0  0  0  0
   28.1147    8.3800   53.4689 C   0  0  0  0  0  0  0  0  0  0  0  0
   28.8997    9.3947   54.3163 C   0  0  0  0  0  0  0  0  0  0  0  0
   21.8857    6.1391   53.4770 N   0  0  0  0  0  0  0  0  0  0  0  0
   20.5366    5.8394   53.1379 C   0  0  0  0  0  0  0  0  0  0  0  0
   19.8169    6.7935   52.7573 O   0  0  0  0  0  0  0  0  0  0  0  0
   22.4549    5.3016   53.7919 H   0  0  0  0  0  0  0  0  0  0  0  0
   19.9847    4.5768   53.2033 O   0  0  0  0  0  0  0  0  0  0  0  0
   19.2101    4.1456   54.3035 C   0  0  0  0  0  0  0  0  0  0  0  0
   17.8541    3.7350   53.9010 C   0  0  0  0  0  0  0  0  0  0  0  0
   17.6900    2.7315   52.9916 C   0  0  0  0  0  0  0  0  0  0  0  0
   16.4417    2.3167   52.5875 C   0  0  0  0  0  0  0  0  0  0  0  0
   15.3020    2.9044   53.0904 C   0  0  0  0  0  0  0  0  0  0  0  0
   15.4592    3.9240   54.0143 C   0  0  0  0  0  0  0  0  0  0  0  0
   16.7089    4.3385   54.4182 C   0  0  0  0  0  0  0  0  0  0  0  0
   21.8440    8.4525   54.3510 C   0  0  0  0  0  0  0  0  0  0  0  0
   21.9788    9.8852   54.0095 C   0  0  0  0  0  0  0  0  0  0  0  0
   21.4393   10.3382   52.7078 C   0  0  0  0  0  0  0  0  0  0  0  0
   21.2727   10.6624   55.1314 C   0  0  0  0  0  0  0  0  0  0  0  0
 15 16  1  0  0  0
 16 17  1  0  0  0
 16 14  1  0  0  0
 14  6  1  0  0  0
  6  2  1  0  0  0
  2  3  1  0  0  0
  3  4  2  0  0  0
  3  1  1  0  0  0
  1 30  1  0  0  0
 30 31  1  0  0  0
 31 32  1  0  0  0
 31 33  1  0  0  0
  1 18  1  0  0  0
 18 19  1  0  0  0
 19 20  2  0  0  0
 19 22  1  0  0  0
 22 23  1  0  0  0
 23 24  1  0  0  0
 24 25  2  0  0  0
 25 26  1  0  0  0
 26 27  2  0  0  0
 27 28  1  0  0  0
 28 29  2  0  0  0
  6  7  1  0  0  0
  7  8  2  0  0  0
  7  9  1  0  0  0
  9 11  1  0  0  0
 11 12  1  0  0  0
 12 13  3  0  0  0
 29 24  1  0  0  0
  2  5  1  0  0  0
 18 21  1  0  0  0
  9 10  1  0  0  0
M  END
> <minimizedAffinity>
10.77359

> <CNNscore>
0.4947335720

> <CNNaffinity>
6.3768296242

> <CNN_VS>
3.1548316479

> <CNNaffinity_variance>
0.2756369114

$$$$
[H]c1c([H])c([H])c(C([H])([H])OC(=O)N([H])[C@]([H])(C(=O)N([H])[C@]([H])(C(=O)N([H])C([H])([H])C#N)C([H])([H])C([H])(C([H])([H])[H])C([H])([H])[H])C([H])([H])C([H])(C([H])([H])[H])C([H])([H])[H])c([H])c1[H]


 33 33  0  0  0  0  0  0  0  0999 V2000
   23.6996    8.5812   55.5366 C   0  0  0  0  0  0  0  0  0  0  0  0
   22.2115    6.7393   54.5922 N   0  0  0  0  0  0  0  0  0  0  0  0
   23.0538    7.8648   54.4111 C   0  0  0  0  0  0  0  0  0  0  0  0
   23.2545    8.2632   53.2426 O   0  0  0  0  0  0  0  0  0  0  0  0
   22.0359    6.3978   55.5602 H   0  0  0  0  0  0  0  0  0  0  0  0
   21.5846    6.0515   53.4261 C   0  0  0  0  0  0  0  0  0  0  0  0
   20.8497    7.0363   52.6261 C   0  0  0  0  0  0  0  0  0  0  0  0
   19.6650    7.3142   52.9448 O   0  0  0  0  0  0  0  0  0  0  0  0
   21.4044    7.6964   51.5108 N   0  0  0  0  0  0  0  0  0  0  0  0
   22.3749    7.5717   51.1519 H   0  0  0  0  0  0  0  0  0  0  0  0
   20.6131    8.6759   50.7421 C   0  0  0  0  0  0  0  0  0  0  0  0
   21.0162   10.0407   51.1172 C   0  0  0  0  0  0  0  0  0  0  0  0
   21.3332   11.1082   51.4208 N   0  0  0  0  0  0  0  0  0  0  0  0
   20.7545    4.9728   54.0523 C   0  0  0  0  0  0  0  0  0  0  0  0
   18.5141    4.1040   54.1503 C   0  0  0  0  0  0  0  0  0  0  0  0
   19.7423    4.2950   53.2243 C   0  0  0  0  0  0  0  0  0  0  0  0
   20.1430    2.8522   52.8751 C   0  0  0  0  0  0  0  0  0  0  0  0
   24.9694    9.0794   55.0809 N   0  0  0  0  0  0  0  0  0  0  0  0
   26.0814    8.2341   54.8093 C   0  0  0  0  0  0  0  0  0  0  0  0
   25.9200    7.0026   54.9845 O   0  0  0  0  0  0  0  0  0  0  0  0
   25.1529   10.1110   54.9178 H   0  0  0  0  0  0  0  0  0  0  0  0
   27.3083    8.6869   54.3707 O   0  0  0  0  0  0  0  0  0  0  0  0
   28.4915    8.5160   55.1240 C   0  0  0  0  0  0  0  0  0  0  0  0
   28.4230    9.1977   56.4278 C   0  0  0  0  0  0  0  0  0  0  0  0
   28.3400   10.5584   56.4795 C   0  0  0  0  0  0  0  0  0  0  0  0
   28.2743   11.2355   57.6756 C   0  0  0  0  0  0  0  0  0  0  0  0
   28.2903   10.5588   58.8752 C   0  0  0  0  0  0  0  0  0  0  0  0
   28.3743    9.1771   58.8323 C   0  0  0  0  0  0  0  0  0  0  0  0
   28.4400    8.5003   57.6347 C   0  0  0  0  0  0  0  0  0  0  0  0
   22.7280    9.6308   55.9694 C   0  0  0  0  0  0  0  0  0  0  0  0
   21.5635    9.8768   55.0915 C   0  0  0  0  0  0  0  0  0  0  0  0
   20.2198    9.8800   55.7120 C   0  0  0  0  0  0  0  0  0  0  0  0
   21.8036   11.2438   54.4322 C   0  0  0  0  0  0  0  0  0  0  0  0
 15 16  1  0  0  0
 16 17  1  0  0  0
 16 14  1  0  0  0
 14  6  1  0  0  0
  6  2  1  0  0  0
  2  3  1  0  0  0
  3  4  2  0  0  0
  3  1  1  0  0  0
  1 30  1  0  0  0
 30 31  1  0  0  0
 31 32  1  0  0  0
 31 33  1  0  0  0
  1 18  1  0  0  0
 18 19  1  0  0  0
 19 20  2  0  0  0
 19 22  1  0  0  0
 22 23  1  0  0  0
 23 24  1  0  0  0
 24 25  2  0  0  0
 25 26  1  0  0  0
 26 27  2  0  0  0
 27 28  1  0  0  0
 28 29  2  0  0  0
  6  7  1  0  0  0
  7  8  2  0  0  0
  7  9  1  0  0  0
  9 11  1  0  0  0
 11 12  1  0  0  0
 12 13  3  0  0  0
 29 24  1  0  0  0
  2  5  1  0  0  0
 18 21  1  0  0  0
  9 10  1  0  0  0
M  END
> <minimizedAffinity>
13.35580

> <CNNscore>
0.4906823635

> <CNNaffinity>
6.1695599556

> <CNN_VS>
3.0272941589

> <CNNaffinity_variance>
0.3620471954

$$$$
[H]OC(=O)[C@@]([H])(N([H])C(=O)[C@@]([H])(N([H])C(=O)[C@@]([H])(N([H])C(=O)C([H])([H])[H])C([H])([H])c1c([H])c([H])c(O[H])c([H])c1[H])C([H])([H])c1c([H])c([H])c(O[H])c([H])c1[H])C([H])([H])c1c([H])n([H])c2c([H])c([H])c([H])c([H])c12


 49 52  0  0  0  0  0  0  0  0999 V2000
   24.2460    6.9162   53.6342 C   0  0  0  0  0  0  0  0  0  0  0  0
   21.9134    6.2325   53.1520 C   0  0  0  0  0  0  0  0  0  0  0  0
   22.2327    6.1744   51.9435 O   0  0  0  0  0  0  0  0  0  0  0  0
   22.9264    6.6228   54.0891 N   0  0  0  0  0  0  0  0  0  0  0  0
   22.6246    6.6727   55.1050 H   0  0  0  0  0  0  0  0  0  0  0  0
   20.5403    5.9045   53.5508 C   0  0  0  0  0  0  0  0  0  0  0  0
   20.7703    8.2511   51.8314 O   0  0  0  0  0  0  0  0  0  0  0  0
   19.6825    7.6287   51.8880 C   0  0  0  0  0  0  0  0  0  0  0  0
   19.5362    6.4929   52.7043 N   0  0  0  0  0  0  0  0  0  0  0  0
   18.5717    8.1496   51.0568 C   0  0  0  0  0  0  0  0  0  0  0  0
   18.5515    6.0458   52.6634 H   0  0  0  0  0  0  0  0  0  0  0  0
   20.4187    4.3965   53.5741 C   0  0  0  0  0  0  0  0  0  0  0  0
   19.0275    3.9026   53.5181 C   0  0  0  0  0  0  0  0  0  0  0  0
   18.0137    4.3508   54.3331 C   0  0  0  0  0  0  0  0  0  0  0  0
   16.7286    3.8300   54.2405 C   0  0  0  0  0  0  0  0  0  0  0  0
   16.4113    2.8464   53.3324 C   0  0  0  0  0  0  0  0  0  0  0  0
   15.1267    2.3343   53.2488 O   0  0  0  0  0  0  0  0  0  0  0  0
   17.4312    2.3916   52.5072 C   0  0  0  0  0  0  0  0  0  0  0  0
   18.7062    2.9030   52.5943 C   0  0  0  0  0  0  0  0  0  0  0  0
   14.4209    2.7263   52.6464 H   0  0  0  0  0  0  0  0  0  0  0  0
   25.2646    6.8780   54.7585 C   0  0  0  0  0  0  0  0  0  0  0  0
   25.2012    5.7585   55.3773 O   0  0  0  0  0  0  0  0  0  0  0  0
   26.0945    7.9384   55.0001 N   0  0  0  0  0  0  0  0  0  0  0  0
   26.7251    7.2278   55.9720 H   0  0  0  0  0  0  0  0  0  0  0  0
   26.9174    8.9891   55.2401 C   0  0  0  0  0  0  0  0  0  0  0  0
   28.3467    8.7965   54.9090 C   0  0  0  0  0  0  0  0  0  0  0  0
   29.3106    9.7562   55.0525 O   0  0  0  0  0  0  0  0  0  0  0  0
   28.6226    7.6223   54.4570 O   0  0  0  0  0  0  0  0  0  0  0  0
   30.2670    9.4473   55.2115 H   0  0  0  0  0  0  0  0  0  0  0  0
   26.7015    9.8210   56.4926 C   0  0  0  0  0  0  0  0  0  0  0  0
   27.6480    9.6653   57.5742 C   0  0  0  0  0  0  0  0  0  0  0  0
   28.1548    8.3914   57.9304 C   0  0  0  0  0  0  0  0  0  0  0  0
   29.0197    8.5211   58.9318 N   0  0  0  0  0  0  0  0  0  0  0  0
   29.1219    9.8410   59.2743 C   0  0  0  0  0  0  0  0  0  0  0  0
   29.8763   10.4474   60.2491 C   0  0  0  0  0  0  0  0  0  0  0  0
   29.7803   11.8090   60.3915 C   0  0  0  0  0  0  0  0  0  0  0  0
   28.9423   12.5122   59.5656 C   0  0  0  0  0  0  0  0  0  0  0  0
   28.1903   11.9215   58.5975 C   0  0  0  0  0  0  0  0  0  0  0  0
   28.2726   10.5319   58.4309 C   0  0  0  0  0  0  0  0  0  0  0  0
   29.5671    7.7732   59.4200 H   0  0  0  0  0  0  0  0  0  0  0  0
   24.2435    8.3048   53.0225 C   0  0  0  0  0  0  0  0  0  0  0  0
   23.1956    9.1949   53.5414 C   0  0  0  0  0  0  0  0  0  0  0  0
   22.4127   10.0266   52.7790 C   0  0  0  0  0  0  0  0  0  0  0  0
   21.4420   10.8400   53.3089 C   0  0  0  0  0  0  0  0  0  0  0  0
   21.2157   10.8478   54.6661 C   0  0  0  0  0  0  0  0  0  0  0  0
   20.2301   11.6689   55.2416 O   0  0  0  0  0  0  0  0  0  0  0  0
   21.9830   10.0258   55.4585 C   0  0  0  0  0  0  0  0  0  0  0  0
   22.9560    9.2143   54.9012 C   0  0  0  0  0  0  0  0  0  0  0  0
   19.2924   11.2618   55.3265 H   0  0  0  0  0  0  0  0  0  0  0  0
  7  8  2  0  0  0
  8  9  1  0  0  0
  9  6  1  0  0  0
  6 12  1  0  0  0
 12 13  1  0  0  0
 13 14  2  0  0  0
 14 15  1  0  0  0
 15 16  2  0  0  0
 16 17  1  0  0  0
 16 18  1  0  0  0
 18 19  2  0  0  0
  6  2  1  0  0  0
  2  3  2  0  0  0
  2  4  1  0  0  0
  4  1  1  0  0  0
  1 41  1  0  0  0
 41 42  1  0  0  0
 42 43  2  0  0  0
 43 44  1  0  0  0
 44 45  2  0  0  0
 45 46  1  0  0  0
 45 47  1  0  0  0
 47 48  2  0  0  0
  1 21  1  0  0  0
 21 22  2  0  0  0
 21 23  1  0  0  0
 23 25  1  0  0  0
 25 30  1  0  0  0
 30 31  1  0  0  0
 31 32  2  0  0  0
 32 33  1  0  0  0
 33 34  1  0  0  0
 34 35  2  0  0  0
 35 36  1  0  0  0
 36 37  2  0  0  0
 37 38  1  0  0  0
 38 39  2  0  0  0
 25 26  1  0  0  0
 26 27  1  0  0  0
 26 28  2  0  0  0
  8 10  1  0  0  0
 19 13  1  0  0  0
 48 42  1  0  0  0
 39 31  1  0  0  0
 39 34  1  0  0  0
  9 11  1  0  0  0
 17 20  1  0  0  0
  4  5  1  0  0  0
 46 49  1  0  0  0
 23 24  1  0  0  0
 33 40  1  0  0  0
 27 29  1  0  0  0
M  END
> <minimizedAffinity>
24.25180

> <CNNscore>
0.5942562222

> <CNNaffinity>
7.0230445862

> <CNN_VS>
4.1734881401

> <CNNaffinity_variance>
0.5882818103

$$$$
[H]OC(=O)[C@@]([H])(N([H])C(=O)[C@@]([H])(N([H])C(=O)[C@@]([H])(N([H])C(=O)C([H])([H])[H])C([H])([H])c1c([H])c([H])c(O[H])c([H])c1[H])C([H])([H])c1c([H])c([H])c(O[H])c([H])c1[H])C([H])([H])c1c([H])n([H])c2c([H])c([H])c([H])c([H])c12


 49 52  0  0  0  0  0  0  0  0999 V2000
   26.9372    8.7038   53.8240 C   0  0  0  0  0  0  0  0  0  0  0  0
   24.5624    8.6433   54.5296 C   0  0  0  0  0  0  0  0  0  0  0  0
   24.8867    9.3522   55.5085 O   0  0  0  0  0  0  0  0  0  0  0  0
   25.5970    8.2641   53.6118 N   0  0  0  0  0  0  0  0  0  0  0  0
   25.2946    7.6553   52.7971 H   0  0  0  0  0  0  0  0  0  0  0  0
   23.1620    8.2380   54.3663 C   0  0  0  0  0  0  0  0  0  0  0  0
   24.0990    5.4775   54.2337 O   0  0  0  0  0  0  0  0  0  0  0  0
   23.2541    5.8040   55.1017 C   0  0  0  0  0  0  0  0  0  0  0  0
   22.7817    7.1253   55.1959 N   0  0  0  0  0  0  0  0  0  0  0  0
   22.7859    4.7333   56.0131 C   0  0  0  0  0  0  0  0  0  0  0  0
   22.0581    7.2783   55.9860 H   0  0  0  0  0  0  0  0  0  0  0  0
   22.2996    9.4487   54.6487 C   0  0  0  0  0  0  0  0  0  0  0  0
   21.9320   10.2216   53.4445 C   0  0  0  0  0  0  0  0  0  0  0  0
   21.9758   11.5942   53.3627 C   0  0  0  0  0  0  0  0  0  0  0  0
   21.5984   12.2612   52.2033 C   0  0  0  0  0  0  0  0  0  0  0  0
   21.1660   11.5825   51.0875 C   0  0  0  0  0  0  0  0  0  0  0  0
   20.7921   12.2578   49.9370 O   0  0  0  0  0  0  0  0  0  0  0  0
   21.1210   10.1970   51.1652 C   0  0  0  0  0  0  0  0  0  0  0  0
   21.4930    9.5304   52.3107 C   0  0  0  0  0  0  0  0  0  0  0  0
   21.4421   12.4849   49.2017 H   0  0  0  0  0  0  0  0  0  0  0  0
   27.8545    8.3313   52.6739 C   0  0  0  0  0  0  0  0  0  0  0  0
   28.5620    7.3095   52.9834 O   0  0  0  0  0  0  0  0  0  0  0  0
   27.8539    9.0442   51.5064 N   0  0  0  0  0  0  0  0  0  0  0  0
   28.7471    8.1719   50.9692 H   0  0  0  0  0  0  0  0  0  0  0  0
   27.8536    9.7505   50.3488 C   0  0  0  0  0  0  0  0  0  0  0  0
   28.1469    8.9914   49.1129 C   0  0  0  0  0  0  0  0  0  0  0  0
   29.2061    8.1396   48.9607 O   0  0  0  0  0  0  0  0  0  0  0  0
   27.3064    9.2034   48.1602 O   0  0  0  0  0  0  0  0  0  0  0  0
   29.1086    7.3765   48.2947 H   0  0  0  0  0  0  0  0  0  0  0  0
   28.4404   11.1516   50.3424 C   0  0  0  0  0  0  0  0  0  0  0  0
   28.1719   11.9874   49.1938 C   0  0  0  0  0  0  0  0  0  0  0  0
   29.0251   11.9798   48.0630 C   0  0  0  0  0  0  0  0  0  0  0  0
   28.5489   12.8110   47.1411 N   0  0  0  0  0  0  0  0  0  0  0  0
   27.3986   13.3887   47.6025 C   0  0  0  0  0  0  0  0  0  0  0  0
   26.5709   14.3109   47.0097 C   0  0  0  0  0  0  0  0  0  0  0  0
   25.4712   14.7408   47.7092 C   0  0  0  0  0  0  0  0  0  0  0  0
   25.2375   14.2418   48.9643 C   0  0  0  0  0  0  0  0  0  0  0  0
   26.0512   13.3287   49.5609 C   0  0  0  0  0  0  0  0  0  0  0  0
   27.1799   12.8725   48.8657 C   0  0  0  0  0  0  0  0  0  0  0  0
   28.9433   13.0293   46.1955 H   0  0  0  0  0  0  0  0  0  0  0  0
   27.4573    8.0574   55.0945 C   0  0  0  0  0  0  0  0  0  0  0  0
   27.7839    9.0060   56.1684 C   0  0  0  0  0  0  0  0  0  0  0  0
   27.8007    8.7103   57.5093 C   0  0  0  0  0  0  0  0  0  0  0  0
   28.1154    9.6306   58.4782 C   0  0  0  0  0  0  0  0  0  0  0  0
   28.4343   10.9214   58.1242 C   0  0  0  0  0  0  0  0  0  0  0  0
   28.7608   11.8887   59.0908 O   0  0  0  0  0  0  0  0  0  0  0  0
   28.4269   11.2505   56.7885 C   0  0  0  0  0  0  0  0  0  0  0  0
   28.1064   10.3053   55.8296 C   0  0  0  0  0  0  0  0  0  0  0  0
   29.7526   11.9637   59.3416 H   0  0  0  0  0  0  0  0  0  0  0  0
  7  8  2  0  0  0
  8  9  1  0  0  0
  9  6  1  0  0  0
  6 12  1  0  0  0
 12 13  1  0  0  0
 13 14  2  0  0  0
 14 15  1  0  0  0
 15 16  2  0  0  0
 16 17  1  0  0  0
 16 18  1  0  0  0
 18 19  2  0  0  0
  6  2  1  0  0  0
  2  3  2  0  0  0
  2  4  1  0  0  0
  4  1  1  0  0  0
  1 41  1  0  0  0
 41 42  1  0  0  0
 42 43  2  0  0  0
 43 44  1  0  0  0
 44 45  2  0  0  0
 45 46  1  0  0  0
 45 47  1  0  0  0
 47 48  2  0  0  0
  1 21  1  0  0  0
 21 22  2  0  0  0
 21 23  1  0  0  0
 23 25  1  0  0  0
 25 30  1  0  0  0
 30 31  1  0  0  0
 31 32  2  0  0  0
 32 33  1  0  0  0
 33 34  1  0  0  0
 34 35  2  0  0  0
 35 36  1  0  0  0
 36 37  2  0  0  0
 37 38  1  0  0  0
 38 39  2  0  0  0
 25 26  1  0  0  0
 26 27  1  0  0  0
 26 28  2  0  0  0
  8 10  1  0  0  0
 19 13  1  0  0  0
 48 42  1  0  0  0
 39 31  1  0  0  0
 39 34  1  0  0  0
  9 11  1  0  0  0
 17 20  1  0  0  0
  4  5  1  0  0  0
 46 49  1  0  0  0
 23 24  1  0  0  0
 33 40  1  0  0  0
 27 29  1  0  0  0
M  END
> <minimizedAffinity>
32.66823

> <CNNscore>
0.5896387696

> <CNNaffinity>
6.6304717064

> <CNN_VS>
3.9095830917

> <CNNaffinity_variance>
1.5523746014

$$$$
[H]OC(=O)[C@@]([H])(N([H])C(=O)[C@@]([H])(N([H])C(=O)[C@@]([H])(N([H])C(=O)C([H])([H])[H])C([H])([H])c1c([H])c([H])c(O[H])c([H])c1[H])C([H])([H])c1c([H])c([H])c(O[H])c([H])c1[H])C([H])([H])c1c([H])n([H])c2c([H])c([H])c([H])c([H])c12


 49 52  0  0  0  0  0  0  0  0999 V2000
   23.3651    8.0016   52.9054 C   0  0  0  0  0  0  0  0  0  0  0  0
   21.0963    7.1497   52.3879 C   0  0  0  0  0  0  0  0  0  0  0  0
   21.2024    7.6924   51.2654 O   0  0  0  0  0  0  0  0  0  0  0  0
   22.1973    7.2823   53.2971 N   0  0  0  0  0  0  0  0  0  0  0  0
   22.0754    6.8203   54.2444 H   0  0  0  0  0  0  0  0  0  0  0  0
   19.8711    6.4141   52.7194 C   0  0  0  0  0  0  0  0  0  0  0  0
   18.0584    4.4260   53.8495 O   0  0  0  0  0  0  0  0  0  0  0  0
   19.1651    4.0618   53.3843 C   0  0  0  0  0  0  0  0  0  0  0  0
   20.0627    4.9921   52.8304 N   0  0  0  0  0  0  0  0  0  0  0  0
   19.4722    2.6135   53.4492 C   0  0  0  0  0  0  0  0  0  0  0  0
   20.9804    4.5523   52.4623 H   0  0  0  0  0  0  0  0  0  0  0  0
   19.3241    6.9928   54.0059 C   0  0  0  0  0  0  0  0  0  0  0  0
   20.2847    7.8392   54.7430 C   0  0  0  0  0  0  0  0  0  0  0  0
   20.2687    9.2149   54.7353 C   0  0  0  0  0  0  0  0  0  0  0  0
   21.2144    9.9523   55.4375 C   0  0  0  0  0  0  0  0  0  0  0  0
   22.2064    9.3434   56.1710 C   0  0  0  0  0  0  0  0  0  0  0  0
   23.1443   10.0886   56.8671 O   0  0  0  0  0  0  0  0  0  0  0  0
   22.2260    7.9551   56.1823 C   0  0  0  0  0  0  0  0  0  0  0  0
   21.2924    7.2189   55.4885 C   0  0  0  0  0  0  0  0  0  0  0  0
   23.0085   10.3833   57.8208 H   0  0  0  0  0  0  0  0  0  0  0  0
   24.6420    7.3148   53.3535 C   0  0  0  0  0  0  0  0  0  0  0  0
   24.6554    6.0980   52.9539 O   0  0  0  0  0  0  0  0  0  0  0  0
   25.5907    7.9836   54.0773 N   0  0  0  0  0  0  0  0  0  0  0  0
   26.3990    6.8918   54.0333 H   0  0  0  0  0  0  0  0  0  0  0  0
   26.5316    8.6461   54.7948 C   0  0  0  0  0  0  0  0  0  0  0  0
   27.8937    8.6863   54.2181 C   0  0  0  0  0  0  0  0  0  0  0  0
   29.0444    8.5174   54.9379 O   0  0  0  0  0  0  0  0  0  0  0  0
   27.9152    8.9037   52.9487 O   0  0  0  0  0  0  0  0  0  0  0  0
   29.8579    8.1474   54.4514 H   0  0  0  0  0  0  0  0  0  0  0  0
   26.5276    8.5173   56.3084 C   0  0  0  0  0  0  0  0  0  0  0  0
   27.2932    9.4810   57.0668 C   0  0  0  0  0  0  0  0  0  0  0  0
   27.2954   10.8547   56.7211 C   0  0  0  0  0  0  0  0  0  0  0  0
   28.0520   11.5286   57.5820 N   0  0  0  0  0  0  0  0  0  0  0  0
   28.5691   10.6626   58.5054 C   0  0  0  0  0  0  0  0  0  0  0  0
   29.4066   10.8976   59.5686 C   0  0  0  0  0  0  0  0  0  0  0  0
   29.7900    9.8302   60.3414 C   0  0  0  0  0  0  0  0  0  0  0  0
   29.3305    8.5771   60.0296 C   0  0  0  0  0  0  0  0  0  0  0  0
   28.5014    8.3333   58.9785 C   0  0  0  0  0  0  0  0  0  0  0  0
   28.0938    9.4076   58.1753 C   0  0  0  0  0  0  0  0  0  0  0  0
   28.2560   12.5558   57.6038 H   0  0  0  0  0  0  0  0  0  0  0  0
   23.3074    9.3836   53.5292 C   0  0  0  0  0  0  0  0  0  0  0  0
   22.5573   10.3735   52.7435 C   0  0  0  0  0  0  0  0  0  0  0  0
   21.8255   10.0996   51.6142 C   0  0  0  0  0  0  0  0  0  0  0  0
   21.1373   11.0588   50.9134 C   0  0  0  0  0  0  0  0  0  0  0  0
   21.1601   12.3684   51.3346 C   0  0  0  0  0  0  0  0  0  0  0  0
   20.4670   13.3754   50.6402 O   0  0  0  0  0  0  0  0  0  0  0  0
   21.8840   12.6765   52.4631 C   0  0  0  0  0  0  0  0  0  0  0  0
   22.5699   11.6921   53.1532 C   0  0  0  0  0  0  0  0  0  0  0  0
   19.4988   13.5456   50.9333 H   0  0  0  0  0  0  0  0  0  0  0  0
  7  8  2  0  0  0
  8  9  1  0  0  0
  9  6  1  0  0  0
  6 12  1  0  0  0
 12 13  1  0  0  0
 13 14  2  0  0  0
 14 15  1  0  0  0
 15 16  2  0  0  0
 16 17  1  0  0  0
 16 18  1  0  0  0
 18 19  2  0  0  0
  6  2  1  0  0  0
  2  3  2  0  0  0
  2  4  1  0  0  0
  4  1  1  0  0  0
  1 41  1  0  0  0
 41 42  1  0  0  0
 42 43  2  0  0  0
 43 44  1  0  0  0
 44 45  2  0  0  0
 45 46  1  0  0  0
 45 47  1  0  0  0
 47 48  2  0  0  0
  1 21  1  0  0  0
 21 22  2  0  0  0
 21 23  1  0  0  0
 23 25  1  0  0  0
 25 30  1  0  0  0
 30 31  1  0  0  0
 31 32  2  0  0  0
 32 33  1  0  0  0
 33 34  1  0  0  0
 34 35  2  0  0  0
 35 36  1  0  0  0
 36 37  2  0  0  0
 37 38  1  0  0  0
 38 39  2  0  0  0
 25 26  1  0  0  0
 26 27  1  0  0  0
 26 28  2  0  0  0
  8 10  1  0  0  0
 19 13  1  0  0  0
 48 42  1  0  0  0
 39 31  1  0  0  0
 39 34  1  0  0  0
  9 11  1  0  0  0
 17 20  1  0  0  0
  4  5  1  0  0  0
 46 49  1  0  0  0
 23 24  1  0  0  0
 33 40  1  0  0  0
 27 29  1  0  0  0
M  END
> <minimizedAffinity>
23.37121

> <CNNscore>
0.5531534553

> <CNNaffinity>
6.7733697891

> <CNN_VS>
3.7467129230

> <CNNaffinity_variance>
1.0150845051

$$$$
[H]OC(=O)[C@@]([H])(N([H])C(=O)[C@@]([H])(N([H])C(=O)[C@@]([H])(N([H])C(=O)C([H])([H])[H])C([H])([H])c1c([H])c([H])c(O[H])c([H])c1[H])C([H])([H])c1c([H])c([H])c(O[H])c([H])c1[H])C([H])([H])c1c([H])n([H])c2c([H])c([H])c([H])c([H])c12


 49 52  0  0  0  0  0  0  0  0999 V2000
   26.8532    9.0141   55.3746 C   0  0  0  0  0  0  0  0  0  0  0  0
   24.4131    9.4431   55.4290 C   0  0  0  0  0  0  0  0  0  0  0  0
   24.6310   10.2834   56.3302 O   0  0  0  0  0  0  0  0  0  0  0  0
   25.5401    8.7382   54.8908 N   0  0  0  0  0  0  0  0  0  0  0  0
   25.3241    8.0253   54.1353 H   0  0  0  0  0  0  0  0  0  0  0  0
   23.0378    9.2192   54.9702 C   0  0  0  0  0  0  0  0  0  0  0  0
   21.8663   10.2213   52.4925 O   0  0  0  0  0  0  0  0  0  0  0  0
   21.7431   10.8861   53.5493 C   0  0  0  0  0  0  0  0  0  0  0  0
   22.2931   10.4329   54.7617 N   0  0  0  0  0  0  0  0  0  0  0  0
   20.9945   12.1614   53.4520 C   0  0  0  0  0  0  0  0  0  0  0  0
   22.1164   11.0948   55.5994 H   0  0  0  0  0  0  0  0  0  0  0  0
   23.1070    8.3971   53.7019 C   0  0  0  0  0  0  0  0  0  0  0  0
   22.1063    7.3126   53.6307 C   0  0  0  0  0  0  0  0  0  0  0  0
   22.3737    5.9931   53.9140 C   0  0  0  0  0  0  0  0  0  0  0  0
   21.3890    5.0180   53.8096 C   0  0  0  0  0  0  0  0  0  0  0  0
   20.1058    5.3256   53.4204 C   0  0  0  0  0  0  0  0  0  0  0  0
   19.1321    4.3452   53.3196 O   0  0  0  0  0  0  0  0  0  0  0  0
   19.8312    6.6562   53.1342 C   0  0  0  0  0  0  0  0  0  0  0  0
   20.8021    7.6268   53.2353 C   0  0  0  0  0  0  0  0  0  0  0  0
   18.5362    4.0865   54.0895 H   0  0  0  0  0  0  0  0  0  0  0  0
   27.9311    8.4318   54.4792 C   0  0  0  0  0  0  0  0  0  0  0  0
   28.4223    7.3730   55.0065 O   0  0  0  0  0  0  0  0  0  0  0  0
   28.2620    9.0232   53.2908 N   0  0  0  0  0  0  0  0  0  0  0  0
   29.1264    8.0091   53.0228 H   0  0  0  0  0  0  0  0  0  0  0  0
   28.5904    9.6089   52.1127 C   0  0  0  0  0  0  0  0  0  0  0  0
   29.4380   10.8193   52.1916 C   0  0  0  0  0  0  0  0  0  0  0  0
   29.8753   11.3833   53.3584 O   0  0  0  0  0  0  0  0  0  0  0  0
   29.7383   11.3202   51.0436 O   0  0  0  0  0  0  0  0  0  0  0  0
   30.7449   11.9111   53.3330 H   0  0  0  0  0  0  0  0  0  0  0  0
   27.5466    9.6817   51.0116 C   0  0  0  0  0  0  0  0  0  0  0  0
   28.0042    9.9610   49.6691 C   0  0  0  0  0  0  0  0  0  0  0  0
   28.0742   11.2874   49.1769 C   0  0  0  0  0  0  0  0  0  0  0  0
   28.5455   11.2761   47.9338 N   0  0  0  0  0  0  0  0  0  0  0  0
   28.8000    9.9864   47.5572 C   0  0  0  0  0  0  0  0  0  0  0  0
   29.2805    9.4884   46.3706 C   0  0  0  0  0  0  0  0  0  0  0  0
   29.4319    8.1297   46.2504 C   0  0  0  0  0  0  0  0  0  0  0  0
   29.1009    7.3220   47.3072 C   0  0  0  0  0  0  0  0  0  0  0  0
   28.6235    7.8047   48.4865 C   0  0  0  0  0  0  0  0  0  0  0  0
   28.4621    9.1895   48.6346 C   0  0  0  0  0  0  0  0  0  0  0  0
   28.7184   12.0888   47.2957 H   0  0  0  0  0  0  0  0  0  0  0  0
   26.9890    8.4109   56.7603 C   0  0  0  0  0  0  0  0  0  0  0  0
   27.7585    9.2308   57.7066 C   0  0  0  0  0  0  0  0  0  0  0  0
   28.3758    8.7635   58.8408 C   0  0  0  0  0  0  0  0  0  0  0  0
   29.0877    9.5684   59.6952 C   0  0  0  0  0  0  0  0  0  0  0  0
   29.2090   10.9137   59.4332 C   0  0  0  0  0  0  0  0  0  0  0  0
   29.9303   11.7662   60.2874 O   0  0  0  0  0  0  0  0  0  0  0  0
   28.6024   11.4140   58.3045 C   0  0  0  0  0  0  0  0  0  0  0  0
   27.8898   10.5827   57.4577 C   0  0  0  0  0  0  0  0  0  0  0  0
   30.9290   11.8770   60.0813 H   0  0  0  0  0  0  0  0  0  0  0  0
  7  8  2  0  0  0
  8  9  1  0  0  0
  9  6  1  0  0  0
  6 12  1  0  0  0
 12 13  1  0  0  0
 13 14  2  0  0  0
 14 15  1  0  0  0
 15 16  2  0  0  0
 16 17  1  0  0  0
 16 18  1  0  0  0
 18 19  2  0  0  0
  6  2  1  0  0  0
  2  3  2  0  0  0
  2  4  1  0  0  0
  4  1  1  0  0  0
  1 41  1  0  0  0
 41 42  1  0  0  0
 42 43  2  0  0  0
 43 44  1  0  0  0
 44 45  2  0  0  0
 45 46  1  0  0  0
 45 47  1  0  0  0
 47 48  2  0  0  0
  1 21  1  0  0  0
 21 22  2  0  0  0
 21 23  1  0  0  0
 23 25  1  0  0  0
 25 30  1  0  0  0
 30 31  1  0  0  0
 31 32  2  0  0  0
 32 33  1  0  0  0
 33 34  1  0  0  0
 34 35  2  0  0  0
 35 36  1  0  0  0
 36 37  2  0  0  0
 37 38  1  0  0  0
 38 39  2  0  0  0
 25 26  1  0  0  0
 26 27  1  0  0  0
 26 28  2  0  0  0
  8 10  1  0  0  0
 19 13  1  0  0  0
 48 42  1  0  0  0
 39 31  1  0  0  0
 39 34  1  0  0  0
  9 11  1  0  0  0
 17 20  1  0  0  0
  4  5  1  0  0  0
 46 49  1  0  0  0
 23 24  1  0  0  0
 33 40  1  0  0  0
 27 29  1  0  0  0
M  END
> <minimizedAffinity>
31.04250

> <CNNscore>
0.5267614126

> <CNNaffinity>
6.4684686661

> <CNN_VS>
3.4073395729

> <CNNaffinity_variance>
1.0071671009

$$$$
[H]OC(=O)[C@@]([H])(N([H])C(=O)[C@@]([H])(N([H])C(=O)[C@@]([H])(N([H])C(=O)C([H])([H])[H])C([H])([H])c1c([H])c([H])c(O[H])c([H])c1[H])C([H])([H])c1c([H])c([H])c(O[H])c([H])c1[H])C([H])([H])c1c([H])n([H])c2c([H])c([H])c([H])c([H])c12


 49 52  0  0  0  0  0  0  0  0999 V2000
   24.1765    7.4754   53.5484 C   0  0  0  0  0  0  0  0  0  0  0  0
   22.5335    9.1772   52.8098 C   0  0  0  0  0  0  0  0  0  0  0  0
   22.8604    8.9098   51.6320 O   0  0  0  0  0  0  0  0  0  0  0  0
   23.1945    8.4612   53.8620 N   0  0  0  0  0  0  0  0  0  0  0  0
   22.9041    8.7155   54.8503 H   0  0  0  0  0  0  0  0  0  0  0  0
   21.5059   10.1941   53.0590 C   0  0  0  0  0  0  0  0  0  0  0  0
   22.6189   10.2334   55.7564 O   0  0  0  0  0  0  0  0  0  0  0  0
   21.3883   10.0488   55.5965 C   0  0  0  0  0  0  0  0  0  0  0  0
   20.8174   10.0255   54.3114 N   0  0  0  0  0  0  0  0  0  0  0  0
   20.5773    9.8587   56.8222 C   0  0  0  0  0  0  0  0  0  0  0  0
   19.7479    9.8601   54.3083 H   0  0  0  0  0  0  0  0  0  0  0  0
   22.1753   11.5489   52.9827 C   0  0  0  0  0  0  0  0  0  0  0  0
   21.5943   12.4525   51.9686 C   0  0  0  0  0  0  0  0  0  0  0  0
   21.2942   12.0778   50.6793 C   0  0  0  0  0  0  0  0  0  0  0  0
   20.7650   12.9842   49.7683 C   0  0  0  0  0  0  0  0  0  0  0  0
   20.5168   14.2929   50.1122 C   0  0  0  0  0  0  0  0  0  0  0  0
   19.9891   15.1880   49.1957 O   0  0  0  0  0  0  0  0  0  0  0  0
   20.8174   14.6753   51.4127 C   0  0  0  0  0  0  0  0  0  0  0  0
   21.3421   13.7826   52.3196 C   0  0  0  0  0  0  0  0  0  0  0  0
   18.9986   15.3261   49.0757 H   0  0  0  0  0  0  0  0  0  0  0  0
   23.5553    6.1438   53.1692 C   0  0  0  0  0  0  0  0  0  0  0  0
   24.4696    5.2833   52.9163 O   0  0  0  0  0  0  0  0  0  0  0  0
   22.1977    5.9790   53.1327 N   0  0  0  0  0  0  0  0  0  0  0  0
   22.3619    4.6603   52.8477 H   0  0  0  0  0  0  0  0  0  0  0  0
   20.8521    5.8152   53.0964 C   0  0  0  0  0  0  0  0  0  0  0  0
   20.0456    7.0326   52.8570 C   0  0  0  0  0  0  0  0  0  0  0  0
   19.3290    7.6880   53.8201 O   0  0  0  0  0  0  0  0  0  0  0  0
   20.0661    7.4384   51.6347 O   0  0  0  0  0  0  0  0  0  0  0  0
   19.1674    8.6848   53.6945 H   0  0  0  0  0  0  0  0  0  0  0  0
   20.2022    4.8512   54.0740 C   0  0  0  0  0  0  0  0  0  0  0  0
   19.1918    3.9533   53.5612 C   0  0  0  0  0  0  0  0  0  0  0  0
   19.5359    2.8481   52.7447 C   0  0  0  0  0  0  0  0  0  0  0  0
   18.4369    2.1707   52.4271 N   0  0  0  0  0  0  0  0  0  0  0  0
   17.3511    2.7752   52.9976 C   0  0  0  0  0  0  0  0  0  0  0  0
   16.0195    2.4431   52.9386 C   0  0  0  0  0  0  0  0  0  0  0  0
   15.1214    3.2402   53.6030 C   0  0  0  0  0  0  0  0  0  0  0  0
   15.5775    4.3314   54.2958 C   0  0  0  0  0  0  0  0  0  0  0  0
   16.8940    4.6697   54.3602 C   0  0  0  0  0  0  0  0  0  0  0  0
   17.8312    3.8698   53.6915 C   0  0  0  0  0  0  0  0  0  0  0  0
   18.3514    1.3065   51.8412 H   0  0  0  0  0  0  0  0  0  0  0  0
   25.0591    7.2750   54.7662 C   0  0  0  0  0  0  0  0  0  0  0  0
   26.2662    8.1130   54.7857 C   0  0  0  0  0  0  0  0  0  0  0  0
   26.7411    8.7938   55.8797 C   0  0  0  0  0  0  0  0  0  0  0  0
   27.8774    9.5638   55.8510 C   0  0  0  0  0  0  0  0  0  0  0  0
   28.6000    9.6817   54.6860 C   0  0  0  0  0  0  0  0  0  0  0  0
   29.7675   10.4623   54.6218 O   0  0  0  0  0  0  0  0  0  0  0  0
   28.1512    9.0120   53.5714 C   0  0  0  0  0  0  0  0  0  0  0  0
   27.0027    8.2414   53.6247 C   0  0  0  0  0  0  0  0  0  0  0  0
   30.6474    9.9827   54.8407 H   0  0  0  0  0  0  0  0  0  0  0  0
  7  8  2  0  0  0
  8  9  1  0  0  0
  9  6  1  0  0  0
  6 12  1  0  0  0
 12 13  1  0  0  0
 13 14  2  0  0  0
 14 15  1  0  0  0
 15 16  2  0  0  0
 16 17  1  0  0  0
 16 18  1  0  0  0
 18 19  2  0  0  0
  6  2  1  0  0  0
  2  3  2  0  0  0
  2  4  1  0  0  0
  4  1  1  0  0  0
  1 41  1  0  0  0
 41 42  1  0  0  0
 42 43  2  0  0  0
 43 44  1  0  0  0
 44 45  2  0  0  0
 45 46  1  0  0  0
 45 47  1  0  0  0
 47 48  2  0  0  0
  1 21  1  0  0  0
 21 22  2  0  0  0
 21 23  1  0  0  0
 23 25  1  0  0  0
 25 30  1  0  0  0
 30 31  1  0  0  0
 31 32  2  0  0  0
 32 33  1  0  0  0
 33 34  1  0  0  0
 34 35  2  0  0  0
 35 36  1  0  0  0
 36 37  2  0  0  0
 37 38  1  0  0  0
 38 39  2  0  0  0
 25 26  1  0  0  0
 26 27  1  0  0  0
 26 28  2  0  0  0
  8 10  1  0  0  0
 19 13  1  0  0  0
 48 42  1  0  0  0
 39 31  1  0  0  0
 39 34  1  0  0  0
  9 11  1  0  0  0
 17 20  1  0  0  0
  4  5  1  0  0  0
 46 49  1  0  0  0
 23 24  1  0  0  0
 33 40  1  0  0  0
 27 29  1  0  0  0
M  END
> <minimizedAffinity>
33.44565

> <CNNscore>
0.5176998377

> <CNNaffinity>
6.7375879288

> <CNN_VS>
3.4880480766

> <CNNaffinity_variance>
1.0907176733

$$$$
[H]OC(=O)[C@@]([H])(N([H])C(=O)[C@@]([H])(N([H])C(=O)[C@@]([H])(N([H])C(=O)C([H])([H])[H])C([H])([H])c1c([H])c([H])c(O[H])c([H])c1[H])C([H])([H])c1c([H])c([H])c(O[H])c([H])c1[H])C([H])([H])c1c([H])n([H])c2c([H])c([H])c([H])c([H])c12


 49 52  0  0  0  0  0  0  0  0999 V2000
   27.4216    8.7376   53.9211 C   0  0  0  0  0  0  0  0  0  0  0  0
   25.2244    8.7045   55.0665 C   0  0  0  0  0  0  0  0  0  0  0  0
   25.7188    9.4631   55.9302 O   0  0  0  0  0  0  0  0  0  0  0  0
   26.0714    8.2830   53.9888 N   0  0  0  0  0  0  0  0  0  0  0  0
   25.6283    7.6328   53.2771 H   0  0  0  0  0  0  0  0  0  0  0  0
   23.8238    8.2865   55.1918 C   0  0  0  0  0  0  0  0  0  0  0  0
   21.0243    8.3555   56.0126 O   0  0  0  0  0  0  0  0  0  0  0  0
   21.5376    9.3665   55.4758 C   0  0  0  0  0  0  0  0  0  0  0  0
   22.8840    9.3694   55.0694 N   0  0  0  0  0  0  0  0  0  0  0  0
   20.6578   10.5453   55.2951 C   0  0  0  0  0  0  0  0  0  0  0  0
   23.2064   10.3008   54.6225 H   0  0  0  0  0  0  0  0  0  0  0  0
   23.5689    7.2225   54.1467 C   0  0  0  0  0  0  0  0  0  0  0  0
   22.4587    7.5369   53.2241 C   0  0  0  0  0  0  0  0  0  0  0  0
   22.4214    8.6428   52.4065 C   0  0  0  0  0  0  0  0  0  0  0  0
   21.3364    8.8893   51.5739 C   0  0  0  0  0  0  0  0  0  0  0  0
   20.2536    8.0418   51.5279 C   0  0  0  0  0  0  0  0  0  0  0  0
   19.1772    8.2976   50.6940 O   0  0  0  0  0  0  0  0  0  0  0  0
   20.2873    6.9240   52.3507 C   0  0  0  0  0  0  0  0  0  0  0  0
   21.3588    6.6743   53.1780 C   0  0  0  0  0  0  0  0  0  0  0  0
   19.1275    7.9578   49.7470 H   0  0  0  0  0  0  0  0  0  0  0  0
   28.1204    8.2810   52.6538 C   0  0  0  0  0  0  0  0  0  0  0  0
   28.7434    7.1815   52.8619 O   0  0  0  0  0  0  0  0  0  0  0  0
   28.0372    9.0065   51.4971 N   0  0  0  0  0  0  0  0  0  0  0  0
   28.7412    8.0471   50.8405 H   0  0  0  0  0  0  0  0  0  0  0  0
   27.9551    9.7253   50.3502 C   0  0  0  0  0  0  0  0  0  0  0  0
   28.1548    8.9788   49.0882 C   0  0  0  0  0  0  0  0  0  0  0  0
   27.3727    9.1175   47.9747 O   0  0  0  0  0  0  0  0  0  0  0  0
   29.1484    8.1598   49.1196 O   0  0  0  0  0  0  0  0  0  0  0  0
   27.7953    8.9183   47.0708 H   0  0  0  0  0  0  0  0  0  0  0  0
   28.5448   11.1248   50.3157 C   0  0  0  0  0  0  0  0  0  0  0  0
   28.2410   11.9541   49.1712 C   0  0  0  0  0  0  0  0  0  0  0  0
   29.0596   11.9406   48.0152 C   0  0  0  0  0  0  0  0  0  0  0  0
   28.5551   12.7665   47.1036 N   0  0  0  0  0  0  0  0  0  0  0  0
   27.4189   13.3462   47.5964 C   0  0  0  0  0  0  0  0  0  0  0  0
   26.5731   14.2648   47.0240 C   0  0  0  0  0  0  0  0  0  0  0  0
   25.4948   14.6981   47.7541 C   0  0  0  0  0  0  0  0  0  0  0  0
   25.2997   14.2059   49.0184 C   0  0  0  0  0  0  0  0  0  0  0  0
   26.1316   13.2965   49.5951 C   0  0  0  0  0  0  0  0  0  0  0  0
   27.2390   12.8369   48.8685 C   0  0  0  0  0  0  0  0  0  0  0  0
   28.9205   12.9797   46.1452 H   0  0  0  0  0  0  0  0  0  0  0  0
   28.1723    8.1876   55.1196 C   0  0  0  0  0  0  0  0  0  0  0  0
   28.2631    9.1142   56.2567 C   0  0  0  0  0  0  0  0  0  0  0  0
   28.2681    8.7473   57.5800 C   0  0  0  0  0  0  0  0  0  0  0  0
   28.3577    9.6502   58.6102 C   0  0  0  0  0  0  0  0  0  0  0  0
   28.4479   10.9963   58.3400 C   0  0  0  0  0  0  0  0  0  0  0  0
   28.5404   11.9478   59.3711 O   0  0  0  0  0  0  0  0  0  0  0  0
   28.4456   11.3975   57.0243 C   0  0  0  0  0  0  0  0  0  0  0  0
   28.3545   10.4684   56.0024 C   0  0  0  0  0  0  0  0  0  0  0  0
   29.4872   12.1879   59.6841 H   0  0  0  0  0  0  0  0  0  0  0  0
  7  8  2  0  0  0
  8  9  1  0  0  0
  9  6  1  0  0  0
  6 12  1  0  0  0
 12 13  1  0  0  0
 13 14  2  0  0  0
 14 15  1  0  0  0
 15 16  2  0  0  0
 16 17  1  0  0  0
 16 18  1  0  0  0
 18 19  2  0  0  0
  6  2  1  0  0  0
  2  3  2  0  0  0
  2  4  1  0  0  0
  4  1  1  0  0  0
  1 41  1  0  0  0
 41 42  1  0  0  0
 42 43  2  0  0  0
 43 44  1  0  0  0
 44 45  2  0  0  0
 45 46  1  0  0  0
 45 47  1  0  0  0
 47 48  2  0  0  0
  1 21  1  0  0  0
 21 22  2  0  0  0
 21 23  1  0  0  0
 23 25  1  0  0  0
 25 30  1  0  0  0
 30 31  1  0  0  0
 31 32  2  0  0  0
 32 33  1  0  0  0
 33 34  1  0  0  0
 34 35  2  0  0  0
 35 36  1  0  0  0
 36 37  2  0  0  0
 37 38  1  0  0  0
 38 39  2  0  0  0
 25 26  1  0  0  0
 26 27  1  0  0  0
 26 28  2  0  0  0
  8 10  1  0  0  0
 19 13  1  0  0  0
 48 42  1  0  0  0
 39 31  1  0  0  0
 39 34  1  0  0  0
  9 11  1  0  0  0
 17 20  1  0  0  0
  4  5  1  0  0  0
 46 49  1  0  0  0
 23 24  1  0  0  0
 33 40  1  0  0  0
 27 29  1  0  0  0
M  END
> <minimizedAffinity>
30.63752

> <CNNscore>
0.5102574229

> <CNNaffinity>
6.6359162331

> <CNN_VS>
3.3860254288

> <CNNaffinity_variance>
1.4183566570

$$$$
[H]OC(=O)[C@@]([H])(N([H])C(=O)[C@@]([H])(N([H])C(=O)[C@@]([H])(N([H])C(=O)C([H])([H])[H])C([H])([H])c1c([H])c([H])c(O[H])c([H])c1[H])C([H])([H])c1c([H])c([H])c(O[H])c([H])c1[H])C([H])([H])c1c([H])n([H])c2c([H])c([H])c([H])c([H])c12


 49 52  0  0  0  0  0  0  0  0999 V2000
   24.4019    8.1932   53.7943 C   0  0  0  0  0  0  0  0  0  0  0  0
   22.8482    9.9050   52.9019 C   0  0  0  0  0  0  0  0  0  0  0  0
   22.7073    9.1794   51.8922 O   0  0  0  0  0  0  0  0  0  0  0  0
   23.7310    9.4441   53.9338 N   0  0  0  0  0  0  0  0  0  0  0  0
   23.8382   10.0841   54.7732 H   0  0  0  0  0  0  0  0  0  0  0  0
   22.1167   11.1739   52.9847 C   0  0  0  0  0  0  0  0  0  0  0  0
   22.2213   13.5618   51.3106 O   0  0  0  0  0  0  0  0  0  0  0  0
   21.4204   12.6394   51.0248 C   0  0  0  0  0  0  0  0  0  0  0  0
   21.3443   11.4739   51.8081 N   0  0  0  0  0  0  0  0  0  0  0  0
   20.5679   12.8423   49.8297 C   0  0  0  0  0  0  0  0  0  0  0  0
   20.6167   10.7542   51.4561 H   0  0  0  0  0  0  0  0  0  0  0  0
   21.2369   11.1152   54.2143 C   0  0  0  0  0  0  0  0  0  0  0  0
   21.3686    9.8655   54.9911 C   0  0  0  0  0  0  0  0  0  0  0  0
   22.3403    9.6423   55.9392 C   0  0  0  0  0  0  0  0  0  0  0  0
   22.4190    8.4347   56.6224 C   0  0  0  0  0  0  0  0  0  0  0  0
   21.5319    7.4105   56.3841 C   0  0  0  0  0  0  0  0  0  0  0  0
   21.6199    6.2105   57.0711 O   0  0  0  0  0  0  0  0  0  0  0  0
   20.5490    7.6317   55.4287 C   0  0  0  0  0  0  0  0  0  0  0  0
   20.4658    8.8253   54.7482 C   0  0  0  0  0  0  0  0  0  0  0  0
   21.1432    6.0444   57.9428 H   0  0  0  0  0  0  0  0  0  0  0  0
   25.9030    8.3583   53.6447 C   0  0  0  0  0  0  0  0  0  0  0  0
   26.2727    8.0121   52.4683 O   0  0  0  0  0  0  0  0  0  0  0  0
   26.6721    8.8220   54.6767 N   0  0  0  0  0  0  0  0  0  0  0  0
   27.7678    8.8042   53.8728 H   0  0  0  0  0  0  0  0  0  0  0  0
   27.4348    9.2817   55.6993 C   0  0  0  0  0  0  0  0  0  0  0  0
   28.8744    9.4720   55.4145 C   0  0  0  0  0  0  0  0  0  0  0  0
   29.4854   10.6898   55.2949 O   0  0  0  0  0  0  0  0  0  0  0  0
   29.5282    8.3705   55.2789 O   0  0  0  0  0  0  0  0  0  0  0  0
   30.4764   10.7469   55.5185 H   0  0  0  0  0  0  0  0  0  0  0  0
   27.1667    8.7702   57.1042 C   0  0  0  0  0  0  0  0  0  0  0  0
   28.0176    9.2524   58.1688 C   0  0  0  0  0  0  0  0  0  0  0  0
   28.7985    8.3624   58.9464 C   0  0  0  0  0  0  0  0  0  0  0  0
   29.5053    9.0526   59.8363 N   0  0  0  0  0  0  0  0  0  0  0  0
   29.2341   10.3854   59.6953 C   0  0  0  0  0  0  0  0  0  0  0  0
   29.7149   11.4660   60.3940 C   0  0  0  0  0  0  0  0  0  0  0  0
   29.2607   12.7149   60.0515 C   0  0  0  0  0  0  0  0  0  0  0  0
   28.3504   12.8420   59.0346 C   0  0  0  0  0  0  0  0  0  0  0  0
   27.8673   11.7784   58.3367 C   0  0  0  0  0  0  0  0  0  0  0  0
   28.3177   10.4923   58.6664 C   0  0  0  0  0  0  0  0  0  0  0  0
   30.1786    8.6923   60.5535 H   0  0  0  0  0  0  0  0  0  0  0  0
   23.8607    7.4949   52.5607 C   0  0  0  0  0  0  0  0  0  0  0  0
   22.6028    6.7667   52.7781 C   0  0  0  0  0  0  0  0  0  0  0  0
   21.3915    7.0923   52.2190 C   0  0  0  0  0  0  0  0  0  0  0  0
   20.2412    6.3793   52.4494 C   0  0  0  0  0  0  0  0  0  0  0  0
   20.2667    5.2794   53.2756 C   0  0  0  0  0  0  0  0  0  0  0  0
   19.1071    4.5273   53.5333 O   0  0  0  0  0  0  0  0  0  0  0  0
   21.4648    4.9260   53.8518 C   0  0  0  0  0  0  0  0  0  0  0  0
   22.6117    5.6605   53.6045 C   0  0  0  0  0  0  0  0  0  0  0  0
   18.9197    3.7477   52.8937 H   0  0  0  0  0  0  0  0  0  0  0  0
  7  8  2  0  0  0
  8  9  1  0  0  0
  9  6  1  0  0  0
  6 12  1  0  0  0
 12 13  1  0  0  0
 13 14  2  0  0  0
 14 15  1  0  0  0
 15 16  2  0  0  0
 16 17  1  0  0  0
 16 18  1  0  0  0
 18 19  2  0  0  0
  6  2  1  0  0  0
  2  3  2  0  0  0
  2  4  1  0  0  0
  4  1  1  0  0  0
  1 41  1  0  0  0
 41 42  1  0  0  0
 42 43  2  0  0  0
 43 44  1  0  0  0
 44 45  2  0  0  0
 45 46  1  0  0  0
 45 47  1  0  0  0
 47 48  2  0  0  0
  1 21  1  0  0  0
 21 22  2  0  0  0
 21 23  1  0  0  0
 23 25  1  0  0  0
 25 30  1  0  0  0
 30 31  1  0  0  0
 31 32  2  0  0  0
 32 33  1  0  0  0
 33 34  1  0  0  0
 34 35  2  0  0  0
 35 36  1  0  0  0
 36 37  2  0  0  0
 37 38  1  0  0  0
 38 39  2  0  0  0
 25 26  1  0  0  0
 26 27  1  0  0  0
 26 28  2  0  0  0
  8 10  1  0  0  0
 19 13  1  0  0  0
 48 42  1  0  0  0
 39 31  1  0  0  0
 39 34  1  0  0  0
  9 11  1  0  0  0
 17 20  1  0  0  0
  4  5  1  0  0  0
 46 49  1  0  0  0
 23 24  1  0  0  0
 33 40  1  0  0  0
 27 29  1  0  0  0
M  END
> <minimizedAffinity>
22.49272

> <CNNscore>
0.5005125403

> <CNNaffinity>
6.5236997604

> <CNN_VS>
3.2651934624

> <CNNaffinity_variance>
1.4374101162

$$$$
[H]OC(=O)[C@@]([H])(N([H])C(=O)[C@@]([H])(N([H])C(=O)[C@@]([H])(N([H])C(=O)C([H])([H])[H])C([H])([H])c1c([H])c([H])c(O[H])c([H])c1[H])C([H])([H])c1c([H])c([H])c(O[H])c([H])c1[H])C([H])([H])c1c([H])n([H])c2c([H])c([H])c([H])c([H])c12


 49 52  0  0  0  0  0  0  0  0999 V2000
   24.4491    8.2073   54.3012 C   0  0  0  0  0  0  0  0  0  0  0  0
   22.5035    9.7239   54.0667 C   0  0  0  0  0  0  0  0  0  0  0  0
   22.5890    9.9431   55.2957 O   0  0  0  0  0  0  0  0  0  0  0  0
   23.4490    8.8154   53.4861 N   0  0  0  0  0  0  0  0  0  0  0  0
   23.3464    8.6413   52.4446 H   0  0  0  0  0  0  0  0  0  0  0  0
   21.4575   10.3942   53.2865 C   0  0  0  0  0  0  0  0  0  0  0  0
   21.1674   11.5644   50.6290 O   0  0  0  0  0  0  0  0  0  0  0  0
   21.6670   12.2471   51.5554 C   0  0  0  0  0  0  0  0  0  0  0  0
   21.8203   11.7162   52.8487 N   0  0  0  0  0  0  0  0  0  0  0  0
   22.0826   13.6286   51.2167 C   0  0  0  0  0  0  0  0  0  0  0  0
   22.2615   12.4050   53.5573 H   0  0  0  0  0  0  0  0  0  0  0  0
   21.1220    9.5031   52.1106 C   0  0  0  0  0  0  0  0  0  0  0  0
   20.7632    8.1198   52.4851 C   0  0  0  0  0  0  0  0  0  0  0  0
   19.6136    7.7734   53.1568 C   0  0  0  0  0  0  0  0  0  0  0  0
   19.3448    6.4525   53.4952 C   0  0  0  0  0  0  0  0  0  0  0  0
   20.2121    5.4337   53.1747 C   0  0  0  0  0  0  0  0  0  0  0  0
   19.9340    4.1204   53.5172 O   0  0  0  0  0  0  0  0  0  0  0  0
   21.3732    5.7787   52.4960 C   0  0  0  0  0  0  0  0  0  0  0  0
   21.6455    7.0851   52.1584 C   0  0  0  0  0  0  0  0  0  0  0  0
   19.4222    3.4959   52.9149 H   0  0  0  0  0  0  0  0  0  0  0  0
   25.8538    8.5758   53.8607 C   0  0  0  0  0  0  0  0  0  0  0  0
   25.9402    8.5475   52.5831 O   0  0  0  0  0  0  0  0  0  0  0  0
   26.8257    8.8833   54.7730 N   0  0  0  0  0  0  0  0  0  0  0  0
   27.6870    9.1741   53.7626 H   0  0  0  0  0  0  0  0  0  0  0  0
   27.7894    9.1882   55.6769 C   0  0  0  0  0  0  0  0  0  0  0  0
   29.1423    9.4475   55.1364 C   0  0  0  0  0  0  0  0  0  0  0  0
   29.6130   10.6837   54.7885 O   0  0  0  0  0  0  0  0  0  0  0  0
   29.8640    8.3882   55.0097 O   0  0  0  0  0  0  0  0  0  0  0  0
   30.6175   10.8389   54.8356 H   0  0  0  0  0  0  0  0  0  0  0  0
   27.8084    8.4549   57.0070 C   0  0  0  0  0  0  0  0  0  0  0  0
   28.3512    9.1521   58.1512 C   0  0  0  0  0  0  0  0  0  0  0  0
   29.0491    8.4599   59.1712 C   0  0  0  0  0  0  0  0  0  0  0  0
   29.4646    9.3250   60.0914 N   0  0  0  0  0  0  0  0  0  0  0  0
   29.0741   10.5865   59.7366 C   0  0  0  0  0  0  0  0  0  0  0  0
   29.2648   11.7862   60.3782 C   0  0  0  0  0  0  0  0  0  0  0  0
   28.7494   12.9199   59.8017 C   0  0  0  0  0  0  0  0  0  0  0  0
   28.0669   12.8192   58.6173 C   0  0  0  0  0  0  0  0  0  0  0  0
   27.8717   11.6361   57.9740 C   0  0  0  0  0  0  0  0  0  0  0  0
   28.3906   10.4640   58.5418 C   0  0  0  0  0  0  0  0  0  0  0  0
   30.0082    9.1337   60.9662 H   0  0  0  0  0  0  0  0  0  0  0  0
   24.2876    6.7011   54.2130 C   0  0  0  0  0  0  0  0  0  0  0  0
   23.4808    6.1129   55.2913 C   0  0  0  0  0  0  0  0  0  0  0  0
   23.7784    4.9515   55.9609 C   0  0  0  0  0  0  0  0  0  0  0  0
   22.9946    4.4409   56.9657 C   0  0  0  0  0  0  0  0  0  0  0  0
   21.8475    5.0989   57.3459 C   0  0  0  0  0  0  0  0  0  0  0  0
   21.0220    4.6035   58.3705 O   0  0  0  0  0  0  0  0  0  0  0  0
   21.5206    6.2658   56.6949 C   0  0  0  0  0  0  0  0  0  0  0  0
   22.3268    6.7611   55.6847 C   0  0  0  0  0  0  0  0  0  0  0  0
   21.2373    4.9221   59.3214 H   0  0  0  0  0  0  0  0  0  0  0  0
  7  8  2  0  0  0
  8  9  1  0  0  0
  9  6  1  0  0  0
  6 12  1  0  0  0
 12 13  1  0  0  0
 13 14  2  0  0  0
 14 15  1  0  0  0
 15 16  2  0  0  0
 16 17  1  0  0  0
 16 18  1  0  0  0
 18 19  2  0  0  0
  6  2  1  0  0  0
  2  3  2  0  0  0
  2  4  1  0  0  0
  4  1  1  0  0  0
  1 41  1  0  0  0
 41 42  1  0  0  0
 42 43  2  0  0  0
 43 44  1  0  0  0
 44 45  2  0  0  0
 45 46  1  0  0  0
 45 47  1  0  0  0
 47 48  2  0  0  0
  1 21  1  0  0  0
 21 22  2  0  0  0
 21 23  1  0  0  0
 23 25  1  0  0  0
 25 30  1  0  0  0
 30 31  1  0  0  0
 31 32  2  0  0  0
 32 33  1  0  0  0
 33 34  1  0  0  0
 34 35  2  0  0  0
 35 36  1  0  0  0
 36 37  2  0  0  0
 37 38  1  0  0  0
 38 39  2  0  0  0
 25 26  1  0  0  0
 26 27  1  0  0  0
 26 28  2  0  0  0
  8 10  1  0  0  0
 19 13  1  0  0  0
 48 42  1  0  0  0
 39 31  1  0  0  0
 39 34  1  0  0  0
  9 11  1  0  0  0
 17 20  1  0  0  0
  4  5  1  0  0  0
 46 49  1  0  0  0
 23 24  1  0  0  0
 33 40  1  0  0  0
 27 29  1  0  0  0
M  END
> <minimizedAffinity>
21.71004

> <CNNscore>
0.4983352423

> <CNNaffinity>
6.7614188194

> <CNN_VS>
3.3694531918

> <CNNaffinity_variance>
0.7967193723

$$$$
[H]OC(=O)[C@@]([H])(N([H])C(=O)[C@@]([H])(N([H])C(=O)[C@@]([H])(N([H])C(=O)C([H])([H])[H])C([H])([H])c1c([H])c([H])c(O[H])c([H])c1[H])C([H])([H])c1c([H])c([H])c(O[H])c([H])c1[H])C([H])([H])c1c([H])n([H])c2c([H])c([H])c([H])c([H])c12


 49 52  0  0  0  0  0  0  0  0999 V2000
   27.2991    9.3453   56.4083 C   0  0  0  0  0  0  0  0  0  0  0  0
   24.9061    8.9635   55.8899 C   0  0  0  0  0  0  0  0  0  0  0  0
   24.8797   10.1144   55.3997 O   0  0  0  0  0  0  0  0  0  0  0  0
   26.1476    8.5043   56.4418 N   0  0  0  0  0  0  0  0  0  0  0  0
   26.1376    7.5288   56.8589 H   0  0  0  0  0  0  0  0  0  0  0  0
   23.6868    8.1478   55.8791 C   0  0  0  0  0  0  0  0  0  0  0  0
   22.9781   10.5268   54.3449 O   0  0  0  0  0  0  0  0  0  0  0  0
   22.1666   10.0657   55.1832 C   0  0  0  0  0  0  0  0  0  0  0  0
   22.4740    8.9201   55.9388 N   0  0  0  0  0  0  0  0  0  0  0  0
   20.8801   10.7859   55.3326 C   0  0  0  0  0  0  0  0  0  0  0  0
   21.6915    8.6227   56.6247 H   0  0  0  0  0  0  0  0  0  0  0  0
   23.7241    7.2861   54.6359 C   0  0  0  0  0  0  0  0  0  0  0  0
   22.5335    7.4220   53.7719 C   0  0  0  0  0  0  0  0  0  0  0  0
   21.4002    6.6508   53.8889 C   0  0  0  0  0  0  0  0  0  0  0  0
   20.3205    6.8185   53.0302 C   0  0  0  0  0  0  0  0  0  0  0  0
   20.3341    7.7604   52.0275 C   0  0  0  0  0  0  0  0  0  0  0  0
   19.2520    7.9188   51.1770 O   0  0  0  0  0  0  0  0  0  0  0  0
   21.4755    8.5416   51.9062 C   0  0  0  0  0  0  0  0  0  0  0  0
   22.5485    8.3803   52.7533 C   0  0  0  0  0  0  0  0  0  0  0  0
   18.4907    8.5483   51.3737 H   0  0  0  0  0  0  0  0  0  0  0  0
   28.2171    9.0189   55.2448 C   0  0  0  0  0  0  0  0  0  0  0  0
   29.4191    8.8620   55.6581 O   0  0  0  0  0  0  0  0  0  0  0  0
   27.7369    8.9235   53.9674 N   0  0  0  0  0  0  0  0  0  0  0  0
   28.9676    8.5488   53.5290 H   0  0  0  0  0  0  0  0  0  0  0  0
   27.2614    8.8289   52.7010 C   0  0  0  0  0  0  0  0  0  0  0  0
   25.8976    8.2754   52.5482 C   0  0  0  0  0  0  0  0  0  0  0  0
   24.8727    8.9099   51.9018 O   0  0  0  0  0  0  0  0  0  0  0  0
   25.7419    7.1176   53.0906 O   0  0  0  0  0  0  0  0  0  0  0  0
   24.1465    8.3327   51.4838 H   0  0  0  0  0  0  0  0  0  0  0  0
   28.2065    8.4027   51.5908 C   0  0  0  0  0  0  0  0  0  0  0  0
   28.2371    9.2058   50.3891 C   0  0  0  0  0  0  0  0  0  0  0  0
   27.9713   10.5966   50.4270 C   0  0  0  0  0  0  0  0  0  0  0  0
   28.0855   11.1046   49.2036 N   0  0  0  0  0  0  0  0  0  0  0  0
   28.4196   10.1084   48.3286 C   0  0  0  0  0  0  0  0  0  0  0  0
   28.6309   10.1549   46.9720 C   0  0  0  0  0  0  0  0  0  0  0  0
   28.9467    8.9873   46.3236 C   0  0  0  0  0  0  0  0  0  0  0  0
   29.0388    7.8243   47.0433 C   0  0  0  0  0  0  0  0  0  0  0  0
   28.8308    7.7670   48.3868 C   0  0  0  0  0  0  0  0  0  0  0  0
   28.5091    8.9469   49.0722 C   0  0  0  0  0  0  0  0  0  0  0  0
   27.9554   12.0976   48.8964 H   0  0  0  0  0  0  0  0  0  0  0  0
   28.0658    9.1586   57.7043 C   0  0  0  0  0  0  0  0  0  0  0  0
   28.3198   10.4028   58.4440 C   0  0  0  0  0  0  0  0  0  0  0  0
   28.9445   10.4864   59.6641 C   0  0  0  0  0  0  0  0  0  0  0  0
   29.1628   11.6740   60.3172 C   0  0  0  0  0  0  0  0  0  0  0  0
   28.7485   12.8575   59.7509 C   0  0  0  0  0  0  0  0  0  0  0  0
   28.9558   14.0911   60.3928 O   0  0  0  0  0  0  0  0  0  0  0  0
   28.1193   12.8088   58.5285 C   0  0  0  0  0  0  0  0  0  0  0  0
   27.9104   11.5992   57.8891 C   0  0  0  0  0  0  0  0  0  0  0  0
   29.8366   14.5716   60.1801 H   0  0  0  0  0  0  0  0  0  0  0  0
  7  8  2  0  0  0
  8  9  1  0  0  0
  9  6  1  0  0  0
  6 12  1  0  0  0
 12 13  1  0  0  0
 13 14  2  0  0  0
 14 15  1  0  0  0
 15 16  2  0  0  0
 16 17  1  0  0  0
 16 18  1  0  0  0
 18 19  2  0  0  0
  6  2  1  0  0  0
  2  3  2  0  0  0
  2  4  1  0  0  0
  4  1  1  0  0  0
  1 41  1  0  0  0
 41 42  1  0  0  0
 42 43  2  0  0  0
 43 44  1  0  0  0
 44 45  2  0  0  0
 45 46  1  0  0  0
 45 47  1  0  0  0
 47 48  2  0  0  0
  1 21  1  0  0  0
 21 22  2  0  0  0
 21 23  1  0  0  0
 23 25  1  0  0  0
 25 30  1  0  0  0
 30 31  1  0  0  0
 31 32  2  0  0  0
 32 33  1  0  0  0
 33 34  1  0  0  0
 34 35  2  0  0  0
 35 36  1  0  0  0
 36 37  2  0  0  0
 37 38  1  0  0  0
 38 39  2  0  0  0
 25 26  1  0  0  0
 26 27  1  0  0  0
 26 28  2  0  0  0
  8 10  1  0  0  0
 19 13  1  0  0  0
 48 42  1  0  0  0
 39 31  1  0  0  0
 39 34  1  0  0  0
  9 11  1  0  0  0
 17 20  1  0  0  0
  4  5  1  0  0  0
 46 49  1  0  0  0
 23 24  1  0  0  0
 33 40  1  0  0  0
 27 29  1  0  0  0
M  END
> <minimizedAffinity>
28.44871

> <CNNscore>
0.4900139868

> <CNNaffinity>
6.4498872757

> <CNN_VS>
3.1605350971

> <CNNaffinity_variance>
0.7483150363

$$$$
[H]Oc1c([H])c([H])c(C(=O)/C([H])=C(\[H])c2c([H])c([H])c(O[H])c(O[H])c2[H])c([H])c1Br


 23 24  0  0  0  0  0  0  0  0999 V2000
   26.0647    9.0063   55.3307 C   0  0  0  0  0  0  0  0  0  0  0  0
   25.6636    7.7754   55.2291 C   0  0  0  0  0  0  0  0  0  0  0  0
   29.3381   10.9526   59.5614 O   0  0  0  0  0  0  0  0  0  0  0  0
   28.5288   10.4909   58.5149 C   0  0  0  0  0  0  0  0  0  0  0  0
   27.9019   11.3618   57.6624 C   0  0  0  0  0  0  0  0  0  0  0  0
   27.0983   10.8870   56.6237 C   0  0  0  0  0  0  0  0  0  0  0  0
   26.9011    9.5511   56.4101 C   0  0  0  0  0  0  0  0  0  0  0  0
   27.5428    8.6877   57.2816 C   0  0  0  0  0  0  0  0  0  0  0  0
   28.3404    9.1336   58.3134 C   0  0  0  0  0  0  0  0  0  0  0  0
   28.9710    8.2339   59.1716 O   0  0  0  0  0  0  0  0  0  0  0  0
   29.4378   11.9537   59.6586 H   0  0  0  0  0  0  0  0  0  0  0  0
   28.8500    7.2564   59.0460 H   0  0  0  0  0  0  0  0  0  0  0  0
   24.8750    7.0620   54.2974 C   0  0  0  0  0  0  0  0  0  0  0  0
   25.4323    5.8925   53.9849 O   0  0  0  0  0  0  0  0  0  0  0  0
   23.6348    7.3010   53.6215 C   0  0  0  0  0  0  0  0  0  0  0  0
   22.7913    6.3483   53.1558 C   0  0  0  0  0  0  0  0  0  0  0  0
   21.5810    6.6264   52.4966 C   0  0  0  0  0  0  0  0  0  0  0  0
   21.2266    7.9421   52.3103 C   0  0  0  0  0  0  0  0  0  0  0  0
   20.0360    8.2334   51.6618 O   0  0  0  0  0  0  0  0  0  0  0  0
   22.0474    8.9392   52.7638 C   0  0  0  0  0  0  0  0  0  0  0  0
   21.5681   10.7851   52.5123 Br  0  0  0  0  0  0  0  0  0  0  0  0
   23.2153    8.6358   53.3999 C   0  0  0  0  0  0  0  0  0  0  0  0
   19.4201    7.5317   51.3218 H   0  0  0  0  0  0  0  0  0  0  0  0
  3  4  1  0  0  0
  4  5  2  0  0  0
  5  6  1  0  0  0
  6  7  2  0  0  0
  7  1  1  0  0  0
  1  2  2  0  0  0
  2 13  1  0  0  0
 13 14  2  0  0  0
 13 15  1  0  0  0
 15 16  2  0  0  0
 16 17  1  0  0  0
 17 18  2  0  0  0
 18 19  1  0  0  0
 18 20  1  0  0  0
 20 21  1  0  0  0
 20 22  2  0  0  0
  7  8  1  0  0  0
  8  9  2  0  0  0
  9 10  1  0  0  0
  9  4  1  0  0  0
 22 15  1  0  0  0
  3 11  1  0  0  0
 19 23  1  0  0  0
 10 12  1  0  0  0
M  END
> <minimizedAffinity>
7.14244

> <CNNscore>
0.7128909230

> <CNNaffinity>
5.5098571777

> <CNN_VS>
3.9279272556

> <CNNaffinity_variance>
0.3186849952

$$$$
[H]Oc1c([H])c([H])c(C(=O)/C([H])=C(\[H])c2c([H])c([H])c(O[H])c(O[H])c2[H])c([H])c1Br


 23 24  0  0  0  0  0  0  0  0999 V2000
   24.6090    8.8384   54.4702 C   0  0  0  0  0  0  0  0  0  0  0  0
   25.7556    8.2500   54.3107 C   0  0  0  0  0  0  0  0  0  0  0  0
   19.8620    7.6098   51.5791 O   0  0  0  0  0  0  0  0  0  0  0  0
   21.0316    7.9283   52.2818 C   0  0  0  0  0  0  0  0  0  0  0  0
   21.6908    9.1108   52.0680 C   0  0  0  0  0  0  0  0  0  0  0  0
   22.8554    9.4147   52.7759 C   0  0  0  0  0  0  0  0  0  0  0  0
   23.3865    8.5606   53.7022 C   0  0  0  0  0  0  0  0  0  0  0  0
   22.7063    7.3719   53.9037 C   0  0  0  0  0  0  0  0  0  0  0  0
   21.5553    7.0509   53.2168 C   0  0  0  0  0  0  0  0  0  0  0  0
   20.8971    5.8436   53.4464 O   0  0  0  0  0  0  0  0  0  0  0  0
   19.5279    8.2895   50.9097 H   0  0  0  0  0  0  0  0  0  0  0  0
   21.2546    5.1994   54.1120 H   0  0  0  0  0  0  0  0  0  0  0  0
   27.0235    8.3631   54.9258 C   0  0  0  0  0  0  0  0  0  0  0  0
   27.9674    7.7564   54.2070 O   0  0  0  0  0  0  0  0  0  0  0  0
   27.5214    8.9695   56.1244 C   0  0  0  0  0  0  0  0  0  0  0  0
   28.1087    8.3164   57.1562 C   0  0  0  0  0  0  0  0  0  0  0  0
   28.5846    8.9510   58.3171 C   0  0  0  0  0  0  0  0  0  0  0  0
   28.4487   10.3159   58.4172 C   0  0  0  0  0  0  0  0  0  0  0  0
   28.9129   10.9570   59.5557 O   0  0  0  0  0  0  0  0  0  0  0  0
   27.8617   11.0182   57.3995 C   0  0  0  0  0  0  0  0  0  0  0  0
   27.6632   12.9277   57.5219 Br  0  0  0  0  0  0  0  0  0  0  0  0
   27.4103   10.3724   56.2861 C   0  0  0  0  0  0  0  0  0  0  0  0
   29.3431   10.4744   60.3104 H   0  0  0  0  0  0  0  0  0  0  0  0
  3  4  1  0  0  0
  4  5  2  0  0  0
  5  6  1  0  0  0
  6  7  2  0  0  0
  7  1  1  0  0  0
  1  2  2  0  0  0
  2 13  1  0  0  0
 13 14  2  0  0  0
 13 15  1  0  0  0
 15 16  2  0  0  0
 16 17  1  0  0  0
 17 18  2  0  0  0
 18 19  1  0  0  0
 18 20  1  0  0  0
 20 21  1  0  0  0
 20 22  2  0  0  0
  7  8  1  0  0  0
  8  9  2  0  0  0
  9 10  1  0  0  0
  9  4  1  0  0  0
 22 15  1  0  0  0
  3 11  1  0  0  0
 19 23  1  0  0  0
 10 12  1  0  0  0
M  END
> <minimizedAffinity>
7.03989

> <CNNscore>
0.6566163898

> <CNNaffinity>
5.5076107979

> <CNN_VS>
3.6163876057

> <CNNaffinity_variance>
0.3054700494

$$$$
[H]Oc1c([H])c([H])c(C(=O)/C([H])=C(\[H])c2c([H])c([H])c(O[H])c(O[H])c2[H])c([H])c1Br


 23 24  0  0  0  0  0  0  0  0999 V2000
   24.6749    8.1136   54.7038 C   0  0  0  0  0  0  0  0  0  0  0  0
   25.8519    8.4637   54.2817 C   0  0  0  0  0  0  0  0  0  0  0  0
   19.9782    7.4221   51.5630 O   0  0  0  0  0  0  0  0  0  0  0  0
   21.1374    7.6084   52.3276 C   0  0  0  0  0  0  0  0  0  0  0  0
   21.9184    8.7244   52.1761 C   0  0  0  0  0  0  0  0  0  0  0  0
   23.0710    8.8965   52.9453 C   0  0  0  0  0  0  0  0  0  0  0  0
   23.4702    7.9744   53.8725 C   0  0  0  0  0  0  0  0  0  0  0  0
   22.6683    6.8544   54.0106 C   0  0  0  0  0  0  0  0  0  0  0  0
   21.5266    6.6635   53.2626 C   0  0  0  0  0  0  0  0  0  0  0  0
   20.7434    5.5223   53.4293 O   0  0  0  0  0  0  0  0  0  0  0  0
   19.7451    8.1457   50.8968 H   0  0  0  0  0  0  0  0  0  0  0  0
   21.0033    4.8317   54.0937 H   0  0  0  0  0  0  0  0  0  0  0  0
   27.1111    8.6534   54.8960 C   0  0  0  0  0  0  0  0  0  0  0  0
   28.0856    8.0765   54.1936 O   0  0  0  0  0  0  0  0  0  0  0  0
   27.5753    9.3119   56.0805 C   0  0  0  0  0  0  0  0  0  0  0  0
   27.5332   10.6463   56.3118 C   0  0  0  0  0  0  0  0  0  0  0  0
   28.0006   11.2532   57.4908 C   0  0  0  0  0  0  0  0  0  0  0  0
   28.5334   10.4497   58.4715 C   0  0  0  0  0  0  0  0  0  0  0  0
   28.9989   11.0326   59.6405 O   0  0  0  0  0  0  0  0  0  0  0  0
   28.5968    9.0954   58.2825 C   0  0  0  0  0  0  0  0  0  0  0  0
   29.3386    7.9558   59.6431 Br  0  0  0  0  0  0  0  0  0  0  0  0
   28.1345    8.5377   57.1268 C   0  0  0  0  0  0  0  0  0  0  0  0
   28.9662   12.0118   59.8064 H   0  0  0  0  0  0  0  0  0  0  0  0
  3  4  1  0  0  0
  4  5  2  0  0  0
  5  6  1  0  0  0
  6  7  2  0  0  0
  7  1  1  0  0  0
  1  2  2  0  0  0
  2 13  1  0  0  0
 13 14  2  0  0  0
 13 15  1  0  0  0
 15 16  2  0  0  0
 16 17  1  0  0  0
 17 18  2  0  0  0
 18 19  1  0  0  0
 18 20  1  0  0  0
 20 21  1  0  0  0
 20 22  2  0  0  0
  7  8  1  0  0  0
  8  9  2  0  0  0
  9 10  1  0  0  0
  9  4  1  0  0  0
 22 15  1  0  0  0
  3 11  1  0  0  0
 19 23  1  0  0  0
 10 12  1  0  0  0
M  END
> <minimizedAffinity>
3.12971

> <CNNscore>
0.6171046495

> <CNNaffinity>
5.5120434761

> <CNN_VS>
3.4015076160

> <CNNaffinity_variance>
0.1766248345

$$$$
[H]Oc1c([H])c([H])c(C(=O)/C([H])=C(\[H])c2c([H])c([H])c(O[H])c(O[H])c2[H])c([H])c1Br


 23 24  0  0  0  0  0  0  0  0999 V2000
   25.0786    8.0422   53.6504 C   0  0  0  0  0  0  0  0  0  0  0  0
   25.6710    8.2113   54.7936 C   0  0  0  0  0  0  0  0  0  0  0  0
   19.6273    6.6395   52.8030 O   0  0  0  0  0  0  0  0  0  0  0  0
   20.9709    6.9705   53.0233 C   0  0  0  0  0  0  0  0  0  0  0  0
   21.7567    6.2318   53.8689 C   0  0  0  0  0  0  0  0  0  0  0  0
   23.0942    6.5737   54.0786 C   0  0  0  0  0  0  0  0  0  0  0  0
   23.6758    7.6454   53.4600 C   0  0  0  0  0  0  0  0  0  0  0  0
   22.8659    8.3787   52.6099 C   0  0  0  0  0  0  0  0  0  0  0  0
   21.5435    8.0599   52.3878 C   0  0  0  0  0  0  0  0  0  0  0  0
   20.7581    8.8221   51.5242 O   0  0  0  0  0  0  0  0  0  0  0  0
   19.2654    5.8339   53.2948 H   0  0  0  0  0  0  0  0  0  0  0  0
   21.1476    9.6074   51.0579 H   0  0  0  0  0  0  0  0  0  0  0  0
   26.9767    8.5809   55.1900 C   0  0  0  0  0  0  0  0  0  0  0  0
   27.8743    8.2678   54.2562 O   0  0  0  0  0  0  0  0  0  0  0  0
   27.5500    9.2045   56.3453 C   0  0  0  0  0  0  0  0  0  0  0  0
   28.1416    8.5604   57.3802 C   0  0  0  0  0  0  0  0  0  0  0  0
   28.6929    9.2119   58.4975 C   0  0  0  0  0  0  0  0  0  0  0  0
   28.6311   10.5848   58.5488 C   0  0  0  0  0  0  0  0  0  0  0  0
   29.1703   11.2426   59.6440 O   0  0  0  0  0  0  0  0  0  0  0  0
   28.0428   11.2787   57.5261 C   0  0  0  0  0  0  0  0  0  0  0  0
   27.9472   13.1991   57.5804 Br  0  0  0  0  0  0  0  0  0  0  0  0
   27.5172   10.6164   56.4557 C   0  0  0  0  0  0  0  0  0  0  0  0
   29.6034   10.7666   60.4011 H   0  0  0  0  0  0  0  0  0  0  0  0
  3  4  1  0  0  0
  4  5  2  0  0  0
  5  6  1  0  0  0
  6  7  2  0  0  0
  7  1  1  0  0  0
  1  2  2  0  0  0
  2 13  1  0  0  0
 13 14  2  0  0  0
 13 15  1  0  0  0
 15 16  2  0  0  0
 16 17  1  0  0  0
 17 18  2  0  0  0
 18 19  1  0  0  0
 18 20  1  0  0  0
 20 21  1  0  0  0
 20 22  2  0  0  0
  7  8  1  0  0  0
  8  9  2  0  0  0
  9 10  1  0  0  0
  9  4  1  0  0  0
 22 15  1  0  0  0
  3 11  1  0  0  0
 19 23  1  0  0  0
 10 12  1  0  0  0
M  END
> <minimizedAffinity>
5.09716

> <CNNscore>
0.5988916159

> <CNNaffinity>
5.4337372780

> <CNN_VS>
3.2542197704

> <CNNaffinity_variance>
0.2145701349

$$$$
[H]Oc1c([H])c([H])c(C(=O)/C([H])=C(\[H])c2c([H])c([H])c(O[H])c(O[H])c2[H])c([H])c1Br


 23 24  0  0  0  0  0  0  0  0999 V2000
   26.8576    8.8224   55.1663 C   0  0  0  0  0  0  0  0  0  0  0  0
   25.7867    8.0878   55.1706 C   0  0  0  0  0  0  0  0  0  0  0  0
   29.1219   11.5123   59.6428 O   0  0  0  0  0  0  0  0  0  0  0  0
   28.5699   10.8340   58.5481 C   0  0  0  0  0  0  0  0  0  0  0  0
   28.6310    9.4682   58.4524 C   0  0  0  0  0  0  0  0  0  0  0  0
   28.0764    8.8058   57.3553 C   0  0  0  0  0  0  0  0  0  0  0  0
   27.4550    9.4773   56.3392 C   0  0  0  0  0  0  0  0  0  0  0  0
   27.4035   10.8559   56.4543 C   0  0  0  0  0  0  0  0  0  0  0  0
   27.9440   11.5307   57.5277 C   0  0  0  0  0  0  0  0  0  0  0  0
   27.8730   12.9206   57.6094 O   0  0  0  0  0  0  0  0  0  0  0  0
   29.5658   10.9502   60.3561 H   0  0  0  0  0  0  0  0  0  0  0  0
   27.4290   13.4406   56.8894 H   0  0  0  0  0  0  0  0  0  0  0  0
   25.0618    7.3838   54.1819 C   0  0  0  0  0  0  0  0  0  0  0  0
   25.8631    6.6076   53.4531 O   0  0  0  0  0  0  0  0  0  0  0  0
   23.6864    7.3125   53.7877 C   0  0  0  0  0  0  0  0  0  0  0  0
   22.8563    6.2627   53.9993 C   0  0  0  0  0  0  0  0  0  0  0  0
   21.5099    6.2334   53.5953 C   0  0  0  0  0  0  0  0  0  0  0  0
   20.9992    7.3330   52.9461 C   0  0  0  0  0  0  0  0  0  0  0  0
   19.6731    7.3201   52.5411 O   0  0  0  0  0  0  0  0  0  0  0  0
   21.8003    8.4175   52.7102 C   0  0  0  0  0  0  0  0  0  0  0  0
   21.1034    9.9644   51.8037 Br  0  0  0  0  0  0  0  0  0  0  0  0
   23.1028    8.4143   53.1151 C   0  0  0  0  0  0  0  0  0  0  0  0
   19.0674    6.5481   52.6982 H   0  0  0  0  0  0  0  0  0  0  0  0
  3  4  1  0  0  0
  4  5  2  0  0  0
  5  6  1  0  0  0
  6  7  2  0  0  0
  7  1  1  0  0  0
  1  2  2  0  0  0
  2 13  1  0  0  0
 13 14  2  0  0  0
 13 15  1  0  0  0
 15 16  2  0  0  0
 16 17  1  0  0  0
 17 18  2  0  0  0
 18 19  1  0  0  0
 18 20  1  0  0  0
 20 21  1  0  0  0
 20 22  2  0  0  0
  7  8  1  0  0  0
  8  9  2  0  0  0
  9 10  1  0  0  0
  9  4  1  0  0  0
 22 15  1  0  0  0
  3 11  1  0  0  0
 19 23  1  0  0  0
 10 12  1  0  0  0
M  END
> <minimizedAffinity>
4.93375

> <CNNscore>
0.5842763782

> <CNNaffinity>
5.3917145729

> <CNN_VS>
3.1502513885

> <CNNaffinity_variance>
0.7587519884

$$$$
[H]Oc1c([H])c([H])c(C(=O)/C([H])=C(\[H])c2c([H])c([H])c(O[H])c(O[H])c2[H])c([H])c1Br


 23 24  0  0  0  0  0  0  0  0999 V2000
   21.4254    7.1671   53.3652 C   0  0  0  0  0  0  0  0  0  0  0  0
   22.0686    7.7072   54.3556 C   0  0  0  0  0  0  0  0  0  0  0  0
   17.0736    3.5274   53.8313 O   0  0  0  0  0  0  0  0  0  0  0  0
   18.1564    4.4091   53.7148 C   0  0  0  0  0  0  0  0  0  0  0  0
   19.4349    3.9472   53.5402 C   0  0  0  0  0  0  0  0  0  0  0  0
   20.5042    4.8378   53.4255 C   0  0  0  0  0  0  0  0  0  0  0  0
   20.3304    6.1928   53.4810 C   0  0  0  0  0  0  0  0  0  0  0  0
   19.0320    6.6395   53.6578 C   0  0  0  0  0  0  0  0  0  0  0  0
   17.9615    5.7791   53.7733 C   0  0  0  0  0  0  0  0  0  0  0  0
   16.6672    6.2658   53.9505 O   0  0  0  0  0  0  0  0  0  0  0  0
   17.2778    2.5388   53.7810 H   0  0  0  0  0  0  0  0  0  0  0  0
   16.5040    7.2441   53.9954 H   0  0  0  0  0  0  0  0  0  0  0  0
   23.1251    8.6405   54.4621 C   0  0  0  0  0  0  0  0  0  0  0  0
   22.6636    9.8775   54.6431 O   0  0  0  0  0  0  0  0  0  0  0  0
   24.5551    8.5661   54.4211 C   0  0  0  0  0  0  0  0  0  0  0  0
   25.2958    8.1531   53.3642 C   0  0  0  0  0  0  0  0  0  0  0  0
   26.7005    8.0951   53.3656 C   0  0  0  0  0  0  0  0  0  0  0  0
   27.3685    8.4791   54.5048 C   0  0  0  0  0  0  0  0  0  0  0  0
   28.7541    8.4278   54.5225 O   0  0  0  0  0  0  0  0  0  0  0  0
   26.6624    8.9038   55.5978 C   0  0  0  0  0  0  0  0  0  0  0  0
   27.5795    9.4448   57.1998 Br  0  0  0  0  0  0  0  0  0  0  0  0
   25.2995    8.9484   55.5641 C   0  0  0  0  0  0  0  0  0  0  0  0
   29.2937    8.1243   53.7453 H   0  0  0  0  0  0  0  0  0  0  0  0
  3  4  1  0  0  0
  4  5  2  0  0  0
  5  6  1  0  0  0
  6  7  2  0  0  0
  7  1  1  0  0  0
  1  2  2  0  0  0
  2 13  1  0  0  0
 13 14  2  0  0  0
 13 15  1  0  0  0
 15 16  2  0  0  0
 16 17  1  0  0  0
 17 18  2  0  0  0
 18 19  1  0  0  0
 18 20  1  0  0  0
 20 21  1  0  0  0
 20 22  2  0  0  0
  7  8  1  0  0  0
  8  9  2  0  0  0
  9 10  1  0  0  0
  9  4  1  0  0  0
 22 15  1  0  0  0
  3 11  1  0  0  0
 19 23  1  0  0  0
 10 12  1  0  0  0
M  END
> <minimizedAffinity>
13.97639

> <CNNscore>
0.5481429696

> <CNNaffinity>
5.5214128494

> <CNN_VS>
3.0265235901

> <CNNaffinity_variance>
0.6002246737

$$$$
[H]Oc1c([H])c([H])c(C(=O)/C([H])=C(\[H])c2c([H])c([H])c(O[H])c(O[H])c2[H])c([H])c1Br


 23 24  0  0  0  0  0  0  0  0999 V2000
   23.3767    9.3209   54.2004 C   0  0  0  0  0  0  0  0  0  0  0  0
   24.4854    8.6578   54.0683 C   0  0  0  0  0  0  0  0  0  0  0  0
   19.9354   11.0428   50.0058 O   0  0  0  0  0  0  0  0  0  0  0  0
   20.7791   10.6013   51.0337 C   0  0  0  0  0  0  0  0  0  0  0  0
   20.9883    9.2657   51.2588 C   0  0  0  0  0  0  0  0  0  0  0  0
   21.8320    8.8406   52.2870 C   0  0  0  0  0  0  0  0  0  0  0  0
   22.4802    9.7225   53.1065 C   0  0  0  0  0  0  0  0  0  0  0  0
   22.2560   11.0667   52.8632 C   0  0  0  0  0  0  0  0  0  0  0  0
   21.4278   11.5092   51.8543 C   0  0  0  0  0  0  0  0  0  0  0  0
   21.2259   12.8717   51.6390 O   0  0  0  0  0  0  0  0  0  0  0  0
   19.4897   10.3336   49.4400 H   0  0  0  0  0  0  0  0  0  0  0  0
   21.6806   13.5405   52.2150 H   0  0  0  0  0  0  0  0  0  0  0  0
   25.4705    8.1822   54.9640 C   0  0  0  0  0  0  0  0  0  0  0  0
   25.4374    6.8536   55.0610 O   0  0  0  0  0  0  0  0  0  0  0  0
   26.4806    8.7882   55.7793 C   0  0  0  0  0  0  0  0  0  0  0  0
   27.5883    8.1703   56.2560 C   0  0  0  0  0  0  0  0  0  0  0  0
   28.5570    8.8031   57.0546 C   0  0  0  0  0  0  0  0  0  0  0  0
   28.3750   10.1282   57.3746 C   0  0  0  0  0  0  0  0  0  0  0  0
   29.3214   10.7670   58.1615 O   0  0  0  0  0  0  0  0  0  0  0  0
   27.2708   10.7941   56.9155 C   0  0  0  0  0  0  0  0  0  0  0  0
   26.9995   12.6477   57.3527 Br  0  0  0  0  0  0  0  0  0  0  0  0
   26.3491   10.1512   56.1423 C   0  0  0  0  0  0  0  0  0  0  0  0
   30.1325   10.3104   58.5091 H   0  0  0  0  0  0  0  0  0  0  0  0
  3  4  1  0  0  0
  4  5  2  0  0  0
  5  6  1  0  0  0
  6  7  2  0  0  0
  7  1  1  0  0  0
  1  2  2  0  0  0
  2 13  1  0  0  0
 13 14  2  0  0  0
 13 15  1  0  0  0
 15 16  2  0  0  0
 16 17  1  0  0  0
 17 18  2  0  0  0
 18 19  1  0  0  0
 18 20  1  0  0  0
 20 21  1  0  0  0
 20 22  2  0  0  0
  7  8  1  0  0  0
  8  9  2  0  0  0
  9 10  1  0  0  0
  9  4  1  0  0  0
 22 15  1  0  0  0
  3 11  1  0  0  0
 19 23  1  0  0  0
 10 12  1  0  0  0
M  END
> <minimizedAffinity>
25.56552

> <CNNscore>
0.5283060670

> <CNNaffinity>
5.0307297707

> <CNN_VS>
2.6577651501

> <CNNaffinity_variance>
0.3143180609

$$$$
[H]Oc1c([H])c([H])c(C(=O)/C([H])=C(\[H])c2c([H])c([H])c(O[H])c(O[H])c2[H])c([H])c1Br


 23 24  0  0  0  0  0  0  0  0999 V2000
   24.6788    7.2331   54.1163 C   0  0  0  0  0  0  0  0  0  0  0  0
   25.5119    8.2234   54.0086 C   0  0  0  0  0  0  0  0  0  0  0  0
   19.2551    7.0641   52.3967 O   0  0  0  0  0  0  0  0  0  0  0  0
   20.5921    7.1222   52.8119 C   0  0  0  0  0  0  0  0  0  0  0  0
   21.3850    8.1987   52.5105 C   0  0  0  0  0  0  0  0  0  0  0  0
   22.7158    8.2427   52.9311 C   0  0  0  0  0  0  0  0  0  0  0  0
   23.2835    7.2297   53.6529 C   0  0  0  0  0  0  0  0  0  0  0  0
   22.4666    6.1516   53.9472 C   0  0  0  0  0  0  0  0  0  0  0  0
   21.1507    6.0866   53.5426 C   0  0  0  0  0  0  0  0  0  0  0  0
   20.3579    4.9840   53.8578 O   0  0  0  0  0  0  0  0  0  0  0  0
   18.9035    7.8495   51.8665 H   0  0  0  0  0  0  0  0  0  0  0  0
   20.7374    4.2300   54.3807 H   0  0  0  0  0  0  0  0  0  0  0  0
   26.8609    8.4304   54.3775 C   0  0  0  0  0  0  0  0  0  0  0  0
   27.6938    7.8269   53.5303 O   0  0  0  0  0  0  0  0  0  0  0  0
   27.5300    9.1280   55.4348 C   0  0  0  0  0  0  0  0  0  0  0  0
   28.4212   10.1364   55.2773 C   0  0  0  0  0  0  0  0  0  0  0  0
   29.0566   10.7956   56.3443 C   0  0  0  0  0  0  0  0  0  0  0  0
   28.7599   10.3975   57.6269 C   0  0  0  0  0  0  0  0  0  0  0  0
   29.3780   11.0375   58.6905 O   0  0  0  0  0  0  0  0  0  0  0  0
   27.8653    9.3828   57.8352 C   0  0  0  0  0  0  0  0  0  0  0  0
   27.4379    8.8126   59.6220 Br  0  0  0  0  0  0  0  0  0  0  0  0
   27.2658    8.7634   56.7780 C   0  0  0  0  0  0  0  0  0  0  0  0
   30.0311   11.7768   58.5708 H   0  0  0  0  0  0  0  0  0  0  0  0
  3  4  1  0  0  0
  4  5  2  0  0  0
  5  6  1  0  0  0
  6  7  2  0  0  0
  7  1  1  0  0  0
  1  2  2  0  0  0
  2 13  1  0  0  0
 13 14  2  0  0  0
 13 15  1  0  0  0
 15 16  2  0  0  0
 16 17  1  0  0  0
 17 18  2  0  0  0
 18 19  1  0  0  0
 18 20  1  0  0  0
 20 21  1  0  0  0
 20 22  2  0  0  0
  7  8  1  0  0  0
  8  9  2  0  0  0
  9 10  1  0  0  0
  9  4  1  0  0  0
 22 15  1  0  0  0
  3 11  1  0  0  0
 19 23  1  0  0  0
 10 12  1  0  0  0
M  END
> <minimizedAffinity>
10.17898

> <CNNscore>
0.5099132061

> <CNNaffinity>
5.4224863052

> <CNN_VS>
2.7649974823

> <CNNaffinity_variance>
0.2919858098

$$$$
[H]Oc1c([H])c([H])c(C(=O)/C([H])=C(\[H])c2c([H])c([H])c(O[H])c(O[H])c2[H])c([H])c1Br


 23 24  0  0  0  0  0  0  0  0999 V2000
   19.2551    5.5148   53.9380 C   0  0  0  0  0  0  0  0  0  0  0  0
   20.4375    5.5555   53.4026 C   0  0  0  0  0  0  0  0  0  0  0  0
   15.5055    1.3227   53.0613 O   0  0  0  0  0  0  0  0  0  0  0  0
   16.4159    2.3636   53.2872 C   0  0  0  0  0  0  0  0  0  0  0  0
   16.0752    3.4563   54.0411 C   0  0  0  0  0  0  0  0  0  0  0  0
   16.9931    4.4860   54.2577 C   0  0  0  0  0  0  0  0  0  0  0  0
   18.2567    4.4547   53.7363 C   0  0  0  0  0  0  0  0  0  0  0  0
   18.5816    3.3430   52.9781 C   0  0  0  0  0  0  0  0  0  0  0  0
   17.6921    2.3149   52.7511 C   0  0  0  0  0  0  0  0  0  0  0  0
   18.0550    1.2104   51.9817 O   0  0  0  0  0  0  0  0  0  0  0  0
   14.5893    1.4143   53.4782 H   0  0  0  0  0  0  0  0  0  0  0  0
   18.9646    1.1543   51.5875 H   0  0  0  0  0  0  0  0  0  0  0  0
   21.5238    6.4584   53.4622 C   0  0  0  0  0  0  0  0  0  0  0  0
   22.6690    5.8624   53.1320 O   0  0  0  0  0  0  0  0  0  0  0  0
   21.6766    7.8445   53.7904 C   0  0  0  0  0  0  0  0  0  0  0  0
   21.9656    8.3394   55.0183 C   0  0  0  0  0  0  0  0  0  0  0  0
   22.1074    9.7100   55.2981 C   0  0  0  0  0  0  0  0  0  0  0  0
   21.9441   10.6067   54.2682 C   0  0  0  0  0  0  0  0  0  0  0  0
   22.0806   11.9620   54.5276 O   0  0  0  0  0  0  0  0  0  0  0  0
   21.6514   10.1532   53.0103 C   0  0  0  0  0  0  0  0  0  0  0  0
   21.4196   11.3925   51.5576 Br  0  0  0  0  0  0  0  0  0  0  0  0
   21.5204    8.8166   52.7719 C   0  0  0  0  0  0  0  0  0  0  0  0
   22.2926   12.3211   55.4295 H   0  0  0  0  0  0  0  0  0  0  0  0
  3  4  1  0  0  0
  4  5  2  0  0  0
  5  6  1  0  0  0
  6  7  2  0  0  0
  7  1  1  0  0  0
  1  2  2  0  0  0
  2 13  1  0  0  0
 13 14  2  0  0  0
 13 15  1  0  0  0
 15 16  2  0  0  0
 16 17  1  0  0  0
 17 18  2  0  0  0
 18 19  1  0  0  0
 18 20  1  0  0  0
 20 21  1  0  0  0
 20 22  2  0  0  0
  7  8  1  0  0  0
  8  9  2  0  0  0
  9 10  1  0  0  0
  9  4  1  0  0  0
 22 15  1  0  0  0
  3 11  1  0  0  0
 19 23  1  0  0  0
 10 12  1  0  0  0
M  END
> <minimizedAffinity>
23.59098

> <CNNscore>
0.5058377981

> <CNNaffinity>
5.2913570404

> <CNN_VS>
2.6765685081

> <CNNaffinity_variance>
0.2057267725

$$$$
[H]c1c([H])c(C([H])([H])C([H])([H])[C@]2([H])C([H])([H])C([H])([H])C([H])([H])C([H])([H])[C@@]2([H])n2c([H])nc3c(N([H])[H])nc(SC([H])([H])[H])nc32)c([H])c([H])c1Cl


 29 32  0  0  0  0  0  0  0  0999 V2000
   22.9419    8.0290   53.3918 C   0  0  0  0  0  0  0  0  0  0  0  0
   23.6628    6.7717   53.1102 C   0  0  0  0  0  0  0  0  0  0  0  0
   22.8293    5.6147   53.6495 C   0  0  0  0  0  0  0  0  0  0  0  0
   23.0995    5.6582   55.1318 C   0  0  0  0  0  0  0  0  0  0  0  0
   22.7062    6.9765   55.6781 C   0  0  0  0  0  0  0  0  0  0  0  0
   22.4370    8.1309   54.8317 C   0  0  0  0  0  0  0  0  0  0  0  0
   21.3702   11.7540   51.3410 C   0  0  0  0  0  0  0  0  0  0  0  0
   20.3128   11.5420   50.5260 N   0  0  0  0  0  0  0  0  0  0  0  0
   19.8003   10.3120   50.3660 C   0  0  0  0  0  0  0  0  0  0  0  0
   18.7075   10.0337   49.5363 N   0  0  0  0  0  0  0  0  0  0  0  0
   20.3723    9.2442   51.0534 C   0  0  0  0  0  0  0  0  0  0  0  0
   20.1367    7.9347   51.1346 N   0  0  0  0  0  0  0  0  0  0  0  0
   21.0281    7.3760   51.9752 C   0  0  0  0  0  0  0  0  0  0  0  0
   21.8699    8.3278   52.4609 N   0  0  0  0  0  0  0  0  0  0  0  0
   21.4681    9.4577   51.8993 C   0  0  0  0  0  0  0  0  0  0  0  0
   21.8795   10.7105   51.9723 N   0  0  0  0  0  0  0  0  0  0  0  0
   18.7917    9.4280   48.7002 H   0  0  0  0  0  0  0  0  0  0  0  0
   17.7787   10.4460   49.7617 H   0  0  0  0  0  0  0  0  0  0  0  0
   20.6155   14.5754   51.4355 C   0  0  0  0  0  0  0  0  0  0  0  0
   22.0050   13.4217   51.5087 S   0  0  0  0  0  0  0  0  0  0  0  0
   22.9346    9.4117   55.4145 C   0  0  0  0  0  0  0  0  0  0  0  0
   24.1542    9.5309   56.1861 C   0  0  0  0  0  0  0  0  0  0  0  0
   25.4774    9.2413   55.7342 C   0  0  0  0  0  0  0  0  0  0  0  0
   26.6364    9.5011   56.4929 C   0  0  0  0  0  0  0  0  0  0  0  0
   27.8847    9.1563   56.0811 C   0  0  0  0  0  0  0  0  0  0  0  0
   28.0588    8.5287   54.8828 C   0  0  0  0  0  0  0  0  0  0  0  0
   29.6325    8.0549   54.2847 Cl  0  0  0  0  0  0  0  0  0  0  0  0
   26.9604    8.2491   54.0983 C   0  0  0  0  0  0  0  0  0  0  0  0
   25.7244    8.6068   54.5385 C   0  0  0  0  0  0  0  0  0  0  0  0
 19 20  1  0  0  0
 20  7  1  0  0  0
  7  8  2  0  0  0
  8  9  1  0  0  0
  9 10  1  0  0  0
  9 11  2  0  0  0
 11 12  1  0  0  0
 12 13  2  0  0  0
 13 14  1  0  0  0
 14  1  1  0  0  0
  1  2  1  0  0  0
  2  3  1  0  0  0
  3  4  1  0  0  0
  4  5  1  0  0  0
  5  6  1  0  0  0
  6 21  1  0  0  0
 21 22  1  0  0  0
 22 23  1  0  0  0
 23 24  2  0  0  0
 24 25  1  0  0  0
 25 26  2  0  0  0
 26 27  1  0  0  0
 26 28  1  0  0  0
 28 29  2  0  0  0
 14 15  1  0  0  0
 15 16  2  0  0  0
 16  7  1  0  0  0
 15 11  1  0  0  0
  6  1  1  0  0  0
 29 23  1  0  0  0
 10 17  1  0  0  0
 10 18  1  0  0  0
M  END
> <minimizedAffinity>
25.55804

> <CNNscore>
0.5782985687

> <CNNaffinity>
6.5084228516

> <CNN_VS>
3.7638115883

> <CNNaffinity_variance>
0.6445080042

$$$$
[H]c1c([H])c(C([H])([H])C([H])([H])[C@]2([H])C([H])([H])C([H])([H])C([H])([H])C([H])([H])[C@@]2([H])n2c([H])nc3c(N([H])[H])nc(SC([H])([H])[H])nc32)c([H])c([H])c1Cl


 29 32  0  0  0  0  0  0  0  0999 V2000
   23.5704    8.2922   53.7706 C   0  0  0  0  0  0  0  0  0  0  0  0
   22.8892    9.5897   53.9499 C   0  0  0  0  0  0  0  0  0  0  0  0
   23.0061    9.9895   55.4165 C   0  0  0  0  0  0  0  0  0  0  0  0
   21.9628    9.1349   56.0898 C   0  0  0  0  0  0  0  0  0  0  0  0
   22.2460    7.7034   55.8417 C   0  0  0  0  0  0  0  0  0  0  0  0
   23.1819    7.2513   54.8214 C   0  0  0  0  0  0  0  0  0  0  0  0
   26.9920    9.1273   56.6246 C   0  0  0  0  0  0  0  0  0  0  0  0
   28.2171    9.1059   56.0535 N   0  0  0  0  0  0  0  0  0  0  0  0
   28.3636    8.8542   54.7434 C   0  0  0  0  0  0  0  0  0  0  0  0
   29.6060    8.8195   54.0989 N   0  0  0  0  0  0  0  0  0  0  0  0
   27.2318    8.6126   53.9685 C   0  0  0  0  0  0  0  0  0  0  0  0
   27.0042    8.3374   52.6842 N   0  0  0  0  0  0  0  0  0  0  0  0
   25.6791    8.1974   52.4898 C   0  0  0  0  0  0  0  0  0  0  0  0
   25.0144    8.3822   53.6621 N   0  0  0  0  0  0  0  0  0  0  0  0
   25.9598    8.6336   54.5546 C   0  0  0  0  0  0  0  0  0  0  0  0
   25.9476    8.8923   55.8496 N   0  0  0  0  0  0  0  0  0  0  0  0
   29.9788    7.9539   53.6691 H   0  0  0  0  0  0  0  0  0  0  0  0
   30.1775    9.6879   54.0473 H   0  0  0  0  0  0  0  0  0  0  0  0
   28.5375    9.5577   59.0670 C   0  0  0  0  0  0  0  0  0  0  0  0
   26.8681    9.4697   58.3795 S   0  0  0  0  0  0  0  0  0  0  0  0
   22.7256    6.0182   54.1149 C   0  0  0  0  0  0  0  0  0  0  0  0
   21.6518    5.9915   53.1437 C   0  0  0  0  0  0  0  0  0  0  0  0
   20.3394    5.4649   53.3420 C   0  0  0  0  0  0  0  0  0  0  0  0
   20.0602    4.0891   53.4667 C   0  0  0  0  0  0  0  0  0  0  0  0
   18.8169    3.6054   53.7255 C   0  0  0  0  0  0  0  0  0  0  0  0
   17.7685    4.4645   53.8769 C   0  0  0  0  0  0  0  0  0  0  0  0
   16.1408    3.9187   54.2102 Cl  0  0  0  0  0  0  0  0  0  0  0  0
   17.9828    5.8216   53.7654 C   0  0  0  0  0  0  0  0  0  0  0  0
   19.2388    6.2741   53.5061 C   0  0  0  0  0  0  0  0  0  0  0  0
 19 20  1  0  0  0
 20  7  1  0  0  0
  7  8  2  0  0  0
  8  9  1  0  0  0
  9 10  1  0  0  0
  9 11  2  0  0  0
 11 12  1  0  0  0
 12 13  2  0  0  0
 13 14  1  0  0  0
 14  1  1  0  0  0
  1  2  1  0  0  0
  2  3  1  0  0  0
  3  4  1  0  0  0
  4  5  1  0  0  0
  5  6  1  0  0  0
  6 21  1  0  0  0
 21 22  1  0  0  0
 22 23  1  0  0  0
 23 24  2  0  0  0
 24 25  1  0  0  0
 25 26  2  0  0  0
 26 27  1  0  0  0
 26 28  1  0  0  0
 28 29  2  0  0  0
 14 15  1  0  0  0
 15 16  2  0  0  0
 16  7  1  0  0  0
 15 11  1  0  0  0
  6  1  1  0  0  0
 29 23  1  0  0  0
 10 17  1  0  0  0
 10 18  1  0  0  0
M  END
> <minimizedAffinity>
22.67262

> <CNNscore>
0.5229370594

> <CNNaffinity>
6.5629768372

> <CNN_VS>
3.4320237637

> <CNNaffinity_variance>
0.3246460855

$$$$
[H]c1c([H])c(C([H])([H])C([H])([H])[C@]2([H])C([H])([H])C([H])([H])C([H])([H])C([H])([H])[C@@]2([H])n2c([H])nc3c(N([H])[H])nc(SC([H])([H])[H])nc32)c([H])c([H])c1Cl


 29 32  0  0  0  0  0  0  0  0999 V2000
   26.2276    8.0936   54.0467 C   0  0  0  0  0  0  0  0  0  0  0  0
   26.8830    7.1491   54.9729 C   0  0  0  0  0  0  0  0  0  0  0  0
   27.6932    7.9565   55.9809 C   0  0  0  0  0  0  0  0  0  0  0  0
   28.9251    8.3414   55.2022 C   0  0  0  0  0  0  0  0  0  0  0  0
   28.5409    9.1117   53.9980 C   0  0  0  0  0  0  0  0  0  0  0  0
   27.1732    9.1641   53.5002 C   0  0  0  0  0  0  0  0  0  0  0  0
   21.9025    8.3921   52.7218 C   0  0  0  0  0  0  0  0  0  0  0  0
   21.1053    9.0898   53.5615 N   0  0  0  0  0  0  0  0  0  0  0  0
   21.5957    9.6343   54.6858 C   0  0  0  0  0  0  0  0  0  0  0  0
   20.8179   10.3662   55.5911 N   0  0  0  0  0  0  0  0  0  0  0  0
   22.9466    9.4734   54.9841 C   0  0  0  0  0  0  0  0  0  0  0  0
   23.7504    9.8598   55.9748 N   0  0  0  0  0  0  0  0  0  0  0  0
   24.9958    9.4066   55.7363 C   0  0  0  0  0  0  0  0  0  0  0  0
   25.0216    8.7078   54.5695 N   0  0  0  0  0  0  0  0  0  0  0  0
   23.7775    8.7515   54.1179 C   0  0  0  0  0  0  0  0  0  0  0  0
   23.1773    8.2658   53.0465 N   0  0  0  0  0  0  0  0  0  0  0  0
   20.6542   10.0439   56.5619 H   0  0  0  0  0  0  0  0  0  0  0  0
   20.3881   11.2633   55.2845 H   0  0  0  0  0  0  0  0  0  0  0  0
   19.3905    7.9171   51.3063 C   0  0  0  0  0  0  0  0  0  0  0  0
   21.1826    7.6912   51.2376 S   0  0  0  0  0  0  0  0  0  0  0  0
   27.0925    9.1456   52.0099 C   0  0  0  0  0  0  0  0  0  0  0  0
   28.1417    9.6274   51.1358 C   0  0  0  0  0  0  0  0  0  0  0  0
   28.3146    9.3023   49.7561 C   0  0  0  0  0  0  0  0  0  0  0  0
   27.9237   10.1486   48.6991 C   0  0  0  0  0  0  0  0  0  0  0  0
   28.1576    9.8588   47.3922 C   0  0  0  0  0  0  0  0  0  0  0  0
   28.7981    8.7032   47.0536 C   0  0  0  0  0  0  0  0  0  0  0  0
   29.1341    8.2606   45.3953 Cl  0  0  0  0  0  0  0  0  0  0  0  0
   29.2035    7.8371   48.0464 C   0  0  0  0  0  0  0  0  0  0  0  0
   28.9547    8.1558   49.3448 C   0  0  0  0  0  0  0  0  0  0  0  0
 19 20  1  0  0  0
 20  7  1  0  0  0
  7  8  2  0  0  0
  8  9  1  0  0  0
  9 10  1  0  0  0
  9 11  2  0  0  0
 11 12  1  0  0  0
 12 13  2  0  0  0
 13 14  1  0  0  0
 14  1  1  0  0  0
  1  2  1  0  0  0
  2  3  1  0  0  0
  3  4  1  0  0  0
  4  5  1  0  0  0
  5  6  1  0  0  0
  6 21  1  0  0  0
 21 22  1  0  0  0
 22 23  1  0  0  0
 23 24  2  0  0  0
 24 25  1  0  0  0
 25 26  2  0  0  0
 26 27  1  0  0  0
 26 28  1  0  0  0
 28 29  2  0  0  0
 14 15  1  0  0  0
 15 16  2  0  0  0
 16  7  1  0  0  0
 15 11  1  0  0  0
  6  1  1  0  0  0
 29 23  1  0  0  0
 10 17  1  0  0  0
 10 18  1  0  0  0
M  END
> <minimizedAffinity>
24.56247

> <CNNscore>
0.5196059942

> <CNNaffinity>
6.5781631470

> <CNN_VS>
3.4180529118

> <CNNaffinity_variance>
0.2547010481

$$$$
[H]c1c([H])c(C([H])([H])C([H])([H])[C@]2([H])C([H])([H])C([H])([H])C([H])([H])C([H])([H])[C@@]2([H])n2c([H])nc3c(N([H])[H])nc(SC([H])([H])[H])nc32)c([H])c([H])c1Cl


 29 32  0  0  0  0  0  0  0  0999 V2000
   21.8463    6.9737   52.9095 C   0  0  0  0  0  0  0  0  0  0  0  0
   20.6727    6.3836   52.2355 C   0  0  0  0  0  0  0  0  0  0  0  0
   19.9690    5.4624   53.2258 C   0  0  0  0  0  0  0  0  0  0  0  0
   20.8315    4.2262   53.2178 C   0  0  0  0  0  0  0  0  0  0  0  0
   22.2152    4.5736   53.6124 C   0  0  0  0  0  0  0  0  0  0  0  0
   22.7017    5.9458   53.6515 C   0  0  0  0  0  0  0  0  0  0  0  0
   21.4887   11.4653   52.4111 C   0  0  0  0  0  0  0  0  0  0  0  0
   21.1690   12.1318   53.5429 N   0  0  0  0  0  0  0  0  0  0  0  0
   20.9820   11.4776   54.6997 C   0  0  0  0  0  0  0  0  0  0  0  0
   20.6500   12.1150   55.9012 N   0  0  0  0  0  0  0  0  0  0  0  0
   21.1212   10.0920   54.7255 C   0  0  0  0  0  0  0  0  0  0  0  0
   21.0137    9.1465   55.6589 N   0  0  0  0  0  0  0  0  0  0  0  0
   21.2621    7.9454   55.1027 C   0  0  0  0  0  0  0  0  0  0  0  0
   21.5390    8.0936   53.7792 N   0  0  0  0  0  0  0  0  0  0  0  0
   21.4524    9.3960   53.5560 C   0  0  0  0  0  0  0  0  0  0  0  0
   21.6100   10.1513   52.4842 N   0  0  0  0  0  0  0  0  0  0  0  0
   19.7483   11.9465   56.3826 H   0  0  0  0  0  0  0  0  0  0  0  0
   21.3268   12.7803   56.3288 H   0  0  0  0  0  0  0  0  0  0  0  0
   20.9640   14.0276   51.1078 C   0  0  0  0  0  0  0  0  0  0  0  0
   21.7242   12.4008   50.9006 S   0  0  0  0  0  0  0  0  0  0  0  0
   24.1115    6.0798   53.1800 C   0  0  0  0  0  0  0  0  0  0  0  0
   24.7957    7.3462   53.0211 C   0  0  0  0  0  0  0  0  0  0  0  0
   25.5742    8.0214   54.0095 C   0  0  0  0  0  0  0  0  0  0  0  0
   25.0259    8.6157   55.1639 C   0  0  0  0  0  0  0  0  0  0  0  0
   25.7848    9.1938   56.1317 C   0  0  0  0  0  0  0  0  0  0  0  0
   27.1431    9.2169   56.0109 C   0  0  0  0  0  0  0  0  0  0  0  0
   28.1860    9.9423   57.2129 Cl  0  0  0  0  0  0  0  0  0  0  0  0
   27.7346    8.6503   54.9023 C   0  0  0  0  0  0  0  0  0  0  0  0
   26.9476    8.0795   53.9513 C   0  0  0  0  0  0  0  0  0  0  0  0
 19 20  1  0  0  0
 20  7  1  0  0  0
  7  8  2  0  0  0
  8  9  1  0  0  0
  9 10  1  0  0  0
  9 11  2  0  0  0
 11 12  1  0  0  0
 12 13  2  0  0  0
 13 14  1  0  0  0
 14  1  1  0  0  0
  1  2  1  0  0  0
  2  3  1  0  0  0
  3  4  1  0  0  0
  4  5  1  0  0  0
  5  6  1  0  0  0
  6 21  1  0  0  0
 21 22  1  0  0  0
 22 23  1  0  0  0
 23 24  2  0  0  0
 24 25  1  0  0  0
 25 26  2  0  0  0
 26 27  1  0  0  0
 26 28  1  0  0  0
 28 29  2  0  0  0
 14 15  1  0  0  0
 15 16  2  0  0  0
 16  7  1  0  0  0
 15 11  1  0  0  0
  6  1  1  0  0  0
 29 23  1  0  0  0
 10 17  1  0  0  0
 10 18  1  0  0  0
M  END
> <minimizedAffinity>
22.93543

> <CNNscore>
0.5113794208

> <CNNaffinity>
6.3808808327

> <CNN_VS>
3.2630510330

> <CNNaffinity_variance>
0.4509170949

$$$$
[H]c1c([H])c(C([H])([H])C([H])([H])[C@]2([H])C([H])([H])C([H])([H])C([H])([H])C([H])([H])[C@@]2([H])n2c([H])nc3c(N([H])[H])nc(SC([H])([H])[H])nc32)c([H])c([H])c1Cl


 29 32  0  0  0  0  0  0  0  0999 V2000
   22.9077    7.5943   52.9970 C   0  0  0  0  0  0  0  0  0  0  0  0
   22.1696    6.3521   52.6938 C   0  0  0  0  0  0  0  0  0  0  0  0
   22.2437    5.4444   53.9165 C   0  0  0  0  0  0  0  0  0  0  0  0
   23.6321    4.8639   53.8297 C   0  0  0  0  0  0  0  0  0  0  0  0
   24.6356    5.9519   53.8381 C   0  0  0  0  0  0  0  0  0  0  0  0
   24.2854    7.3477   53.6133 C   0  0  0  0  0  0  0  0  0  0  0  0
   21.4784   11.8592   52.4325 C   0  0  0  0  0  0  0  0  0  0  0  0
   20.7968   12.3663   53.4840 N   0  0  0  0  0  0  0  0  0  0  0  0
   20.5834   11.6324   54.5871 C   0  0  0  0  0  0  0  0  0  0  0  0
   19.8853   12.1051   55.7048 N   0  0  0  0  0  0  0  0  0  0  0  0
   21.0748   10.3303   54.6409 C   0  0  0  0  0  0  0  0  0  0  0  0
   21.0535    9.3462   55.5398 N   0  0  0  0  0  0  0  0  0  0  0  0
   21.7044    8.2778   55.0417 C   0  0  0  0  0  0  0  0  0  0  0  0
   22.1659    8.5545   53.7924 N   0  0  0  0  0  0  0  0  0  0  0  0
   21.7818    9.7993   53.5546 C   0  0  0  0  0  0  0  0  0  0  0  0
   21.9254   10.6192   52.5293 N   0  0  0  0  0  0  0  0  0  0  0  0
   18.9883   11.6868   56.0106 H   0  0  0  0  0  0  0  0  0  0  0  0
   20.2752   12.9018   56.2495 H   0  0  0  0  0  0  0  0  0  0  0  0
   20.8102   14.4339   51.2227 C   0  0  0  0  0  0  0  0  0  0  0  0
   21.7273   12.8937   50.9903 S   0  0  0  0  0  0  0  0  0  0  0  0
   25.3010    8.0819   52.8025 C   0  0  0  0  0  0  0  0  0  0  0  0
   26.6743    8.2846   53.2148 C   0  0  0  0  0  0  0  0  0  0  0  0
   27.1279    8.6083   54.5295 C   0  0  0  0  0  0  0  0  0  0  0  0
   28.4882    8.7152   54.8823 C   0  0  0  0  0  0  0  0  0  0  0  0
   28.9058    9.0928   56.1191 C   0  0  0  0  0  0  0  0  0  0  0  0
   27.9916    9.3890   57.0871 C   0  0  0  0  0  0  0  0  0  0  0  0
   28.4509    9.8811   58.7012 Cl  0  0  0  0  0  0  0  0  0  0  0  0
   26.6466    9.3019   56.7983 C   0  0  0  0  0  0  0  0  0  0  0  0
   26.2608    8.9211   55.5510 C   0  0  0  0  0  0  0  0  0  0  0  0
 19 20  1  0  0  0
 20  7  1  0  0  0
  7  8  2  0  0  0
  8  9  1  0  0  0
  9 10  1  0  0  0
  9 11  2  0  0  0
 11 12  1  0  0  0
 12 13  2  0  0  0
 13 14  1  0  0  0
 14  1  1  0  0  0
  1  2  1  0  0  0
  2  3  1  0  0  0
  3  4  1  0  0  0
  4  5  1  0  0  0
  5  6  1  0  0  0
  6 21  1  0  0  0
 21 22  1  0  0  0
 22 23  1  0  0  0
 23 24  2  0  0  0
 24 25  1  0  0  0
 25 26  2  0  0  0
 26 27  1  0  0  0
 26 28  1  0  0  0
 28 29  2  0  0  0
 14 15  1  0  0  0
 15 16  2  0  0  0
 16  7  1  0  0  0
 15 11  1  0  0  0
  6  1  1  0  0  0
 29 23  1  0  0  0
 10 17  1  0  0  0
 10 18  1  0  0  0
M  END
> <minimizedAffinity>
22.06120

> <CNNscore>
0.5091993809

> <CNNaffinity>
6.2247886658

> <CNN_VS>
3.1696584225

> <CNNaffinity_variance>
0.4215612411

$$$$
[H]c1c([H])c(C([H])([H])C([H])([H])[C@]2([H])C([H])([H])C([H])([H])C([H])([H])C([H])([H])[C@@]2([H])n2c([H])nc3c(N([H])[H])nc(SC([H])([H])[H])nc32)c([H])c([H])c1Cl


 29 32  0  0  0  0  0  0  0  0999 V2000
   23.5699    8.5313   54.1874 C   0  0  0  0  0  0  0  0  0  0  0  0
   23.2075    9.5032   55.2380 C   0  0  0  0  0  0  0  0  0  0  0  0
   23.2507    8.7874   56.5834 C   0  0  0  0  0  0  0  0  0  0  0  0
   21.9621    8.0055   56.5982 C   0  0  0  0  0  0  0  0  0  0  0  0
   21.9163    7.0859   55.4392 C   0  0  0  0  0  0  0  0  0  0  0  0
   22.8243    7.2014   54.3062 C   0  0  0  0  0  0  0  0  0  0  0  0
   27.2598    9.4692   56.6484 C   0  0  0  0  0  0  0  0  0  0  0  0
   28.4208    9.0396   56.1050 N   0  0  0  0  0  0  0  0  0  0  0  0
   28.4348    8.3923   54.9295 C   0  0  0  0  0  0  0  0  0  0  0  0
   29.6057    7.9255   54.3201 N   0  0  0  0  0  0  0  0  0  0  0  0
   27.2314    8.1639   54.2665 C   0  0  0  0  0  0  0  0  0  0  0  0
   26.8761    7.5762   53.1241 N   0  0  0  0  0  0  0  0  0  0  0  0
   25.5387    7.6508   52.9854 C   0  0  0  0  0  0  0  0  0  0  0  0
   24.9955    8.2979   54.0515 N   0  0  0  0  0  0  0  0  0  0  0  0
   26.0254    8.6067   54.8245 C   0  0  0  0  0  0  0  0  0  0  0  0
   26.1433    9.2296   55.9830 N   0  0  0  0  0  0  0  0  0  0  0  0
   29.7815    6.9161   54.1671 H   0  0  0  0  0  0  0  0  0  0  0  0
   30.3257    8.6098   54.0091 H   0  0  0  0  0  0  0  0  0  0  0  0
   28.7478    9.7374   59.1490 C   0  0  0  0  0  0  0  0  0  0  0  0
   27.3128   10.3268   58.2212 S   0  0  0  0  0  0  0  0  0  0  0  0
   22.1661    6.9134   52.9979 C   0  0  0  0  0  0  0  0  0  0  0  0
   21.1534    7.7566   52.3976 C   0  0  0  0  0  0  0  0  0  0  0  0
   21.1955    9.1786   52.2740 C   0  0  0  0  0  0  0  0  0  0  0  0
   21.3367   10.0542   53.3693 C   0  0  0  0  0  0  0  0  0  0  0  0
   21.4460   11.4017   53.2319 C   0  0  0  0  0  0  0  0  0  0  0  0
   21.4215   11.9651   51.9901 C   0  0  0  0  0  0  0  0  0  0  0  0
   21.5558   13.6897   51.7326 Cl  0  0  0  0  0  0  0  0  0  0  0  0
   21.2855   11.1569   50.8818 C   0  0  0  0  0  0  0  0  0  0  0  0
   21.1784    9.8120   51.0526 C   0  0  0  0  0  0  0  0  0  0  0  0
 19 20  1  0  0  0
 20  7  1  0  0  0
  7  8  2  0  0  0
  8  9  1  0  0  0
  9 10  1  0  0  0
  9 11  2  0  0  0
 11 12  1  0  0  0
 12 13  2  0  0  0
 13 14  1  0  0  0
 14  1  1  0  0  0
  1  2  1  0  0  0
  2  3  1  0  0  0
  3  4  1  0  0  0
  4  5  1  0  0  0
  5  6  1  0  0  0
  6 21  1  0  0  0
 21 22  1  0  0  0
 22 23  1  0  0  0
 23 24  2  0  0  0
 24 25  1  0  0  0
 25 26  2  0  0  0
 26 27  1  0  0  0
 26 28  1  0  0  0
 28 29  2  0  0  0
 14 15  1  0  0  0
 15 16  2  0  0  0
 16  7  1  0  0  0
 15 11  1  0  0  0
  6  1  1  0  0  0
 29 23  1  0  0  0
 10 17  1  0  0  0
 10 18  1  0  0  0
M  END
> <minimizedAffinity>
15.10785

> <CNNscore>
0.5001360178

> <CNNaffinity>
6.4704384804

> <CNN_VS>
3.2360992432

> <CNNaffinity_variance>
0.1769781411

$$$$
[H]c1c([H])c(C([H])([H])C([H])([H])[C@]2([H])C([H])([H])C([H])([H])C([H])([H])C([H])([H])[C@@]2([H])n2c([H])nc3c(N([H])[H])nc(SC([H])([H])[H])nc32)c([H])c([H])c1Cl


 29 32  0  0  0  0  0  0  0  0999 V2000
   23.2081    7.9639   53.3890 C   0  0  0  0  0  0  0  0  0  0  0  0
   22.7250    9.0766   52.5475 C   0  0  0  0  0  0  0  0  0  0  0  0
   22.1220   10.1372   53.4618 C   0  0  0  0  0  0  0  0  0  0  0  0
   20.7716    9.5641   53.8088 C   0  0  0  0  0  0  0  0  0  0  0  0
   20.9353    8.2447   54.4595 C   0  0  0  0  0  0  0  0  0  0  0  0
   22.1886    7.5032   54.4316 C   0  0  0  0  0  0  0  0  0  0  0  0
   27.3913    8.9358   51.9375 C   0  0  0  0  0  0  0  0  0  0  0  0
   28.3085    9.0740   52.9209 N   0  0  0  0  0  0  0  0  0  0  0  0
   27.9659    8.9264   54.2100 C   0  0  0  0  0  0  0  0  0  0  0  0
   28.8723    9.0578   55.2689 N   0  0  0  0  0  0  0  0  0  0  0  0
   26.6440    8.6266   54.5304 C   0  0  0  0  0  0  0  0  0  0  0  0
   25.9671    8.4174   55.6595 N   0  0  0  0  0  0  0  0  0  0  0  0
   24.6791    8.1607   55.3622 C   0  0  0  0  0  0  0  0  0  0  0  0
   24.4956    8.1996   54.0149 N   0  0  0  0  0  0  0  0  0  0  0  0
   25.6892    8.4821   53.5158 C   0  0  0  0  0  0  0  0  0  0  0  0
   26.1497    8.6513   52.2897 N   0  0  0  0  0  0  0  0  0  0  0  0
   28.7837    9.8065   55.9793 H   0  0  0  0  0  0  0  0  0  0  0  0
   29.6623    8.3848   55.3497 H   0  0  0  0  0  0  0  0  0  0  0  0
   28.4971   10.8446   50.0210 C   0  0  0  0  0  0  0  0  0  0  0  0
   27.9166    9.1465   50.2369 S   0  0  0  0  0  0  0  0  0  0  0  0
   21.9935    6.0313   54.2796 C   0  0  0  0  0  0  0  0  0  0  0  0
   21.0931    5.4283   53.3190 C   0  0  0  0  0  0  0  0  0  0  0  0
   19.7485    5.0121   53.5595 C   0  0  0  0  0  0  0  0  0  0  0  0
   18.6673    5.9054   53.6987 C   0  0  0  0  0  0  0  0  0  0  0  0
   17.3818    5.4943   53.8570 C   0  0  0  0  0  0  0  0  0  0  0  0
   17.0902    4.1622   53.8870 C   0  0  0  0  0  0  0  0  0  0  0  0
   15.4620    3.5561   54.0879 Cl  0  0  0  0  0  0  0  0  0  0  0  0
   18.1084    3.2425   53.7553 C   0  0  0  0  0  0  0  0  0  0  0  0
   19.3844    3.6858   53.5983 C   0  0  0  0  0  0  0  0  0  0  0  0
 19 20  1  0  0  0
 20  7  1  0  0  0
  7  8  2  0  0  0
  8  9  1  0  0  0
  9 10  1  0  0  0
  9 11  2  0  0  0
 11 12  1  0  0  0
 12 13  2  0  0  0
 13 14  1  0  0  0
 14  1  1  0  0  0
  1  2  1  0  0  0
  2  3  1  0  0  0
  3  4  1  0  0  0
  4  5  1  0  0  0
  5  6  1  0  0  0
  6 21  1  0  0  0
 21 22  1  0  0  0
 22 23  1  0  0  0
 23 24  2  0  0  0
 24 25  1  0  0  0
 25 26  2  0  0  0
 26 27  1  0  0  0
 26 28  1  0  0  0
 28 29  2  0  0  0
 14 15  1  0  0  0
 15 16  2  0  0  0
 16  7  1  0  0  0
 15 11  1  0  0  0
  6  1  1  0  0  0
 29 23  1  0  0  0
 10 17  1  0  0  0
 10 18  1  0  0  0
M  END
> <minimizedAffinity>
25.87803

> <CNNscore>
0.4994437397

> <CNNaffinity>
6.4147729874

> <CNN_VS>
3.2038183212

> <CNNaffinity_variance>
0.3017178774

$$$$
[H]c1c([H])c(C([H])([H])C([H])([H])[C@]2([H])C([H])([H])C([H])([H])C([H])([H])C([H])([H])[C@@]2([H])n2c([H])nc3c(N([H])[H])nc(SC([H])([H])[H])nc32)c([H])c([H])c1Cl


 29 32  0  0  0  0  0  0  0  0999 V2000
   24.0365    7.8364   53.8211 C   0  0  0  0  0  0  0  0  0  0  0  0
   23.5905    7.5498   55.1990 C   0  0  0  0  0  0  0  0  0  0  0  0
   24.0149    6.1282   55.5502 C   0  0  0  0  0  0  0  0  0  0  0  0
   22.9913    5.2789   54.8409 C   0  0  0  0  0  0  0  0  0  0  0  0
   23.0183    5.5634   53.3886 C   0  0  0  0  0  0  0  0  0  0  0  0
   23.6892    6.7276   52.8267 C   0  0  0  0  0  0  0  0  0  0  0  0
   27.3077    9.1043   56.6922 C   0  0  0  0  0  0  0  0  0  0  0  0
   28.5045    9.3409   56.1100 N   0  0  0  0  0  0  0  0  0  0  0  0
   28.6675    9.2005   54.7853 C   0  0  0  0  0  0  0  0  0  0  0  0
   29.8824    9.4318   54.1289 N   0  0  0  0  0  0  0  0  0  0  0  0
   27.5827    8.8049   54.0066 C   0  0  0  0  0  0  0  0  0  0  0  0
   27.3827    8.5717   52.7095 N   0  0  0  0  0  0  0  0  0  0  0  0
   26.1011    8.2051   52.5182 C   0  0  0  0  0  0  0  0  0  0  0  0
   25.4379    8.1940   53.7058 N   0  0  0  0  0  0  0  0  0  0  0  0
   26.3401    8.5582   54.6041 C   0  0  0  0  0  0  0  0  0  0  0  0
   26.3075    8.7309   55.9130 N   0  0  0  0  0  0  0  0  0  0  0  0
   30.3969    8.6763   53.6415 H   0  0  0  0  0  0  0  0  0  0  0  0
   30.2861   10.3912   54.1276 H   0  0  0  0  0  0  0  0  0  0  0  0
   28.8056    9.1736   59.2002 C   0  0  0  0  0  0  0  0  0  0  0  0
   27.1594    9.3106   58.4663 S   0  0  0  0  0  0  0  0  0  0  0  0
   22.9451    7.3366   51.6851 C   0  0  0  0  0  0  0  0  0  0  0  0
   21.7555    8.1487   51.8345 C   0  0  0  0  0  0  0  0  0  0  0  0
   21.3396    8.8379   53.0139 C   0  0  0  0  0  0  0  0  0  0  0  0
   20.6608    8.2183   54.0824 C   0  0  0  0  0  0  0  0  0  0  0  0
   20.3329    8.8692   55.2293 C   0  0  0  0  0  0  0  0  0  0  0  0
   20.6612   10.1838   55.3856 C   0  0  0  0  0  0  0  0  0  0  0  0
   20.2729   11.0889   56.8307 Cl  0  0  0  0  0  0  0  0  0  0  0  0
   21.3261   10.8412   54.3728 C   0  0  0  0  0  0  0  0  0  0  0  0
   21.6402   10.1618   53.2373 C   0  0  0  0  0  0  0  0  0  0  0  0
 19 20  1  0  0  0
 20  7  1  0  0  0
  7  8  2  0  0  0
  8  9  1  0  0  0
  9 10  1  0  0  0
  9 11  2  0  0  0
 11 12  1  0  0  0
 12 13  2  0  0  0
 13 14  1  0  0  0
 14  1  1  0  0  0
  1  2  1  0  0  0
  2  3  1  0  0  0
  3  4  1  0  0  0
  4  5  1  0  0  0
  5  6  1  0  0  0
  6 21  1  0  0  0
 21 22  1  0  0  0
 22 23  1  0  0  0
 23 24  2  0  0  0
 24 25  1  0  0  0
 25 26  2  0  0  0
 26 27  1  0  0  0
 26 28  1  0  0  0
 28 29  2  0  0  0
 14 15  1  0  0  0
 15 16  2  0  0  0
 16  7  1  0  0  0
 15 11  1  0  0  0
  6  1  1  0  0  0
 29 23  1  0  0  0
 10 17  1  0  0  0
 10 18  1  0  0  0
M  END
> <minimizedAffinity>
19.07257

> <CNNscore>
0.4954989851

> <CNNaffinity>
6.3876276016

> <CNN_VS>
3.1650629044

> <CNNaffinity_variance>
0.3139974475

$$$$
[H]c1c([H])c(C([H])([H])C([H])([H])[C@]2([H])C([H])([H])C([H])([H])C([H])([H])C([H])([H])[C@@]2([H])n2c([H])nc3c(N([H])[H])nc(SC([H])([H])[H])nc32)c([H])c([H])c1Cl


 29 32  0  0  0  0  0  0  0  0999 V2000
   22.6882    8.4544   53.7596 C   0  0  0  0  0  0  0  0  0  0  0  0
   22.3537    9.8438   53.3892 C   0  0  0  0  0  0  0  0  0  0  0  0
   22.6861   10.7448   54.5733 C   0  0  0  0  0  0  0  0  0  0  0  0
   21.5300   10.5174   55.5134 C   0  0  0  0  0  0  0  0  0  0  0  0
   21.4417    9.0828   55.8672 C   0  0  0  0  0  0  0  0  0  0  0  0
   22.1531    8.0456   55.1327 C   0  0  0  0  0  0  0  0  0  0  0  0
   26.4565    9.5516   56.0284 C   0  0  0  0  0  0  0  0  0  0  0  0
   27.5856    8.9836   55.5489 N   0  0  0  0  0  0  0  0  0  0  0  0
   27.5492    8.1674   54.4842 C   0  0  0  0  0  0  0  0  0  0  0  0
   28.6854    7.5522   53.9449 N   0  0  0  0  0  0  0  0  0  0  0  0
   26.3263    7.9070   53.8706 C   0  0  0  0  0  0  0  0  0  0  0  0
   25.9247    7.1744   52.8320 N   0  0  0  0  0  0  0  0  0  0  0  0
   24.5911    7.2990   52.6919 C   0  0  0  0  0  0  0  0  0  0  0  0
   24.0975    8.1270   53.6517 N   0  0  0  0  0  0  0  0  0  0  0  0
   25.1530    8.4926   54.3629 C   0  0  0  0  0  0  0  0  0  0  0  0
   25.3196    9.2751   55.4136 N   0  0  0  0  0  0  0  0  0  0  0  0
   28.8062    6.5234   53.9446 H   0  0  0  0  0  0  0  0  0  0  0  0
   29.4357    8.1424   53.5299 H   0  0  0  0  0  0  0  0  0  0  0  0
   28.2496   10.5110   58.1268 C   0  0  0  0  0  0  0  0  0  0  0  0
   26.5764   10.6315   57.4537 S   0  0  0  0  0  0  0  0  0  0  0  0
   21.3579    6.7926   54.9729 C   0  0  0  0  0  0  0  0  0  0  0  0
   20.5708    6.4768   53.7992 C   0  0  0  0  0  0  0  0  0  0  0  0
   19.4207    5.6319   53.7493 C   0  0  0  0  0  0  0  0  0  0  0  0
   19.4866    4.2276   53.6504 C   0  0  0  0  0  0  0  0  0  0  0  0
   18.3865    3.4302   53.6748 C   0  0  0  0  0  0  0  0  0  0  0  0
   17.1458    3.9830   53.7994 C   0  0  0  0  0  0  0  0  0  0  0  0
   15.6840    3.0237   53.8376 Cl  0  0  0  0  0  0  0  0  0  0  0  0
   17.0209    5.3520   53.9001 C   0  0  0  0  0  0  0  0  0  0  0  0
   18.1411    6.1226   53.8727 C   0  0  0  0  0  0  0  0  0  0  0  0
 19 20  1  0  0  0
 20  7  1  0  0  0
  7  8  2  0  0  0
  8  9  1  0  0  0
  9 10  1  0  0  0
  9 11  2  0  0  0
 11 12  1  0  0  0
 12 13  2  0  0  0
 13 14  1  0  0  0
 14  1  1  0  0  0
  1  2  1  0  0  0
  2  3  1  0  0  0
  3  4  1  0  0  0
  4  5  1  0  0  0
  5  6  1  0  0  0
  6 21  1  0  0  0
 21 22  1  0  0  0
 22 23  1  0  0  0
 23 24  2  0  0  0
 24 25  1  0  0  0
 25 26  2  0  0  0
 26 27  1  0  0  0
 26 28  1  0  0  0
 28 29  2  0  0  0
 14 15  1  0  0  0
 15 16  2  0  0  0
 16  7  1  0  0  0
 15 11  1  0  0  0
  6  1  1  0  0  0
 29 23  1  0  0  0
 10 17  1  0  0  0
 10 18  1  0  0  0
M  END
> <minimizedAffinity>
25.11824

> <CNNscore>
0.4938544929

> <CNNaffinity>
6.4784383774

> <CNN_VS>
3.1994059086

> <CNNaffinity_variance>
0.3427194655

$$$$
[H]c1nc([H])c([H])c(Oc2c([H])c(N([H])C(=O)N([H])c3c([H])c([H])c([H])c(Br)c3[H])c([H])c(N([H])c3c([H])c([H])c([H])c(OC([H])([H])[H])c3[H])c2[H])c1[H]


 36 39  0  0  0  0  0  0  0  0999 V2000
   25.2517    8.4841   55.3773 C   0  0  0  0  0  0  0  0  0  0  0  0
   25.9176    8.1532   54.2392 C   0  0  0  0  0  0  0  0  0  0  0  0
   27.2731    8.5326   54.0542 C   0  0  0  0  0  0  0  0  0  0  0  0
   27.8280    9.2374   55.0883 C   0  0  0  0  0  0  0  0  0  0  0  0
   27.1658    9.5892   56.2658 C   0  0  0  0  0  0  0  0  0  0  0  0
   25.8591    9.1969   56.3932 C   0  0  0  0  0  0  0  0  0  0  0  0
   27.8852    8.1762   52.8428 N   0  0  0  0  0  0  0  0  0  0  0  0
   27.8981    8.9803   51.6873 C   0  0  0  0  0  0  0  0  0  0  0  0
   27.3526   10.0989   51.6811 O   0  0  0  0  0  0  0  0  0  0  0  0
   28.5351    8.5375   50.4920 N   0  0  0  0  0  0  0  0  0  0  0  0
   28.3785    7.2337   52.7720 H   0  0  0  0  0  0  0  0  0  0  0  0
   29.0027    7.5796   50.4696 H   0  0  0  0  0  0  0  0  0  0  0  0
   28.6039    9.2792   49.3075 C   0  0  0  0  0  0  0  0  0  0  0  0
   28.6304   10.6404   49.3025 C   0  0  0  0  0  0  0  0  0  0  0  0
   28.6651   11.3161   48.0849 C   0  0  0  0  0  0  0  0  0  0  0  0
   28.6730   10.6077   46.9243 C   0  0  0  0  0  0  0  0  0  0  0  0
   28.6475    9.2208   46.9090 C   0  0  0  0  0  0  0  0  0  0  0  0
   28.6612    8.2960   45.2448 Br  0  0  0  0  0  0  0  0  0  0  0  0
   28.6131    8.5552   48.0882 C   0  0  0  0  0  0  0  0  0  0  0  0
   27.9031   10.2947   57.2491 N   0  0  0  0  0  0  0  0  0  0  0  0
   28.0637   11.3494   57.0991 H   0  0  0  0  0  0  0  0  0  0  0  0
   28.4677    9.7878   58.4275 C   0  0  0  0  0  0  0  0  0  0  0  0
   28.5703    8.4344   58.6350 C   0  0  0  0  0  0  0  0  0  0  0  0
   29.1456    7.8877   59.7791 C   0  0  0  0  0  0  0  0  0  0  0  0
   29.6198    8.7540   60.7205 C   0  0  0  0  0  0  0  0  0  0  0  0
   29.5202   10.1122   60.5205 C   0  0  0  0  0  0  0  0  0  0  0  0
   28.9525   10.6560   59.3906 C   0  0  0  0  0  0  0  0  0  0  0  0
   29.2325    6.4928   59.9541 O   0  0  0  0  0  0  0  0  0  0  0  0
   28.8826    5.9192   61.1933 C   0  0  0  0  0  0  0  0  0  0  0  0
   23.9117    8.1034   55.5484 O   0  0  0  0  0  0  0  0  0  0  0  0
   21.2785    9.7076   53.5865 C   0  0  0  0  0  0  0  0  0  0  0  0
   21.0516    8.8164   52.6207 N   0  0  0  0  0  0  0  0  0  0  0  0
   21.7507    7.6652   52.5802 C   0  0  0  0  0  0  0  0  0  0  0  0
   22.7169    7.4101   53.5582 C   0  0  0  0  0  0  0  0  0  0  0  0
   22.9630    8.3210   54.5627 C   0  0  0  0  0  0  0  0  0  0  0  0
   22.2311    9.4904   54.5773 C   0  0  0  0  0  0  0  0  0  0  0  0
 31 32  2  0  0  0
 32 33  1  0  0  0
 33 34  2  0  0  0
 34 35  1  0  0  0
 35 30  1  0  0  0
 30  1  1  0  0  0
  1  2  2  0  0  0
  2  3  1  0  0  0
  3  7  1  0  0  0
  7  8  1  0  0  0
  8  9  2  0  0  0
  8 10  1  0  0  0
 10 13  1  0  0  0
 13 14  2  0  0  0
 14 15  1  0  0  0
 15 16  2  0  0  0
 16 17  1  0  0  0
 17 18  1  0  0  0
 17 19  2  0  0  0
  3  4  2  0  0  0
  4  5  1  0  0  0
  5 20  1  0  0  0
 20 22  1  0  0  0
 22 23  2  0  0  0
 23 24  1  0  0  0
 24 28  1  0  0  0
 28 29  1  0  0  0
 24 25  2  0  0  0
 25 26  1  0  0  0
 26 27  2  0  0  0
  5  6  2  0  0  0
 35 36  2  0  0  0
 36 31  1  0  0  0
  6  1  1  0  0  0
 19 13  1  0  0  0
 27 22  1  0  0  0
  7 11  1  0  0  0
 10 12  1  0  0  0
 20 21  1  0  0  0
M  END
> <minimizedAffinity>
21.36192

> <CNNscore>
0.6501099467

> <CNNaffinity>
6.8560266495

> <CNN_VS>
4.4571709633

> <CNNaffinity_variance>
0.0500160679

$$$$
[H]c1nc([H])c([H])c(Oc2c([H])c(N([H])C(=O)N([H])c3c([H])c([H])c([H])c(Br)c3[H])c([H])c(N([H])c3c([H])c([H])c([H])c(OC([H])([H])[H])c3[H])c2[H])c1[H]


 36 39  0  0  0  0  0  0  0  0999 V2000
   25.6265    8.0603   53.5311 C   0  0  0  0  0  0  0  0  0  0  0  0
   25.9112    8.0646   54.8604 C   0  0  0  0  0  0  0  0  0  0  0  0
   27.1088    8.6532   55.3450 C   0  0  0  0  0  0  0  0  0  0  0  0
   27.9218    9.1952   54.3863 C   0  0  0  0  0  0  0  0  0  0  0  0
   27.6521    9.2033   53.0167 C   0  0  0  0  0  0  0  0  0  0  0  0
   26.4817    8.6228   52.6032 C   0  0  0  0  0  0  0  0  0  0  0  0
   27.3444    8.5965   56.7272 N   0  0  0  0  0  0  0  0  0  0  0  0
   28.1169    9.5294   57.4448 C   0  0  0  0  0  0  0  0  0  0  0  0
   28.6460   10.4980   56.8697 O   0  0  0  0  0  0  0  0  0  0  0  0
   28.3155    9.3923   58.8492 N   0  0  0  0  0  0  0  0  0  0  0  0
   26.9191    7.7976   57.2906 H   0  0  0  0  0  0  0  0  0  0  0  0
   27.8790    8.5667   59.3635 H   0  0  0  0  0  0  0  0  0  0  0  0
   29.0565   10.2804   59.6367 C   0  0  0  0  0  0  0  0  0  0  0  0
   30.1576    9.8881   60.3347 C   0  0  0  0  0  0  0  0  0  0  0  0
   30.8288   10.8176   61.1259 C   0  0  0  0  0  0  0  0  0  0  0  0
   30.3756   12.0982   61.1875 C   0  0  0  0  0  0  0  0  0  0  0  0
   29.2565   12.5169   60.4829 C   0  0  0  0  0  0  0  0  0  0  0  0
   28.6807   14.3267   60.6173 Br  0  0  0  0  0  0  0  0  0  0  0  0
   28.5971   11.6200   59.7113 C   0  0  0  0  0  0  0  0  0  0  0  0
   28.5909    9.8375   52.1654 N   0  0  0  0  0  0  0  0  0  0  0  0
   29.4932   10.2245   52.6089 H   0  0  0  0  0  0  0  0  0  0  0  0
   28.4995   10.0337   50.7807 C   0  0  0  0  0  0  0  0  0  0  0  0
   28.6591    8.9857   49.9078 C   0  0  0  0  0  0  0  0  0  0  0  0
   28.5526    9.1306   48.5271 C   0  0  0  0  0  0  0  0  0  0  0  0
   28.2782   10.3769   48.0444 C   0  0  0  0  0  0  0  0  0  0  0  0
   28.1175   11.4329   48.9126 C   0  0  0  0  0  0  0  0  0  0  0  0
   28.2217   11.2931   50.2779 C   0  0  0  0  0  0  0  0  0  0  0  0
   28.7226    8.0298   47.6650 O   0  0  0  0  0  0  0  0  0  0  0  0
   28.9902    8.2455   46.2980 C   0  0  0  0  0  0  0  0  0  0  0  0
   24.4392    7.4753   53.0643 O   0  0  0  0  0  0  0  0  0  0  0  0
   21.2563    9.2551   53.3048 C   0  0  0  0  0  0  0  0  0  0  0  0
   20.7132    8.7323   54.4049 N   0  0  0  0  0  0  0  0  0  0  0  0
   21.3689    7.7834   55.1016 C   0  0  0  0  0  0  0  0  0  0  0  0
   22.6238    7.3494   54.6637 C   0  0  0  0  0  0  0  0  0  0  0  0
   23.1984    7.8798   53.5288 C   0  0  0  0  0  0  0  0  0  0  0  0
   22.5026    8.8497   52.8370 C   0  0  0  0  0  0  0  0  0  0  0  0
 31 32  2  0  0  0
 32 33  1  0  0  0
 33 34  2  0  0  0
 34 35  1  0  0  0
 35 30  1  0  0  0
 30  1  1  0  0  0
  1  2  2  0  0  0
  2  3  1  0  0  0
  3  7  1  0  0  0
  7  8  1  0  0  0
  8  9  2  0  0  0
  8 10  1  0  0  0
 10 13  1  0  0  0
 13 14  2  0  0  0
 14 15  1  0  0  0
 15 16  2  0  0  0
 16 17  1  0  0  0
 17 18  1  0  0  0
 17 19  2  0  0  0
  3  4  2  0  0  0
  4  5  1  0  0  0
  5 20  1  0  0  0
 20 22  1  0  0  0
 22 23  2  0  0  0
 23 24  1  0  0  0
 24 28  1  0  0  0
 28 29  1  0  0  0
 24 25  2  0  0  0
 25 26  1  0  0  0
 26 27  2  0  0  0
  5  6  2  0  0  0
 35 36  2  0  0  0
 36 31  1  0  0  0
  6  1  1  0  0  0
 19 13  1  0  0  0
 27 22  1  0  0  0
  7 11  1  0  0  0
 10 12  1  0  0  0
 20 21  1  0  0  0
M  END
> <minimizedAffinity>
13.15065

> <CNNscore>
0.6430238485

> <CNNaffinity>
6.8306837082

> <CNN_VS>
4.3922924995

> <CNNaffinity_variance>
0.0495324321

$$$$
[H]c1nc([H])c([H])c(Oc2c([H])c(N([H])C(=O)N([H])c3c([H])c([H])c([H])c(Br)c3[H])c([H])c(N([H])c3c([H])c([H])c([H])c(OC([H])([H])[H])c3[H])c2[H])c1[H]


 36 39  0  0  0  0  0  0  0  0999 V2000
   25.3814    9.1926   55.8120 C   0  0  0  0  0  0  0  0  0  0  0  0
   25.7482    8.7857   54.5677 C   0  0  0  0  0  0  0  0  0  0  0  0
   27.1137    8.5643   54.2490 C   0  0  0  0  0  0  0  0  0  0  0  0
   27.9956    8.7909   55.2712 C   0  0  0  0  0  0  0  0  0  0  0  0
   27.6442    9.2087   56.5560 C   0  0  0  0  0  0  0  0  0  0  0  0
   26.3123    9.4064   56.8102 C   0  0  0  0  0  0  0  0  0  0  0  0
   27.4161    8.1693   52.9368 N   0  0  0  0  0  0  0  0  0  0  0  0
   27.7087    9.0558   51.8829 C   0  0  0  0  0  0  0  0  0  0  0  0
   27.7239   10.2862   52.0686 O   0  0  0  0  0  0  0  0  0  0  0  0
   27.9957    8.5708   50.5741 N   0  0  0  0  0  0  0  0  0  0  0  0
   27.4281    7.1296   52.7010 H   0  0  0  0  0  0  0  0  0  0  0  0
   27.9812    7.5211   50.3878 H   0  0  0  0  0  0  0  0  0  0  0  0
   28.3081    9.3820   49.4777 C   0  0  0  0  0  0  0  0  0  0  0  0
   28.4517   10.7313   49.5891 C   0  0  0  0  0  0  0  0  0  0  0  0
   28.7300   11.4826   48.4497 C   0  0  0  0  0  0  0  0  0  0  0  0
   28.8545   10.8584   47.2481 C   0  0  0  0  0  0  0  0  0  0  0  0
   28.7128    9.4850   47.1148 C   0  0  0  0  0  0  0  0  0  0  0  0
   28.9015    8.6800   45.3997 Br  0  0  0  0  0  0  0  0  0  0  0  0
   28.4415    8.7462   48.2172 C   0  0  0  0  0  0  0  0  0  0  0  0
   28.6856    9.3648   57.5044 N   0  0  0  0  0  0  0  0  0  0  0  0
   29.6213    8.8664   57.3129 H   0  0  0  0  0  0  0  0  0  0  0  0
   28.6598   10.1046   58.6945 C   0  0  0  0  0  0  0  0  0  0  0  0
   28.5202   11.4705   58.6730 C   0  0  0  0  0  0  0  0  0  0  0  0
   28.4654   12.2419   59.8308 C   0  0  0  0  0  0  0  0  0  0  0  0
   28.5573   11.5903   61.0261 C   0  0  0  0  0  0  0  0  0  0  0  0
   28.6981   10.2214   61.0563 C   0  0  0  0  0  0  0  0  0  0  0  0
   28.7522    9.4558   59.9137 C   0  0  0  0  0  0  0  0  0  0  0  0
   28.3209   13.6414   59.7663 O   0  0  0  0  0  0  0  0  0  0  0  0
   29.2036   14.4708   60.4872 C   0  0  0  0  0  0  0  0  0  0  0  0
   24.0280    9.4081   56.1149 O   0  0  0  0  0  0  0  0  0  0  0  0
   21.1476    9.7412   53.8904 C   0  0  0  0  0  0  0  0  0  0  0  0
   20.9910    8.4995   53.4295 N   0  0  0  0  0  0  0  0  0  0  0  0
   21.8203    7.5161   53.8305 C   0  0  0  0  0  0  0  0  0  0  0  0
   22.8475    7.8054   54.7340 C   0  0  0  0  0  0  0  0  0  0  0  0
   23.0223    9.0835   55.2193 C   0  0  0  0  0  0  0  0  0  0  0  0
   22.1573   10.0688   54.7901 C   0  0  0  0  0  0  0  0  0  0  0  0
 31 32  2  0  0  0
 32 33  1  0  0  0
 33 34  2  0  0  0
 34 35  1  0  0  0
 35 30  1  0  0  0
 30  1  1  0  0  0
  1  2  2  0  0  0
  2  3  1  0  0  0
  3  7  1  0  0  0
  7  8  1  0  0  0
  8  9  2  0  0  0
  8 10  1  0  0  0
 10 13  1  0  0  0
 13 14  2  0  0  0
 14 15  1  0  0  0
 15 16  2  0  0  0
 16 17  1  0  0  0
 17 18  1  0  0  0
 17 19  2  0  0  0
  3  4  2  0  0  0
  4  5  1  0  0  0
  5 20  1  0  0  0
 20 22  1  0  0  0
 22 23  2  0  0  0
 23 24  1  0  0  0
 24 28  1  0  0  0
 28 29  1  0  0  0
 24 25  2  0  0  0
 25 26  1  0  0  0
 26 27  2  0  0  0
  5  6  2  0  0  0
 35 36  2  0  0  0
 36 31  1  0  0  0
  6  1  1  0  0  0
 19 13  1  0  0  0
 27 22  1  0  0  0
  7 11  1  0  0  0
 10 12  1  0  0  0
 20 21  1  0  0  0
M  END
> <minimizedAffinity>
19.35172

> <CNNscore>
0.6322512627

> <CNNaffinity>
6.7100968361

> <CNN_VS>
4.2424674034

> <CNNaffinity_variance>
0.0648612976

$$$$
[H]c1nc([H])c([H])c(Oc2c([H])c(N([H])C(=O)N([H])c3c([H])c([H])c([H])c(Br)c3[H])c([H])c(N([H])c3c([H])c([H])c([H])c(OC([H])([H])[H])c3[H])c2[H])c1[H]


 36 39  0  0  0  0  0  0  0  0999 V2000
   27.1830    9.6453   56.1737 C   0  0  0  0  0  0  0  0  0  0  0  0
   27.8106    9.3136   55.0143 C   0  0  0  0  0  0  0  0  0  0  0  0
   27.1341    8.5763   54.0072 C   0  0  0  0  0  0  0  0  0  0  0  0
   25.8396    8.2409   54.2999 C   0  0  0  0  0  0  0  0  0  0  0  0
   25.1735    8.5692   55.4820 C   0  0  0  0  0  0  0  0  0  0  0  0
   25.8727    9.2827   56.4199 C   0  0  0  0  0  0  0  0  0  0  0  0
   27.8560    8.2504   52.8488 N   0  0  0  0  0  0  0  0  0  0  0  0
   27.8328    8.9981   51.6561 C   0  0  0  0  0  0  0  0  0  0  0  0
   27.1501   10.0346   51.5649 O   0  0  0  0  0  0  0  0  0  0  0  0
   28.5895    8.5905   50.5195 N   0  0  0  0  0  0  0  0  0  0  0  0
   28.4690    7.3781   52.8515 H   0  0  0  0  0  0  0  0  0  0  0  0
   29.1762    7.7018   50.5699 H   0  0  0  0  0  0  0  0  0  0  0  0
   28.6313    9.2824   49.3040 C   0  0  0  0  0  0  0  0  0  0  0  0
   28.6220   10.6424   49.2409 C   0  0  0  0  0  0  0  0  0  0  0  0
   28.6313   11.2661   47.9954 C   0  0  0  0  0  0  0  0  0  0  0  0
   28.6507   10.5092   46.8660 C   0  0  0  0  0  0  0  0  0  0  0  0
   28.6615    9.1228   46.9100 C   0  0  0  0  0  0  0  0  0  0  0  0
   28.6892    8.1284   45.2866 Br  0  0  0  0  0  0  0  0  0  0  0  0
   28.6520    8.5075   48.1166 C   0  0  0  0  0  0  0  0  0  0  0  0
   23.8200    8.1684   55.6071 N   0  0  0  0  0  0  0  0  0  0  0  0
   23.4325    8.0029   56.5986 H   0  0  0  0  0  0  0  0  0  0  0  0
   22.8896    7.9529   54.5814 C   0  0  0  0  0  0  0  0  0  0  0  0
   22.5690    8.9542   53.6981 C   0  0  0  0  0  0  0  0  0  0  0  0
   21.6691    8.7769   52.6506 C   0  0  0  0  0  0  0  0  0  0  0  0
   21.0933    7.5473   52.5168 C   0  0  0  0  0  0  0  0  0  0  0  0
   21.4087    6.5384   53.3985 C   0  0  0  0  0  0  0  0  0  0  0  0
   22.2981    6.7100   54.4348 C   0  0  0  0  0  0  0  0  0  0  0  0
   21.3672    9.8297   51.7650 O   0  0  0  0  0  0  0  0  0  0  0  0
   21.5414   11.1657   52.1796 C   0  0  0  0  0  0  0  0  0  0  0  0
   27.8625   10.3744   57.1619 O   0  0  0  0  0  0  0  0  0  0  0  0
   29.4959    9.9108   60.3981 C   0  0  0  0  0  0  0  0  0  0  0  0
   29.4947    8.5844   60.5371 N   0  0  0  0  0  0  0  0  0  0  0  0
   28.9610    7.8012   59.5793 C   0  0  0  0  0  0  0  0  0  0  0  0
   28.4077    8.3881   58.4372 C   0  0  0  0  0  0  0  0  0  0  0  0
   28.4013    9.7571   58.2789 C   0  0  0  0  0  0  0  0  0  0  0  0
   28.9550   10.5324   59.2767 C   0  0  0  0  0  0  0  0  0  0  0  0
 31 32  2  0  0  0
 32 33  1  0  0  0
 33 34  2  0  0  0
 34 35  1  0  0  0
 35 30  1  0  0  0
 30  1  1  0  0  0
  1  2  2  0  0  0
  2  3  1  0  0  0
  3  7  1  0  0  0
  7  8  1  0  0  0
  8  9  2  0  0  0
  8 10  1  0  0  0
 10 13  1  0  0  0
 13 14  2  0  0  0
 14 15  1  0  0  0
 15 16  2  0  0  0
 16 17  1  0  0  0
 17 18  1  0  0  0
 17 19  2  0  0  0
  3  4  2  0  0  0
  4  5  1  0  0  0
  5 20  1  0  0  0
 20 22  1  0  0  0
 22 23  2  0  0  0
 23 24  1  0  0  0
 24 28  1  0  0  0
 28 29  1  0  0  0
 24 25  2  0  0  0
 25 26  1  0  0  0
 26 27  2  0  0  0
  5  6  2  0  0  0
 35 36  2  0  0  0
 36 31  1  0  0  0
  6  1  1  0  0  0
 19 13  1  0  0  0
 27 22  1  0  0  0
  7 11  1  0  0  0
 10 12  1  0  0  0
 20 21  1  0  0  0
M  END
> <minimizedAffinity>
22.46832

> <CNNscore>
0.6202008128

> <CNNaffinity>
6.5007591248

> <CNN_VS>
4.0317759514

> <CNNaffinity_variance>
0.1344564110

$$$$
[H]c1nc([H])c([H])c(Oc2c([H])c(N([H])C(=O)N([H])c3c([H])c([H])c([H])c(Br)c3[H])c([H])c(N([H])c3c([H])c([H])c([H])c(OC([H])([H])[H])c3[H])c2[H])c1[H]


 36 39  0  0  0  0  0  0  0  0999 V2000
   27.4452    9.3906   52.1308 C   0  0  0  0  0  0  0  0  0  0  0  0
   28.1784    9.3646   53.2754 C   0  0  0  0  0  0  0  0  0  0  0  0
   27.7436    8.6149   54.3998 C   0  0  0  0  0  0  0  0  0  0  0  0
   26.5611    7.9457   54.2330 C   0  0  0  0  0  0  0  0  0  0  0  0
   25.7905    7.9566   53.0690 C   0  0  0  0  0  0  0  0  0  0  0  0
   26.2569    8.6955   52.0134 C   0  0  0  0  0  0  0  0  0  0  0  0
   28.5415    8.6571   55.5534 N   0  0  0  0  0  0  0  0  0  0  0  0
   28.2165    9.3686   56.7240 C   0  0  0  0  0  0  0  0  0  0  0  0
   27.1573   10.0170   56.8043 O   0  0  0  0  0  0  0  0  0  0  0  0
   29.0897    9.3673   57.8501 N   0  0  0  0  0  0  0  0  0  0  0  0
   29.4630    8.1211   55.5631 H   0  0  0  0  0  0  0  0  0  0  0  0
   30.0069    8.8257   57.8032 H   0  0  0  0  0  0  0  0  0  0  0  0
   28.8355   10.0359   59.0526 C   0  0  0  0  0  0  0  0  0  0  0  0
   28.4336    9.3821   60.1771 C   0  0  0  0  0  0  0  0  0  0  0  0
   28.1654   10.1145   61.3313 C   0  0  0  0  0  0  0  0  0  0  0  0
   28.3098   11.4665   61.3168 C   0  0  0  0  0  0  0  0  0  0  0  0
   28.7191   12.1502   60.1814 C   0  0  0  0  0  0  0  0  0  0  0  0
   28.8999   14.0448   60.2358 Br  0  0  0  0  0  0  0  0  0  0  0  0
   28.9817   11.4465   59.0542 C   0  0  0  0  0  0  0  0  0  0  0  0
   24.6055    7.1795   53.0577 N   0  0  0  0  0  0  0  0  0  0  0  0
   24.6614    6.1800   52.6596 H   0  0  0  0  0  0  0  0  0  0  0  0
   23.3315    7.5490   53.5101 C   0  0  0  0  0  0  0  0  0  0  0  0
   22.8762    8.8360   53.3617 C   0  0  0  0  0  0  0  0  0  0  0  0
   21.6095    9.2407   53.7743 C   0  0  0  0  0  0  0  0  0  0  0  0
   20.8045    8.3006   54.3486 C   0  0  0  0  0  0  0  0  0  0  0  0
   21.2535    7.0085   54.5016 C   0  0  0  0  0  0  0  0  0  0  0  0
   22.5050    6.6050   54.0946 C   0  0  0  0  0  0  0  0  0  0  0  0
   21.1794   10.5710   53.6036 O   0  0  0  0  0  0  0  0  0  0  0  0
   21.6490   11.3240   52.5084 C   0  0  0  0  0  0  0  0  0  0  0  0
   27.8855   10.1356   51.0260 O   0  0  0  0  0  0  0  0  0  0  0  0
   29.0553    7.6484   48.6172 C   0  0  0  0  0  0  0  0  0  0  0  0
   28.8653    8.2631   47.4490 N   0  0  0  0  0  0  0  0  0  0  0  0
   28.3499    9.5075   47.4118 C   0  0  0  0  0  0  0  0  0  0  0  0
   28.0149   10.1516   48.6068 C   0  0  0  0  0  0  0  0  0  0  0  0
   28.2052    9.5297   49.8219 C   0  0  0  0  0  0  0  0  0  0  0  0
   28.7347    8.2557   49.8275 C   0  0  0  0  0  0  0  0  0  0  0  0
 31 32  2  0  0  0
 32 33  1  0  0  0
 33 34  2  0  0  0
 34 35  1  0  0  0
 35 30  1  0  0  0
 30  1  1  0  0  0
  1  2  2  0  0  0
  2  3  1  0  0  0
  3  7  1  0  0  0
  7  8  1  0  0  0
  8  9  2  0  0  0
  8 10  1  0  0  0
 10 13  1  0  0  0
 13 14  2  0  0  0
 14 15  1  0  0  0
 15 16  2  0  0  0
 16 17  1  0  0  0
 17 18  1  0  0  0
 17 19  2  0  0  0
  3  4  2  0  0  0
  4  5  1  0  0  0
  5 20  1  0  0  0
 20 22  1  0  0  0
 22 23  2  0  0  0
 23 24  1  0  0  0
 24 28  1  0  0  0
 28 29  1  0  0  0
 24 25  2  0  0  0
 25 26  1  0  0  0
 26 27  2  0  0  0
  5  6  2  0  0  0
 35 36  2  0  0  0
 36 31  1  0  0  0
  6  1  1  0  0  0
 19 13  1  0  0  0
 27 22  1  0  0  0
  7 11  1  0  0  0
 10 12  1  0  0  0
 20 21  1  0  0  0
M  END
> <minimizedAffinity>
18.39869

> <CNNscore>
0.5951351523

> <CNNaffinity>
6.2509312630

> <CNN_VS>
3.7201490402

> <CNNaffinity_variance>
0.1076531038

$$$$
[H]c1nc([H])c([H])c(Oc2c([H])c(N([H])C(=O)N([H])c3c([H])c([H])c([H])c(Br)c3[H])c([H])c(N([H])c3c([H])c([H])c([H])c(OC([H])([H])[H])c3[H])c2[H])c1[H]


 36 39  0  0  0  0  0  0  0  0999 V2000
   27.7128    9.0256   56.5785 C   0  0  0  0  0  0  0  0  0  0  0  0
   28.1185    8.6654   55.3319 C   0  0  0  0  0  0  0  0  0  0  0  0
   27.1941    8.6056   54.2561 C   0  0  0  0  0  0  0  0  0  0  0  0
   25.9037    8.9309   54.5770 C   0  0  0  0  0  0  0  0  0  0  0  0
   25.4626    9.3035   55.8480 C   0  0  0  0  0  0  0  0  0  0  0  0
   26.3965    9.3460   56.8498 C   0  0  0  0  0  0  0  0  0  0  0  0
   27.6832    8.2015   53.0044 N   0  0  0  0  0  0  0  0  0  0  0  0
   27.7964    9.0428   51.8813 C   0  0  0  0  0  0  0  0  0  0  0  0
   27.4634   10.2403   51.9438 O   0  0  0  0  0  0  0  0  0  0  0  0
   28.2949    8.5486   50.6413 N   0  0  0  0  0  0  0  0  0  0  0  0
   27.9939    7.1900   52.8743 H   0  0  0  0  0  0  0  0  0  0  0  0
   28.5795    7.5243   50.5600 H   0  0  0  0  0  0  0  0  0  0  0  0
   28.4506    9.3198   49.4842 C   0  0  0  0  0  0  0  0  0  0  0  0
   28.4928   10.6803   49.5175 C   0  0  0  0  0  0  0  0  0  0  0  0
   28.6159   11.3869   48.3234 C   0  0  0  0  0  0  0  0  0  0  0  0
   28.6928   10.7089   47.1472 C   0  0  0  0  0  0  0  0  0  0  0  0
   28.6525    9.3234   47.0932 C   0  0  0  0  0  0  0  0  0  0  0  0
   28.7661    8.4421   45.4093 Br  0  0  0  0  0  0  0  0  0  0  0  0
   28.5324    8.6278   48.2492 C   0  0  0  0  0  0  0  0  0  0  0  0
   24.0939    9.6390   55.9968 N   0  0  0  0  0  0  0  0  0  0  0  0
   23.8217   10.3032   56.8003 H   0  0  0  0  0  0  0  0  0  0  0  0
   23.0140    9.2096   55.2135 C   0  0  0  0  0  0  0  0  0  0  0  0
   22.9786    7.9374   54.6978 C   0  0  0  0  0  0  0  0  0  0  0  0
   21.9153    7.4614   53.9353 C   0  0  0  0  0  0  0  0  0  0  0  0
   20.8758    8.3142   53.7033 C   0  0  0  0  0  0  0  0  0  0  0  0
   20.9037    9.5913   54.2162 C   0  0  0  0  0  0  0  0  0  0  0  0
   21.9531   10.0649   54.9706 C   0  0  0  0  0  0  0  0  0  0  0  0
   21.9167    6.1488   53.4245 O   0  0  0  0  0  0  0  0  0  0  0  0
   23.1063    5.3927   53.4393 C   0  0  0  0  0  0  0  0  0  0  0  0
   28.6362    9.0809   57.6340 O   0  0  0  0  0  0  0  0  0  0  0  0
   28.9375   10.8682   60.8075 C   0  0  0  0  0  0  0  0  0  0  0  0
   28.5925   12.1126   60.4743 N   0  0  0  0  0  0  0  0  0  0  0  0
   28.2511   12.4063   59.2044 C   0  0  0  0  0  0  0  0  0  0  0  0
   28.2607   11.3972   58.2365 C   0  0  0  0  0  0  0  0  0  0  0  0
   28.6149   10.1065   58.5650 C   0  0  0  0  0  0  0  0  0  0  0  0
   28.9594    9.8369   59.8735 C   0  0  0  0  0  0  0  0  0  0  0  0
 31 32  2  0  0  0
 32 33  1  0  0  0
 33 34  2  0  0  0
 34 35  1  0  0  0
 35 30  1  0  0  0
 30  1  1  0  0  0
  1  2  2  0  0  0
  2  3  1  0  0  0
  3  7  1  0  0  0
  7  8  1  0  0  0
  8  9  2  0  0  0
  8 10  1  0  0  0
 10 13  1  0  0  0
 13 14  2  0  0  0
 14 15  1  0  0  0
 15 16  2  0  0  0
 16 17  1  0  0  0
 17 18  1  0  0  0
 17 19  2  0  0  0
  3  4  2  0  0  0
  4  5  1  0  0  0
  5 20  1  0  0  0
 20 22  1  0  0  0
 22 23  2  0  0  0
 23 24  1  0  0  0
 24 28  1  0  0  0
 28 29  1  0  0  0
 24 25  2  0  0  0
 25 26  1  0  0  0
 26 27  2  0  0  0
  5  6  2  0  0  0
 35 36  2  0  0  0
 36 31  1  0  0  0
  6  1  1  0  0  0
 19 13  1  0  0  0
 27 22  1  0  0  0
  7 11  1  0  0  0
 10 12  1  0  0  0
 20 21  1  0  0  0
M  END
> <minimizedAffinity>
21.36189

> <CNNscore>
0.5950667858

> <CNNaffinity>
6.3004336357

> <CNN_VS>
3.7491788864

> <CNNaffinity_variance>
0.4229584336

$$$$
[H]c1nc([H])c([H])c(Oc2c([H])c(N([H])C(=O)N([H])c3c([H])c([H])c([H])c(Br)c3[H])c([H])c(N([H])c3c([H])c([H])c([H])c(OC([H])([H])[H])c3[H])c2[H])c1[H]


 36 39  0  0  0  0  0  0  0  0999 V2000
   24.4143    7.4193   53.5996 C   0  0  0  0  0  0  0  0  0  0  0  0
   23.6288    6.3128   53.5165 C   0  0  0  0  0  0  0  0  0  0  0  0
   22.2142    6.4271   53.4806 C   0  0  0  0  0  0  0  0  0  0  0  0
   21.7307    7.7066   53.5365 C   0  0  0  0  0  0  0  0  0  0  0  0
   22.5157    8.8578   53.6221 C   0  0  0  0  0  0  0  0  0  0  0  0
   23.8754    8.6904   53.6523 C   0  0  0  0  0  0  0  0  0  0  0  0
   21.4703    5.2388   53.4195 N   0  0  0  0  0  0  0  0  0  0  0  0
   20.1006    5.1369   53.7288 C   0  0  0  0  0  0  0  0  0  0  0  0
   19.4484    6.1374   54.0786 O   0  0  0  0  0  0  0  0  0  0  0  0
   19.4216    3.8866   53.6506 N   0  0  0  0  0  0  0  0  0  0  0  0
   21.9590    4.3391   53.1222 H   0  0  0  0  0  0  0  0  0  0  0  0
   19.9602    3.0132   53.3609 H   0  0  0  0  0  0  0  0  0  0  0  0
   18.0625    3.7026   53.9279 C   0  0  0  0  0  0  0  0  0  0  0  0
   17.1248    3.6180   52.9444 C   0  0  0  0  0  0  0  0  0  0  0  0
   15.7844    3.4684   53.2929 C   0  0  0  0  0  0  0  0  0  0  0  0
   15.4350    3.4083   54.6056 C   0  0  0  0  0  0  0  0  0  0  0  0
   16.3758    3.4916   55.6215 C   0  0  0  0  0  0  0  0  0  0  0  0
   15.8124    3.3992   57.4378 Br  0  0  0  0  0  0  0  0  0  0  0  0
   17.6815    3.6377   55.2923 C   0  0  0  0  0  0  0  0  0  0  0  0
   21.8493   10.1083   53.6388 N   0  0  0  0  0  0  0  0  0  0  0  0
   21.5243   10.4941   54.5908 H   0  0  0  0  0  0  0  0  0  0  0  0
   21.5483   10.9360   52.5486 C   0  0  0  0  0  0  0  0  0  0  0  0
   21.6783   12.2998   52.6413 C   0  0  0  0  0  0  0  0  0  0  0  0
   21.4136   13.1572   51.5767 C   0  0  0  0  0  0  0  0  0  0  0  0
   21.0083   12.5950   50.4015 C   0  0  0  0  0  0  0  0  0  0  0  0
   20.8748   11.2287   50.3004 C   0  0  0  0  0  0  0  0  0  0  0  0
   21.1360   10.3782   51.3507 C   0  0  0  0  0  0  0  0  0  0  0  0
   21.5597   14.5516   51.7121 O   0  0  0  0  0  0  0  0  0  0  0  0
   20.5071   15.4068   51.3281 C   0  0  0  0  0  0  0  0  0  0  0  0
   25.8117    7.2932   53.6344 O   0  0  0  0  0  0  0  0  0  0  0  0
   28.6981    9.0464   55.0313 C   0  0  0  0  0  0  0  0  0  0  0  0
   28.1984    9.5906   56.1416 N   0  0  0  0  0  0  0  0  0  0  0  0
   26.9048    9.4019   56.4682 C   0  0  0  0  0  0  0  0  0  0  0  0
   26.0882    8.6313   55.6350 C   0  0  0  0  0  0  0  0  0  0  0  0
   26.5896    8.0624   54.4842 C   0  0  0  0  0  0  0  0  0  0  0  0
   27.9179    8.2736   54.1767 C   0  0  0  0  0  0  0  0  0  0  0  0
 31 32  2  0  0  0
 32 33  1  0  0  0
 33 34  2  0  0  0
 34 35  1  0  0  0
 35 30  1  0  0  0
 30  1  1  0  0  0
  1  2  2  0  0  0
  2  3  1  0  0  0
  3  7  1  0  0  0
  7  8  1  0  0  0
  8  9  2  0  0  0
  8 10  1  0  0  0
 10 13  1  0  0  0
 13 14  2  0  0  0
 14 15  1  0  0  0
 15 16  2  0  0  0
 16 17  1  0  0  0
 17 18  1  0  0  0
 17 19  2  0  0  0
  3  4  2  0  0  0
  4  5  1  0  0  0
  5 20  1  0  0  0
 20 22  1  0  0  0
 22 23  2  0  0  0
 23 24  1  0  0  0
 24 28  1  0  0  0
 28 29  1  0  0  0
 24 25  2  0  0  0
 25 26  1  0  0  0
 26 27  2  0  0  0
  5  6  2  0  0  0
 35 36  2  0  0  0
 36 31  1  0  0  0
  6  1  1  0  0  0
 19 13  1  0  0  0
 27 22  1  0  0  0
  7 11  1  0  0  0
 10 12  1  0  0  0
 20 21  1  0  0  0
M  END
> <minimizedAffinity>
24.61095

> <CNNscore>
0.5562147498

> <CNNaffinity>
6.6967163086

> <CNN_VS>
3.7248122692

> <CNNaffinity_variance>
0.1116764396

$$$$
[H]c1nc([H])c([H])c(Oc2c([H])c(N([H])C(=O)N([H])c3c([H])c([H])c([H])c(Br)c3[H])c([H])c(N([H])c3c([H])c([H])c([H])c(OC([H])([H])[H])c3[H])c2[H])c1[H]


 36 39  0  0  0  0  0  0  0  0999 V2000
   23.6218    7.2950   53.6136 C   0  0  0  0  0  0  0  0  0  0  0  0
   23.5108    8.3798   52.8017 C   0  0  0  0  0  0  0  0  0  0  0  0
   22.2359    8.8754   52.4219 C   0  0  0  0  0  0  0  0  0  0  0  0
   21.1673    8.1858   52.9283 C   0  0  0  0  0  0  0  0  0  0  0  0
   21.2551    7.0702   53.7629 C   0  0  0  0  0  0  0  0  0  0  0  0
   22.5099    6.6343   54.0994 C   0  0  0  0  0  0  0  0  0  0  0  0
   22.2025    9.9836   51.5616 N   0  0  0  0  0  0  0  0  0  0  0  0
   21.7009   11.2517   51.9114 C   0  0  0  0  0  0  0  0  0  0  0  0
   21.2502   11.4685   53.0510 O   0  0  0  0  0  0  0  0  0  0  0  0
   21.6944   12.3232   50.9720 N   0  0  0  0  0  0  0  0  0  0  0  0
   22.5766    9.8774   50.5690 H   0  0  0  0  0  0  0  0  0  0  0  0
   22.0679   12.1605   49.9867 H   0  0  0  0  0  0  0  0  0  0  0  0
   21.2268   13.6138   51.2431 C   0  0  0  0  0  0  0  0  0  0  0  0
   21.7292   14.7149   50.6194 C   0  0  0  0  0  0  0  0  0  0  0  0
   21.2406   15.9736   50.9622 C   0  0  0  0  0  0  0  0  0  0  0  0
   20.2720   16.0821   51.9103 C   0  0  0  0  0  0  0  0  0  0  0  0
   19.7471   14.9721   52.5558 C   0  0  0  0  0  0  0  0  0  0  0  0
   18.3916   15.2011   53.8730 Br  0  0  0  0  0  0  0  0  0  0  0  0
   20.2164   13.7442   52.2295 C   0  0  0  0  0  0  0  0  0  0  0  0
   20.0438    6.4957   54.2222 N   0  0  0  0  0  0  0  0  0  0  0  0
   19.4522    7.0598   54.9240 H   0  0  0  0  0  0  0  0  0  0  0  0
   19.4957    5.2538   53.8739 C   0  0  0  0  0  0  0  0  0  0  0  0
   18.1839    4.9587   54.1525 C   0  0  0  0  0  0  0  0  0  0  0  0
   17.5921    3.7478   53.8031 C   0  0  0  0  0  0  0  0  0  0  0  0
   18.3691    2.8306   53.1577 C   0  0  0  0  0  0  0  0  0  0  0  0
   19.6852    3.1183   52.8753 C   0  0  0  0  0  0  0  0  0  0  0  0
   20.2733    4.3145   53.2189 C   0  0  0  0  0  0  0  0  0  0  0  0
   16.2422    3.4836   54.1065 O   0  0  0  0  0  0  0  0  0  0  0  0
   15.3947    2.9440   53.1178 C   0  0  0  0  0  0  0  0  0  0  0  0
   24.8879    6.8144   53.9821 O   0  0  0  0  0  0  0  0  0  0  0  0
   26.6699    9.2767   56.0113 C   0  0  0  0  0  0  0  0  0  0  0  0
   27.8392    9.3833   55.3789 N   0  0  0  0  0  0  0  0  0  0  0  0
   28.0817    8.6551   54.2714 C   0  0  0  0  0  0  0  0  0  0  0  0
   27.0988    7.7859   53.7883 C   0  0  0  0  0  0  0  0  0  0  0  0
   25.8855    7.6645   54.4306 C   0  0  0  0  0  0  0  0  0  0  0  0
   25.6669    8.4232   55.5620 C   0  0  0  0  0  0  0  0  0  0  0  0
 31 32  2  0  0  0
 32 33  1  0  0  0
 33 34  2  0  0  0
 34 35  1  0  0  0
 35 30  1  0  0  0
 30  1  1  0  0  0
  1  2  2  0  0  0
  2  3  1  0  0  0
  3  7  1  0  0  0
  7  8  1  0  0  0
  8  9  2  0  0  0
  8 10  1  0  0  0
 10 13  1  0  0  0
 13 14  2  0  0  0
 14 15  1  0  0  0
 15 16  2  0  0  0
 16 17  1  0  0  0
 17 18  1  0  0  0
 17 19  2  0  0  0
  3  4  2  0  0  0
  4  5  1  0  0  0
  5 20  1  0  0  0
 20 22  1  0  0  0
 22 23  2  0  0  0
 23 24  1  0  0  0
 24 28  1  0  0  0
 28 29  1  0  0  0
 24 25  2  0  0  0
 25 26  1  0  0  0
 26 27  2  0  0  0
  5  6  2  0  0  0
 35 36  2  0  0  0
 36 31  1  0  0  0
  6  1  1  0  0  0
 19 13  1  0  0  0
 27 22  1  0  0  0
  7 11  1  0  0  0
 10 12  1  0  0  0
 20 21  1  0  0  0
M  END
> <minimizedAffinity>
29.59577

> <CNNscore>
0.5547373891

> <CNNaffinity>
6.5332632065

> <CNN_VS>
3.6242454052

> <CNNaffinity_variance>
0.5795403719

$$$$
[H]c1nc([H])c([H])c(Oc2c([H])c(N([H])C(=O)N([H])c3c([H])c([H])c([H])c(Br)c3[H])c([H])c(N([H])c3c([H])c([H])c([H])c(OC([H])([H])[H])c3[H])c2[H])c1[H]


 36 39  0  0  0  0  0  0  0  0999 V2000
   22.2585    8.6305   53.7160 C   0  0  0  0  0  0  0  0  0  0  0  0
   21.5570    7.4676   53.6553 C   0  0  0  0  0  0  0  0  0  0  0  0
   22.2251    6.2226   53.5170 C   0  0  0  0  0  0  0  0  0  0  0  0
   23.5905    6.2973   53.4517 C   0  0  0  0  0  0  0  0  0  0  0  0
   24.3331    7.4778   53.5117 C   0  0  0  0  0  0  0  0  0  0  0  0
   23.6382    8.6512   53.6465 C   0  0  0  0  0  0  0  0  0  0  0  0
   21.4318    5.0679   53.4364 N   0  0  0  0  0  0  0  0  0  0  0  0
   20.0637    5.0141   53.7642 C   0  0  0  0  0  0  0  0  0  0  0  0
   19.4586    6.0308   54.1501 O   0  0  0  0  0  0  0  0  0  0  0  0
   19.3322    3.7952   53.6638 N   0  0  0  0  0  0  0  0  0  0  0  0
   21.8784    4.1572   53.1081 H   0  0  0  0  0  0  0  0  0  0  0  0
   19.8299    2.9086   53.3430 H   0  0  0  0  0  0  0  0  0  0  0  0
   17.9709    3.6599   53.9573 C   0  0  0  0  0  0  0  0  0  0  0  0
   17.0179    3.6226   52.9856 C   0  0  0  0  0  0  0  0  0  0  0  0
   15.6774    3.5201   53.3504 C   0  0  0  0  0  0  0  0  0  0  0  0
   15.3431    3.4579   54.6670 C   0  0  0  0  0  0  0  0  0  0  0  0
   16.2996    3.4934   55.6710 C   0  0  0  0  0  0  0  0  0  0  0  0
   15.7567    3.4012   57.4936 Br  0  0  0  0  0  0  0  0  0  0  0  0
   17.6055    3.5935   55.3259 C   0  0  0  0  0  0  0  0  0  0  0  0
   25.7452    7.3696   53.4609 N   0  0  0  0  0  0  0  0  0  0  0  0
   26.1715    6.6393   52.7936 H   0  0  0  0  0  0  0  0  0  0  0  0
   26.6900    8.1096   54.1849 C   0  0  0  0  0  0  0  0  0  0  0  0
   26.4964    8.3915   55.5148 C   0  0  0  0  0  0  0  0  0  0  0  0
   27.4193    9.1019   56.2778 C   0  0  0  0  0  0  0  0  0  0  0  0
   28.5568    9.5264   55.6551 C   0  0  0  0  0  0  0  0  0  0  0  0
   28.7582    9.2485   54.3221 C   0  0  0  0  0  0  0  0  0  0  0  0
   27.8481    8.5461   53.5651 C   0  0  0  0  0  0  0  0  0  0  0  0
   27.1837    9.3703   57.6402 O   0  0  0  0  0  0  0  0  0  0  0  0
   28.1924    9.1104   58.5900 C   0  0  0  0  0  0  0  0  0  0  0  0
   21.5865    9.8551   53.8527 O   0  0  0  0  0  0  0  0  0  0  0  0
   21.7293   13.0052   52.0053 C   0  0  0  0  0  0  0  0  0  0  0  0
   21.3903   12.6335   50.7702 N   0  0  0  0  0  0  0  0  0  0  0  0
   21.1049   11.3441   50.5026 C   0  0  0  0  0  0  0  0  0  0  0  0
   21.1663   10.3966   51.5291 C   0  0  0  0  0  0  0  0  0  0  0  0
   21.5150   10.7649   52.8105 C   0  0  0  0  0  0  0  0  0  0  0  0
   21.8016   12.0924   53.0532 C   0  0  0  0  0  0  0  0  0  0  0  0
 31 32  2  0  0  0
 32 33  1  0  0  0
 33 34  2  0  0  0
 34 35  1  0  0  0
 35 30  1  0  0  0
 30  1  1  0  0  0
  1  2  2  0  0  0
  2  3  1  0  0  0
  3  7  1  0  0  0
  7  8  1  0  0  0
  8  9  2  0  0  0
  8 10  1  0  0  0
 10 13  1  0  0  0
 13 14  2  0  0  0
 14 15  1  0  0  0
 15 16  2  0  0  0
 16 17  1  0  0  0
 17 18  1  0  0  0
 17 19  2  0  0  0
  3  4  2  0  0  0
  4  5  1  0  0  0
  5 20  1  0  0  0
 20 22  1  0  0  0
 22 23  2  0  0  0
 23 24  1  0  0  0
 24 28  1  0  0  0
 28 29  1  0  0  0
 24 25  2  0  0  0
 25 26  1  0  0  0
 26 27  2  0  0  0
  5  6  2  0  0  0
 35 36  2  0  0  0
 36 31  1  0  0  0
  6  1  1  0  0  0
 19 13  1  0  0  0
 27 22  1  0  0  0
  7 11  1  0  0  0
 10 12  1  0  0  0
 20 21  1  0  0  0
M  END
> <minimizedAffinity>
23.55320

> <CNNscore>
0.5383406878

> <CNNaffinity>
6.4502868652

> <CNN_VS>
3.4724519253

> <CNNaffinity_variance>
0.0564520285

$$$$
[H]OC([H])([H])c1nc(-c2c([H])c([H])c([H])c(S(=O)(=O)N([H])C(=O)[C@@]([H])(N([H])[H])C([H])([H])C([H])([H])[H])c2[H])c([H])c(N([H])[H])n1


 31 32  0  0  0  0  0  0  0  0999 V2000
   22.0488    8.6263   53.5414 C   0  0  0  0  0  0  0  0  0  0  0  0
   21.2754    9.3688   54.4132 C   0  0  0  0  0  0  0  0  0  0  0  0
   21.8455    9.9813   55.5067 C   0  0  0  0  0  0  0  0  0  0  0  0
   23.2297    9.8443   55.7304 C   0  0  0  0  0  0  0  0  0  0  0  0
   24.0133    9.1174   54.8860 C   0  0  0  0  0  0  0  0  0  0  0  0
   23.4145    8.5088   53.7879 C   0  0  0  0  0  0  0  0  0  0  0  0
   25.4283    8.9395   55.1073 C   0  0  0  0  0  0  0  0  0  0  0  0
   26.2518    8.2312   54.2788 C   0  0  0  0  0  0  0  0  0  0  0  0
   27.6136    8.0954   54.5074 C   0  0  0  0  0  0  0  0  0  0  0  0
   28.4232    7.3616   53.6254 N   0  0  0  0  0  0  0  0  0  0  0  0
   28.1387    8.6877   55.5921 N   0  0  0  0  0  0  0  0  0  0  0  0
   27.3451    9.4043   56.4436 C   0  0  0  0  0  0  0  0  0  0  0  0
   26.0463    9.5106   56.1892 N   0  0  0  0  0  0  0  0  0  0  0  0
   28.9771    6.5572   53.9625 H   0  0  0  0  0  0  0  0  0  0  0  0
   28.4729    7.6204   52.6243 H   0  0  0  0  0  0  0  0  0  0  0  0
   27.9455   10.0599   57.6574 C   0  0  0  0  0  0  0  0  0  0  0  0
   28.3972    9.1147   58.5448 O   0  0  0  0  0  0  0  0  0  0  0  0
   28.8302    8.3903   58.0402 H   0  0  0  0  0  0  0  0  0  0  0  0
   21.2925    7.8364   52.1859 S   0  0  0  0  0  0  0  0  0  0  0  0
   20.4733    8.8772   51.4328 O   0  0  0  0  0  0  0  0  0  0  0  0
   22.3085    7.2265   51.2616 O   0  0  0  0  0  0  0  0  0  0  0  0
   20.5574    5.5270   53.4813 C   0  0  0  0  0  0  0  0  0  0  0  0
   21.7784    5.3731   53.7323 O   0  0  0  0  0  0  0  0  0  0  0  0
   20.1612    6.6635   52.7463 N   0  0  0  0  0  0  0  0  0  0  0  0
   19.1544    6.7946   52.5384 H   0  0  0  0  0  0  0  0  0  0  0  0
   19.6090    4.5152   53.9655 C   0  0  0  0  0  0  0  0  0  0  0  0
   18.2653    5.0051   53.8538 N   0  0  0  0  0  0  0  0  0  0  0  0
   18.1280    5.9128   54.3435 H   0  0  0  0  0  0  0  0  0  0  0  0
   17.5420    4.2882   54.0606 H   0  0  0  0  0  0  0  0  0  0  0  0
   18.5195    2.7559   52.6327 C   0  0  0  0  0  0  0  0  0  0  0  0
   19.8230    3.2403   53.1778 C   0  0  0  0  0  0  0  0  0  0  0  0
 30 31  1  0  0  0
 31 26  1  0  0  0
 26 27  1  0  0  0
 26 22  1  0  0  0
 22 23  2  0  0  0
 22 24  1  0  0  0
 24 19  1  0  0  0
 19 20  2  0  0  0
 19 21  2  0  0  0
 19  1  1  0  0  0
  1  2  2  0  0  0
  2  3  1  0  0  0
  3  4  2  0  0  0
  4  5  1  0  0  0
  5  6  2  0  0  0
  5  7  1  0  0  0
  7  8  2  0  0  0
  8  9  1  0  0  0
  9 10  1  0  0  0
  9 11  2  0  0  0
 11 12  1  0  0  0
 12 16  1  0  0  0
 16 17  1  0  0  0
 12 13  2  0  0  0
  6  1  1  0  0  0
 13  7  1  0  0  0
 27 28  1  0  0  0
 27 29  1  0  0  0
 24 25  1  0  0  0
 10 14  1  0  0  0
 10 15  1  0  0  0
 17 18  1  0  0  0
M  END
> <minimizedAffinity>
7.78845

> <CNNscore>
0.7239364982

> <CNNaffinity>
6.5136880875

> <CNN_VS>
4.7154965401

> <CNNaffinity_variance>
0.5411354303

$$$$
[H]OC([H])([H])c1nc(-c2c([H])c([H])c([H])c(S(=O)(=O)N([H])C(=O)[C@@]([H])(N([H])[H])C([H])([H])C([H])([H])[H])c2[H])c([H])c(N([H])[H])n1


 31 32  0  0  0  0  0  0  0  0999 V2000
   23.8890    8.5558   55.1635 C   0  0  0  0  0  0  0  0  0  0  0  0
   24.3747    8.0434   53.9756 C   0  0  0  0  0  0  0  0  0  0  0  0
   25.7304    7.9832   53.7417 C   0  0  0  0  0  0  0  0  0  0  0  0
   26.6219    8.4501   54.7275 C   0  0  0  0  0  0  0  0  0  0  0  0
   26.1680    8.9600   55.9062 C   0  0  0  0  0  0  0  0  0  0  0  0
   24.7943    9.0096   56.1196 C   0  0  0  0  0  0  0  0  0  0  0  0
   27.0588    9.4694   56.9209 C   0  0  0  0  0  0  0  0  0  0  0  0
   27.4290   10.7799   57.0299 C   0  0  0  0  0  0  0  0  0  0  0  0
   28.2715   11.2433   58.0303 C   0  0  0  0  0  0  0  0  0  0  0  0
   28.6214   12.6011   58.1067 N   0  0  0  0  0  0  0  0  0  0  0  0
   28.7406   10.3603   58.9265 N   0  0  0  0  0  0  0  0  0  0  0  0
   28.3918    9.0410   58.8485 C   0  0  0  0  0  0  0  0  0  0  0  0
   27.5827    8.6376   57.8760 N   0  0  0  0  0  0  0  0  0  0  0  0
   29.6120   12.8934   58.0772 H   0  0  0  0  0  0  0  0  0  0  0  0
   27.8871   13.3255   58.1933 H   0  0  0  0  0  0  0  0  0  0  0  0
   28.9274    8.0613   59.8571 C   0  0  0  0  0  0  0  0  0  0  0  0
   29.9400    7.3107   59.3127 O   0  0  0  0  0  0  0  0  0  0  0  0
   30.5051    7.8968   58.7613 H   0  0  0  0  0  0  0  0  0  0  0  0
   22.1683    8.6490   55.4157 S   0  0  0  0  0  0  0  0  0  0  0  0
   21.7218    7.3582   56.0911 O   0  0  0  0  0  0  0  0  0  0  0  0
   21.7965    9.8246   56.2750 O   0  0  0  0  0  0  0  0  0  0  0  0
   21.6178    7.7558   52.8758 C   0  0  0  0  0  0  0  0  0  0  0  0
   22.4765    6.8644   53.0886 O   0  0  0  0  0  0  0  0  0  0  0  0
   21.3538    8.6913   53.8977 N   0  0  0  0  0  0  0  0  0  0  0  0
   20.6448    9.4275   53.7264 H   0  0  0  0  0  0  0  0  0  0  0  0
   20.9360    7.7766   51.5749 C   0  0  0  0  0  0  0  0  0  0  0  0
   19.5633    7.3901   51.7311 N   0  0  0  0  0  0  0  0  0  0  0  0
   19.4581    6.4648   52.1951 H   0  0  0  0  0  0  0  0  0  0  0  0
   18.9965    7.5085   50.8682 H   0  0  0  0  0  0  0  0  0  0  0  0
   21.8334   10.0424   51.9206 C   0  0  0  0  0  0  0  0  0  0  0  0
   21.0788    9.1612   50.9798 C   0  0  0  0  0  0  0  0  0  0  0  0
 30 31  1  0  0  0
 31 26  1  0  0  0
 26 27  1  0  0  0
 26 22  1  0  0  0
 22 23  2  0  0  0
 22 24  1  0  0  0
 24 19  1  0  0  0
 19 20  2  0  0  0
 19 21  2  0  0  0
 19  1  1  0  0  0
  1  2  2  0  0  0
  2  3  1  0  0  0
  3  4  2  0  0  0
  4  5  1  0  0  0
  5  6  2  0  0  0
  5  7  1  0  0  0
  7  8  2  0  0  0
  8  9  1  0  0  0
  9 10  1  0  0  0
  9 11  2  0  0  0
 11 12  1  0  0  0
 12 16  1  0  0  0
 16 17  1  0  0  0
 12 13  2  0  0  0
  6  1  1  0  0  0
 13  7  1  0  0  0
 27 28  1  0  0  0
 27 29  1  0  0  0
 24 25  1  0  0  0
 10 14  1  0  0  0
 10 15  1  0  0  0
 17 18  1  0  0  0
M  END
> <minimizedAffinity>
6.66221

> <CNNscore>
0.6717075109

> <CNNaffinity>
6.1186509132

> <CNN_VS>
4.1099438667

> <CNNaffinity_variance>
0.6492450833

$$$$
[H]OC([H])([H])c1nc(-c2c([H])c([H])c([H])c(S(=O)(=O)N([H])C(=O)[C@@]([H])(N([H])[H])C([H])([H])C([H])([H])[H])c2[H])c([H])c(N([H])[H])n1


 31 32  0  0  0  0  0  0  0  0999 V2000
   21.8344    8.5448   53.5255 C   0  0  0  0  0  0  0  0  0  0  0  0
   20.9957    9.1551   54.4385 C   0  0  0  0  0  0  0  0  0  0  0  0
   21.5058    9.7359   55.5781 C   0  0  0  0  0  0  0  0  0  0  0  0
   22.8955    9.7028   55.8064 C   0  0  0  0  0  0  0  0  0  0  0  0
   23.7429    9.1070   54.9220 C   0  0  0  0  0  0  0  0  0  0  0  0
   23.2040    8.5280   53.7778 C   0  0  0  0  0  0  0  0  0  0  0  0
   25.1669    9.0360   55.1454 C   0  0  0  0  0  0  0  0  0  0  0  0
   25.7907    9.4901   56.2728 C   0  0  0  0  0  0  0  0  0  0  0  0
   27.1607    9.3886   56.4677 C   0  0  0  0  0  0  0  0  0  0  0  0
   27.7587    9.8650   57.6456 N   0  0  0  0  0  0  0  0  0  0  0  0
   27.9001    8.8190   55.5023 N   0  0  0  0  0  0  0  0  0  0  0  0
   27.3102    8.3534   54.3605 C   0  0  0  0  0  0  0  0  0  0  0  0
   25.9959    8.4692   54.2126 N   0  0  0  0  0  0  0  0  0  0  0  0
   28.5036   10.5800   57.6076 H   0  0  0  0  0  0  0  0  0  0  0  0
   27.4574    9.5030   58.5674 H   0  0  0  0  0  0  0  0  0  0  0  0
   28.1508    7.7206   53.2850 C   0  0  0  0  0  0  0  0  0  0  0  0
   28.7587    6.5818   53.7527 O   0  0  0  0  0  0  0  0  0  0  0  0
   28.1167    6.0884   54.3106 H   0  0  0  0  0  0  0  0  0  0  0  0
   21.1554    7.7902   52.1103 S   0  0  0  0  0  0  0  0  0  0  0  0
   20.3311    8.8361   51.3699 O   0  0  0  0  0  0  0  0  0  0  0  0
   22.2247    7.2523   51.2014 O   0  0  0  0  0  0  0  0  0  0  0  0
   20.4337    5.4465   53.3504 C   0  0  0  0  0  0  0  0  0  0  0  0
   21.6347    5.3578   53.7068 O   0  0  0  0  0  0  0  0  0  0  0  0
   20.0433    6.5596   52.5775 N   0  0  0  0  0  0  0  0  0  0  0  0
   19.0527    6.6370   52.2827 H   0  0  0  0  0  0  0  0  0  0  0  0
   19.5015    4.3865   53.7567 C   0  0  0  0  0  0  0  0  0  0  0  0
   18.2223    4.9508   54.0778 N   0  0  0  0  0  0  0  0  0  0  0  0
   18.2834    5.6948   54.8026 H   0  0  0  0  0  0  0  0  0  0  0  0
   17.4843    4.2396   54.2489 H   0  0  0  0  0  0  0  0  0  0  0  0
   20.1722    2.1365   53.0173 C   0  0  0  0  0  0  0  0  0  0  0  0
   19.4161    3.3681   52.6399 C   0  0  0  0  0  0  0  0  0  0  0  0
 30 31  1  0  0  0
 31 26  1  0  0  0
 26 27  1  0  0  0
 26 22  1  0  0  0
 22 23  2  0  0  0
 22 24  1  0  0  0
 24 19  1  0  0  0
 19 20  2  0  0  0
 19 21  2  0  0  0
 19  1  1  0  0  0
  1  2  2  0  0  0
  2  3  1  0  0  0
  3  4  2  0  0  0
  4  5  1  0  0  0
  5  6  2  0  0  0
  5  7  1  0  0  0
  7  8  2  0  0  0
  8  9  1  0  0  0
  9 10  1  0  0  0
  9 11  2  0  0  0
 11 12  1  0  0  0
 12 16  1  0  0  0
 16 17  1  0  0  0
 12 13  2  0  0  0
  6  1  1  0  0  0
 13  7  1  0  0  0
 27 28  1  0  0  0
 27 29  1  0  0  0
 24 25  1  0  0  0
 10 14  1  0  0  0
 10 15  1  0  0  0
 17 18  1  0  0  0
M  END
> <minimizedAffinity>
11.32775

> <CNNscore>
0.6715168357

> <CNNaffinity>
6.3469729424

> <CNN_VS>
4.2620992661

> <CNNaffinity_variance>
0.5763184428

$$$$
[H]OC([H])([H])c1nc(-c2c([H])c([H])c([H])c(S(=O)(=O)N([H])C(=O)[C@@]([H])(N([H])[H])C([H])([H])C([H])([H])[H])c2[H])c([H])c(N([H])[H])n1


 31 32  0  0  0  0  0  0  0  0999 V2000
   26.0142    7.8353   54.3528 C   0  0  0  0  0  0  0  0  0  0  0  0
   26.7335    8.2393   53.2442 C   0  0  0  0  0  0  0  0  0  0  0  0
   27.8654    9.0104   53.3871 C   0  0  0  0  0  0  0  0  0  0  0  0
   28.2859    9.3855   54.6783 C   0  0  0  0  0  0  0  0  0  0  0  0
   27.5939    9.0004   55.7865 C   0  0  0  0  0  0  0  0  0  0  0  0
   26.4543    8.2211   55.6165 C   0  0  0  0  0  0  0  0  0  0  0  0
   27.9882    9.3935   57.1180 C   0  0  0  0  0  0  0  0  0  0  0  0
   28.4485    8.5279   58.0694 C   0  0  0  0  0  0  0  0  0  0  0  0
   28.8402    8.9396   59.3352 C   0  0  0  0  0  0  0  0  0  0  0  0
   29.3122    8.0145   60.2804 N   0  0  0  0  0  0  0  0  0  0  0  0
   28.7603   10.2467   59.6320 N   0  0  0  0  0  0  0  0  0  0  0  0
   28.3043   11.1419   58.7052 C   0  0  0  0  0  0  0  0  0  0  0  0
   27.9393   10.7075   57.5047 N   0  0  0  0  0  0  0  0  0  0  0  0
   28.8494    7.9154   61.1988 H   0  0  0  0  0  0  0  0  0  0  0  0
   30.1318    7.4200   60.0650 H   0  0  0  0  0  0  0  0  0  0  0  0
   28.2163   12.6033   59.0520 C   0  0  0  0  0  0  0  0  0  0  0  0
   29.0661   12.9075   60.0866 O   0  0  0  0  0  0  0  0  0  0  0  0
   29.9118   12.4241   59.9522 H   0  0  0  0  0  0  0  0  0  0  0  0
   24.5685    6.8883   54.1369 S   0  0  0  0  0  0  0  0  0  0  0  0
   24.7384    6.0526   52.8743 O   0  0  0  0  0  0  0  0  0  0  0  0
   24.3165    5.9852   55.3115 O   0  0  0  0  0  0  0  0  0  0  0  0
   22.0138    7.8135   54.5480 C   0  0  0  0  0  0  0  0  0  0  0  0
   21.9183    6.9239   55.4295 O   0  0  0  0  0  0  0  0  0  0  0  0
   23.2262    7.9263   53.8366 N   0  0  0  0  0  0  0  0  0  0  0  0
   23.3092    8.6601   53.1094 H   0  0  0  0  0  0  0  0  0  0  0  0
   20.8580    8.6869   54.3051 C   0  0  0  0  0  0  0  0  0  0  0  0
   19.9674    8.6506   55.4291 N   0  0  0  0  0  0  0  0  0  0  0  0
   19.6639    7.6846   55.6686 H   0  0  0  0  0  0  0  0  0  0  0  0
   19.1962    9.3448   55.3722 H   0  0  0  0  0  0  0  0  0  0  0  0
   21.8488   10.7179   55.2809 C   0  0  0  0  0  0  0  0  0  0  0  0
   21.3640   10.0844   54.0180 C   0  0  0  0  0  0  0  0  0  0  0  0
 30 31  1  0  0  0
 31 26  1  0  0  0
 26 27  1  0  0  0
 26 22  1  0  0  0
 22 23  2  0  0  0
 22 24  1  0  0  0
 24 19  1  0  0  0
 19 20  2  0  0  0
 19 21  2  0  0  0
 19  1  1  0  0  0
  1  2  2  0  0  0
  2  3  1  0  0  0
  3  4  2  0  0  0
  4  5  1  0  0  0
  5  6  2  0  0  0
  5  7  1  0  0  0
  7  8  2  0  0  0
  8  9  1  0  0  0
  9 10  1  0  0  0
  9 11  2  0  0  0
 11 12  1  0  0  0
 12 16  1  0  0  0
 16 17  1  0  0  0
 12 13  2  0  0  0
  6  1  1  0  0  0
 13  7  1  0  0  0
 27 28  1  0  0  0
 27 29  1  0  0  0
 24 25  1  0  0  0
 10 14  1  0  0  0
 10 15  1  0  0  0
 17 18  1  0  0  0
M  END
> <minimizedAffinity>
0.88826

> <CNNscore>
0.6677944064

> <CNNaffinity>
6.1608672142

> <CNN_VS>
4.1141924858

> <CNNaffinity_variance>
0.3898361623

$$$$
[H]OC([H])([H])c1nc(-c2c([H])c([H])c([H])c(S(=O)(=O)N([H])C(=O)[C@@]([H])(N([H])[H])C([H])([H])C([H])([H])[H])c2[H])c([H])c(N([H])[H])n1


 31 32  0  0  0  0  0  0  0  0999 V2000
   22.8651    7.6370   53.5665 C   0  0  0  0  0  0  0  0  0  0  0  0
   23.0380    6.4338   52.9095 C   0  0  0  0  0  0  0  0  0  0  0  0
   24.2786    5.8390   52.8530 C   0  0  0  0  0  0  0  0  0  0  0  0
   25.3749    6.4700   53.4734 C   0  0  0  0  0  0  0  0  0  0  0  0
   25.2304    7.6564   54.1267 C   0  0  0  0  0  0  0  0  0  0  0  0
   23.9671    8.2371   54.1708 C   0  0  0  0  0  0  0  0  0  0  0  0
   26.3419    8.3363   54.7471 C   0  0  0  0  0  0  0  0  0  0  0  0
   27.4155    8.8337   54.0643 C   0  0  0  0  0  0  0  0  0  0  0  0
   28.4599    9.5019   54.6872 C   0  0  0  0  0  0  0  0  0  0  0  0
   29.5418   10.0011   53.9441 N   0  0  0  0  0  0  0  0  0  0  0  0
   28.4075    9.6627   56.0193 N   0  0  0  0  0  0  0  0  0  0  0  0
   27.3488    9.1781   56.7354 C   0  0  0  0  0  0  0  0  0  0  0  0
   26.3692    8.5446   56.1016 N   0  0  0  0  0  0  0  0  0  0  0  0
   30.5085    9.7025   54.1534 H   0  0  0  0  0  0  0  0  0  0  0  0
   29.3804   10.6758   53.1758 H   0  0  0  0  0  0  0  0  0  0  0  0
   27.3043    9.3620   58.2281 C   0  0  0  0  0  0  0  0  0  0  0  0
   28.3950    8.7756   58.8210 O   0  0  0  0  0  0  0  0  0  0  0  0
   29.1883    8.9545   58.2682 H   0  0  0  0  0  0  0  0  0  0  0  0
   21.2902    8.3802   53.5919 S   0  0  0  0  0  0  0  0  0  0  0  0
   20.9843    8.7841   55.0289 O   0  0  0  0  0  0  0  0  0  0  0  0
   21.2337    9.5908   52.7031 O   0  0  0  0  0  0  0  0  0  0  0  0
   20.1344    5.8872   53.6132 C   0  0  0  0  0  0  0  0  0  0  0  0
   21.0878    5.5385   54.3528 O   0  0  0  0  0  0  0  0  0  0  0  0
   20.0878    7.2228   53.1628 N   0  0  0  0  0  0  0  0  0  0  0  0
   19.3019    7.5146   52.5536 H   0  0  0  0  0  0  0  0  0  0  0  0
   19.1208    4.8856   53.2568 C   0  0  0  0  0  0  0  0  0  0  0  0
   19.6681    3.5651   53.3780 N   0  0  0  0  0  0  0  0  0  0  0  0
   20.5349    3.4378   52.8167 H   0  0  0  0  0  0  0  0  0  0  0  0
   18.9635    2.8100   53.2632 H   0  0  0  0  0  0  0  0  0  0  0  0
   17.0340    3.8819   54.0916 C   0  0  0  0  0  0  0  0  0  0  0  0
   17.9112    5.0897   54.1440 C   0  0  0  0  0  0  0  0  0  0  0  0
 30 31  1  0  0  0
 31 26  1  0  0  0
 26 27  1  0  0  0
 26 22  1  0  0  0
 22 23  2  0  0  0
 22 24  1  0  0  0
 24 19  1  0  0  0
 19 20  2  0  0  0
 19 21  2  0  0  0
 19  1  1  0  0  0
  1  2  2  0  0  0
  2  3  1  0  0  0
  3  4  2  0  0  0
  4  5  1  0  0  0
  5  6  2  0  0  0
  5  7  1  0  0  0
  7  8  2  0  0  0
  8  9  1  0  0  0
  9 10  1  0  0  0
  9 11  2  0  0  0
 11 12  1  0  0  0
 12 16  1  0  0  0
 16 17  1  0  0  0
 12 13  2  0  0  0
  6  1  1  0  0  0
 13  7  1  0  0  0
 27 28  1  0  0  0
 27 29  1  0  0  0
 24 25  1  0  0  0
 10 14  1  0  0  0
 10 15  1  0  0  0
 17 18  1  0  0  0
M  END
> <minimizedAffinity>
11.57058

> <CNNscore>
0.6592611670

> <CNNaffinity>
6.2023158073

> <CNN_VS>
4.0889458656

> <CNNaffinity_variance>
0.6425727606

$$$$
[H]OC([H])([H])c1nc(-c2c([H])c([H])c([H])c(S(=O)(=O)N([H])C(=O)[C@@]([H])(N([H])[H])C([H])([H])C([H])([H])[H])c2[H])c([H])c(N([H])[H])n1


 31 32  0  0  0  0  0  0  0  0999 V2000
   23.3076    7.6934   54.3384 C   0  0  0  0  0  0  0  0  0  0  0  0
   22.3702    8.5187   54.9296 C   0  0  0  0  0  0  0  0  0  0  0  0
   22.7620    9.5170   55.7933 C   0  0  0  0  0  0  0  0  0  0  0  0
   24.1323    9.6908   56.0704 C   0  0  0  0  0  0  0  0  0  0  0  0
   25.0755    8.8900   55.5007 C   0  0  0  0  0  0  0  0  0  0  0  0
   24.6550    7.8892   54.6310 C   0  0  0  0  0  0  0  0  0  0  0  0
   26.4827    9.0299   55.7886 C   0  0  0  0  0  0  0  0  0  0  0  0
   27.4817    8.5829   54.9710 C   0  0  0  0  0  0  0  0  0  0  0  0
   28.8272    8.7511   55.2653 C   0  0  0  0  0  0  0  0  0  0  0  0
   29.8208    8.2794   54.3923 N   0  0  0  0  0  0  0  0  0  0  0  0
   29.1551    9.3806   56.4052 N   0  0  0  0  0  0  0  0  0  0  0  0
   28.1823    9.8412   57.2478 C   0  0  0  0  0  0  0  0  0  0  0  0
   26.9060    9.6605   56.9296 N   0  0  0  0  0  0  0  0  0  0  0  0
   30.5329    7.6052   54.7178 H   0  0  0  0  0  0  0  0  0  0  0  0
   29.8493    8.6038   53.4097 H   0  0  0  0  0  0  0  0  0  0  0  0
   28.5634   10.5416   58.5237 C   0  0  0  0  0  0  0  0  0  0  0  0
   28.7627    9.6334   59.5339 O   0  0  0  0  0  0  0  0  0  0  0  0
   29.2420    8.8563   59.1688 H   0  0  0  0  0  0  0  0  0  0  0  0
   22.7777    6.4188   53.2763 S   0  0  0  0  0  0  0  0  0  0  0  0
   24.0146    5.7027   52.7481 O   0  0  0  0  0  0  0  0  0  0  0  0
   21.8898    5.4370   53.9879 O   0  0  0  0  0  0  0  0  0  0  0  0
   20.7757    7.7888   51.9854 C   0  0  0  0  0  0  0  0  0  0  0  0
   20.2445    7.9195   53.1160 O   0  0  0  0  0  0  0  0  0  0  0  0
   21.9984    7.0919   51.8947 N   0  0  0  0  0  0  0  0  0  0  0  0
   22.4405    6.9832   50.9637 H   0  0  0  0  0  0  0  0  0  0  0  0
   20.0949    8.3676   50.8196 C   0  0  0  0  0  0  0  0  0  0  0  0
   18.6757    8.1977   50.9423 N   0  0  0  0  0  0  0  0  0  0  0  0
   18.4020    7.2035   51.0813 H   0  0  0  0  0  0  0  0  0  0  0  0
   18.1315    8.6983   50.2123 H   0  0  0  0  0  0  0  0  0  0  0  0
   21.3494   10.2084   51.8667 C   0  0  0  0  0  0  0  0  0  0  0  0
   20.4913    9.8242   50.7061 C   0  0  0  0  0  0  0  0  0  0  0  0
 30 31  1  0  0  0
 31 26  1  0  0  0
 26 27  1  0  0  0
 26 22  1  0  0  0
 22 23  2  0  0  0
 22 24  1  0  0  0
 24 19  1  0  0  0
 19 20  2  0  0  0
 19 21  2  0  0  0
 19  1  1  0  0  0
  1  2  2  0  0  0
  2  3  1  0  0  0
  3  4  2  0  0  0
  4  5  1  0  0  0
  5  6  2  0  0  0
  5  7  1  0  0  0
  7  8  2  0  0  0
  8  9  1  0  0  0
  9 10  1  0  0  0
  9 11  2  0  0  0
 11 12  1  0  0  0
 12 16  1  0  0  0
 16 17  1  0  0  0
 12 13  2  0  0  0
  6  1  1  0  0  0
 13  7  1  0  0  0
 27 28  1  0  0  0
 27 29  1  0  0  0
 24 25  1  0  0  0
 10 14  1  0  0  0
 10 15  1  0  0  0
 17 18  1  0  0  0
M  END
> <minimizedAffinity>
11.80373

> <CNNscore>
0.6514745951

> <CNNaffinity>
6.3114290237

> <CNN_VS>
4.1117358208

> <CNNaffinity_variance>
0.5333029032

$$$$
[H]OC([H])([H])c1nc(-c2c([H])c([H])c([H])c(S(=O)(=O)N([H])C(=O)[C@@]([H])(N([H])[H])C([H])([H])C([H])([H])[H])c2[H])c([H])c(N([H])[H])n1


 31 32  0  0  0  0  0  0  0  0999 V2000
   26.0872    9.1892   55.3339 C   0  0  0  0  0  0  0  0  0  0  0  0
   25.6055   10.3211   55.9633 C   0  0  0  0  0  0  0  0  0  0  0  0
   24.2506   10.5526   56.0466 C   0  0  0  0  0  0  0  0  0  0  0  0
   23.3559    9.6220   55.4825 C   0  0  0  0  0  0  0  0  0  0  0  0
   23.8059    8.4991   54.8565 C   0  0  0  0  0  0  0  0  0  0  0  0
   25.1788    8.2869   54.7859 C   0  0  0  0  0  0  0  0  0  0  0  0
   22.9117    7.5442   54.2473 C   0  0  0  0  0  0  0  0  0  0  0  0
   23.2163    6.2279   54.0447 C   0  0  0  0  0  0  0  0  0  0  0  0
   22.3266    5.3285   53.4750 C   0  0  0  0  0  0  0  0  0  0  0  0
   22.6811    3.9823   53.2904 N   0  0  0  0  0  0  0  0  0  0  0  0
   21.1155    5.7776   53.1082 N   0  0  0  0  0  0  0  0  0  0  0  0
   20.7758    7.0883   53.2954 C   0  0  0  0  0  0  0  0  0  0  0  0
   21.6558    7.9172   53.8444 N   0  0  0  0  0  0  0  0  0  0  0  0
   22.6586    3.5546   52.3501 H   0  0  0  0  0  0  0  0  0  0  0  0
   22.9702    3.4030   54.0981 H   0  0  0  0  0  0  0  0  0  0  0  0
   19.4167    7.5794   52.8766 C   0  0  0  0  0  0  0  0  0  0  0  0
   18.4287    6.8187   53.4513 O   0  0  0  0  0  0  0  0  0  0  0  0
   18.6809    6.6254   54.3818 H   0  0  0  0  0  0  0  0  0  0  0  0
   27.8071    8.9415   55.2160 S   0  0  0  0  0  0  0  0  0  0  0  0
   28.0556    7.4491   55.0351 O   0  0  0  0  0  0  0  0  0  0  0  0
   28.3983    9.6968   54.0590 O   0  0  0  0  0  0  0  0  0  0  0  0
   27.9278    9.1926   57.9498 C   0  0  0  0  0  0  0  0  0  0  0  0
   26.7689    8.7086   57.9661 O   0  0  0  0  0  0  0  0  0  0  0  0
   28.5650    9.3672   56.7039 N   0  0  0  0  0  0  0  0  0  0  0  0
   29.5218    9.7649   56.6866 H   0  0  0  0  0  0  0  0  0  0  0  0
   28.5559    9.5512   59.2283 C   0  0  0  0  0  0  0  0  0  0  0  0
   29.4587    8.5159   59.6420 N   0  0  0  0  0  0  0  0  0  0  0  0
   29.0003    7.5836   59.6977 H   0  0  0  0  0  0  0  0  0  0  0  0
   30.0290    8.7681   60.4732 H   0  0  0  0  0  0  0  0  0  0  0  0
   29.3748   11.5596   60.3922 C   0  0  0  0  0  0  0  0  0  0  0  0
   29.2496   10.8867   59.0646 C   0  0  0  0  0  0  0  0  0  0  0  0
 30 31  1  0  0  0
 31 26  1  0  0  0
 26 27  1  0  0  0
 26 22  1  0  0  0
 22 23  2  0  0  0
 22 24  1  0  0  0
 24 19  1  0  0  0
 19 20  2  0  0  0
 19 21  2  0  0  0
 19  1  1  0  0  0
  1  2  2  0  0  0
  2  3  1  0  0  0
  3  4  2  0  0  0
  4  5  1  0  0  0
  5  6  2  0  0  0
  5  7  1  0  0  0
  7  8  2  0  0  0
  8  9  1  0  0  0
  9 10  1  0  0  0
  9 11  2  0  0  0
 11 12  1  0  0  0
 12 16  1  0  0  0
 16 17  1  0  0  0
 12 13  2  0  0  0
  6  1  1  0  0  0
 13  7  1  0  0  0
 27 28  1  0  0  0
 27 29  1  0  0  0
 24 25  1  0  0  0
 10 14  1  0  0  0
 10 15  1  0  0  0
 17 18  1  0  0  0
M  END
> <minimizedAffinity>
16.84937

> <CNNscore>
0.6491904855

> <CNNaffinity>
6.1662969589

> <CNN_VS>
4.0031013489

> <CNNaffinity_variance>
0.6386895180

$$$$
[H]OC([H])([H])c1nc(-c2c([H])c([H])c([H])c(S(=O)(=O)N([H])C(=O)[C@@]([H])(N([H])[H])C([H])([H])C([H])([H])[H])c2[H])c([H])c(N([H])[H])n1


 31 32  0  0  0  0  0  0  0  0999 V2000
   22.5155    7.9857   54.0135 C   0  0  0  0  0  0  0  0  0  0  0  0
   22.4386    6.7728   53.3559 C   0  0  0  0  0  0  0  0  0  0  0  0
   23.5653    6.0020   53.1751 C   0  0  0  0  0  0  0  0  0  0  0  0
   24.8022    6.4620   53.6682 C   0  0  0  0  0  0  0  0  0  0  0  0
   24.9041    7.6541   54.3192 C   0  0  0  0  0  0  0  0  0  0  0  0
   23.7518    8.4143   54.4903 C   0  0  0  0  0  0  0  0  0  0  0  0
   26.1632    8.1603   54.8101 C   0  0  0  0  0  0  0  0  0  0  0  0
   27.3780    7.8571   54.2638 C   0  0  0  0  0  0  0  0  0  0  0  0
   28.5709    8.3767   54.7457 C   0  0  0  0  0  0  0  0  0  0  0  0
   29.7970    8.0410   54.1491 N   0  0  0  0  0  0  0  0  0  0  0  0
   28.5225    9.2129   55.7953 N   0  0  0  0  0  0  0  0  0  0  0  0
   27.3248    9.5388   56.3678 C   0  0  0  0  0  0  0  0  0  0  0  0
   26.2056    9.0203   55.8766 N   0  0  0  0  0  0  0  0  0  0  0  0
   30.5517    7.6044   54.7033 H   0  0  0  0  0  0  0  0  0  0  0  0
   29.9570    8.2282   53.1436 H   0  0  0  0  0  0  0  0  0  0  0  0
   27.2850   10.4741   57.5457 C   0  0  0  0  0  0  0  0  0  0  0  0
   28.5120   11.0580   57.7421 O   0  0  0  0  0  0  0  0  0  0  0  0
   28.8932   11.2923   56.8665 H   0  0  0  0  0  0  0  0  0  0  0  0
   21.0786    8.9527   54.1972 S   0  0  0  0  0  0  0  0  0  0  0  0
   19.9867    8.3415   53.3278 O   0  0  0  0  0  0  0  0  0  0  0  0
   20.6201    8.9987   55.6277 O   0  0  0  0  0  0  0  0  0  0  0  0
   21.4855   10.7806   52.1860 C   0  0  0  0  0  0  0  0  0  0  0  0
   21.4022    9.8093   51.3942 O   0  0  0  0  0  0  0  0  0  0  0  0
   21.3506   10.5337   53.5679 N   0  0  0  0  0  0  0  0  0  0  0  0
   21.4173   11.3328   54.2243 H   0  0  0  0  0  0  0  0  0  0  0  0
   21.7198   12.1201   51.6306 C   0  0  0  0  0  0  0  0  0  0  0  0
   21.2994   12.1662   50.2598 N   0  0  0  0  0  0  0  0  0  0  0  0
   21.7533   11.4337   49.6768 H   0  0  0  0  0  0  0  0  0  0  0  0
   21.3207   13.1206   49.8494 H   0  0  0  0  0  0  0  0  0  0  0  0
   20.6306   14.3271   51.6708 C   0  0  0  0  0  0  0  0  0  0  0  0
   20.9899   13.1306   52.4895 C   0  0  0  0  0  0  0  0  0  0  0  0
 30 31  1  0  0  0
 31 26  1  0  0  0
 26 27  1  0  0  0
 26 22  1  0  0  0
 22 23  2  0  0  0
 22 24  1  0  0  0
 24 19  1  0  0  0
 19 20  2  0  0  0
 19 21  2  0  0  0
 19  1  1  0  0  0
  1  2  2  0  0  0
  2  3  1  0  0  0
  3  4  2  0  0  0
  4  5  1  0  0  0
  5  6  2  0  0  0
  5  7  1  0  0  0
  7  8  2  0  0  0
  8  9  1  0  0  0
  9 10  1  0  0  0
  9 11  2  0  0  0
 11 12  1  0  0  0
 12 16  1  0  0  0
 16 17  1  0  0  0
 12 13  2  0  0  0
  6  1  1  0  0  0
 13  7  1  0  0  0
 27 28  1  0  0  0
 27 29  1  0  0  0
 24 25  1  0  0  0
 10 14  1  0  0  0
 10 15  1  0  0  0
 17 18  1  0  0  0
M  END
> <minimizedAffinity>
6.86129

> <CNNscore>
0.6203449965

> <CNNaffinity>
6.1225976944

> <CNN_VS>
3.7981228828

> <CNNaffinity_variance>
0.4467153549

$$$$
[H]OC([H])([H])c1nc(-c2c([H])c([H])c([H])c(S(=O)(=O)N([H])C(=O)[C@@]([H])(N([H])[H])C([H])([H])C([H])([H])[H])c2[H])c([H])c(N([H])[H])n1


 31 32  0  0  0  0  0  0  0  0999 V2000
   25.5205    8.3654   54.8488 C   0  0  0  0  0  0  0  0  0  0  0  0
   26.2913    8.3501   53.7020 C   0  0  0  0  0  0  0  0  0  0  0  0
   27.6213    8.7042   53.7479 C   0  0  0  0  0  0  0  0  0  0  0  0
   28.1920    9.0837   54.9787 C   0  0  0  0  0  0  0  0  0  0  0  0
   27.4531    9.1073   56.1228 C   0  0  0  0  0  0  0  0  0  0  0  0
   26.1122    8.7446   56.0511 C   0  0  0  0  0  0  0  0  0  0  0  0
   28.0067    9.5177   57.3907 C   0  0  0  0  0  0  0  0  0  0  0  0
   28.5766    8.6639   58.2921 C   0  0  0  0  0  0  0  0  0  0  0  0
   29.1197    9.0920   59.4950 C   0  0  0  0  0  0  0  0  0  0  0  0
   29.7003    8.1786   60.3897 N   0  0  0  0  0  0  0  0  0  0  0  0
   29.0798   10.4036   59.7800 N   0  0  0  0  0  0  0  0  0  0  0  0
   28.5172   11.2874   58.9019 C   0  0  0  0  0  0  0  0  0  0  0  0
   28.0085   10.8374   57.7610 N   0  0  0  0  0  0  0  0  0  0  0  0
   29.3519    8.0948   61.3588 H   0  0  0  0  0  0  0  0  0  0  0  0
   30.4863    7.5775   60.0855 H   0  0  0  0  0  0  0  0  0  0  0  0
   28.4757   12.7540   59.2352 C   0  0  0  0  0  0  0  0  0  0  0  0
   27.6930   12.9774   60.3409 O   0  0  0  0  0  0  0  0  0  0  0  0
   27.8683   12.2686   60.9994 H   0  0  0  0  0  0  0  0  0  0  0  0
   23.8333    7.9441   54.7520 S   0  0  0  0  0  0  0  0  0  0  0  0
   23.7138    6.4369   54.9410 O   0  0  0  0  0  0  0  0  0  0  0  0
   23.0238    8.6516   55.8022 O   0  0  0  0  0  0  0  0  0  0  0  0
   21.8702    8.1542   52.8405 C   0  0  0  0  0  0  0  0  0  0  0  0
   21.0668    7.8056   53.7407 O   0  0  0  0  0  0  0  0  0  0  0  0
   23.2373    8.2679   53.1679 N   0  0  0  0  0  0  0  0  0  0  0  0
   23.9030    8.5568   52.4281 H   0  0  0  0  0  0  0  0  0  0  0  0
   21.3432    8.4236   51.4962 C   0  0  0  0  0  0  0  0  0  0  0  0
   20.1731    7.6290   51.2566 N   0  0  0  0  0  0  0  0  0  0  0  0
   20.3442    6.6121   51.3957 H   0  0  0  0  0  0  0  0  0  0  0  0
   19.6808    7.8681   50.3732 H   0  0  0  0  0  0  0  0  0  0  0  0
   21.5871   10.6190   52.5823 C   0  0  0  0  0  0  0  0  0  0  0  0
   21.0644    9.9068   51.3779 C   0  0  0  0  0  0  0  0  0  0  0  0
 30 31  1  0  0  0
 31 26  1  0  0  0
 26 27  1  0  0  0
 26 22  1  0  0  0
 22 23  2  0  0  0
 22 24  1  0  0  0
 24 19  1  0  0  0
 19 20  2  0  0  0
 19 21  2  0  0  0
 19  1  1  0  0  0
  1  2  2  0  0  0
  2  3  1  0  0  0
  3  4  2  0  0  0
  4  5  1  0  0  0
  5  6  2  0  0  0
  5  7  1  0  0  0
  7  8  2  0  0  0
  8  9  1  0  0  0
  9 10  1  0  0  0
  9 11  2  0  0  0
 11 12  1  0  0  0
 12 16  1  0  0  0
 16 17  1  0  0  0
 12 13  2  0  0  0
  6  1  1  0  0  0
 13  7  1  0  0  0
 27 28  1  0  0  0
 27 29  1  0  0  0
 24 25  1  0  0  0
 10 14  1  0  0  0
 10 15  1  0  0  0
 17 18  1  0  0  0
M  END
> <minimizedAffinity>
-1.92247

> <CNNscore>
0.6167234182

> <CNNaffinity>
6.0284590721

> <CNN_VS>
3.7178919315

> <CNNaffinity_variance>
0.3281031251

$$$$
[H]c1c([H])c([H])c(C(=O)N([H])c2nnc(-c3c([H])c([H])c(Oc4c([H])c([H])c([N+](=O)[O-])c([H])c4[N+](=O)[O-])c([H])c3[H])s2)c([H])c1[H]


 34 37  0  0  0  0  0  0  0  0999 V2000
   27.2676    9.1981   55.8819 C   0  0  0  0  0  0  0  0  0  0  0  0
   26.0490    9.4919   56.4929 C   0  0  0  0  0  0  0  0  0  0  0  0
   24.9151    9.0059   55.9142 C   0  0  0  0  0  0  0  0  0  0  0  0
   24.9170    8.2462   54.7664 C   0  0  0  0  0  0  0  0  0  0  0  0
   26.0929    7.9505   54.1591 C   0  0  0  0  0  0  0  0  0  0  0  0
   27.2735    8.4378   54.7334 C   0  0  0  0  0  0  0  0  0  0  0  0
   23.6162    7.7922   54.2464 C   0  0  0  0  0  0  0  0  0  0  0  0
   23.0572    8.1090   53.0850 N   0  0  0  0  0  0  0  0  0  0  0  0
   21.9301    7.6313   52.7817 N   0  0  0  0  0  0  0  0  0  0  0  0
   21.3070    6.8139   53.6239 C   0  0  0  0  0  0  0  0  0  0  0  0
   22.4328    6.7523   54.9106 S   0  0  0  0  0  0  0  0  0  0  0  0
   20.0306    6.1660   53.4694 N   0  0  0  0  0  0  0  0  0  0  0  0
   19.9142    4.7664   53.5820 C   0  0  0  0  0  0  0  0  0  0  0  0
   20.9541    4.0579   53.8164 O   0  0  0  0  0  0  0  0  0  0  0  0
   19.1971    6.7456   53.2791 H   0  0  0  0  0  0  0  0  0  0  0  0
   18.6389    4.0909   53.4394 C   0  0  0  0  0  0  0  0  0  0  0  0
   17.5357    4.5607   54.1570 C   0  0  0  0  0  0  0  0  0  0  0  0
   16.3130    3.9726   54.0576 C   0  0  0  0  0  0  0  0  0  0  0  0
   16.1613    2.8775   53.2205 C   0  0  0  0  0  0  0  0  0  0  0  0
   17.2163    2.3789   52.4944 C   0  0  0  0  0  0  0  0  0  0  0  0
   18.4453    3.0080   52.6247 C   0  0  0  0  0  0  0  0  0  0  0  0
   28.3815    9.7149   56.5134 O   0  0  0  0  0  0  0  0  0  0  0  0
   28.2676   12.3079   59.7136 C   0  0  0  0  0  0  0  0  0  0  0  0
   28.0336   12.7733   58.4302 C   0  0  0  0  0  0  0  0  0  0  0  0
   28.0682   11.9319   57.3605 C   0  0  0  0  0  0  0  0  0  0  0  0
   28.3471   10.5789   57.5912 C   0  0  0  0  0  0  0  0  0  0  0  0
   28.5820   10.1055   58.8443 C   0  0  0  0  0  0  0  0  0  0  0  0
   28.5392   10.9940   59.9307 C   0  0  0  0  0  0  0  0  0  0  0  0
   29.0297   14.3077   60.8953 O   0  0  0  0  0  0  0  0  0  0  0  0
   28.2268   13.1987   60.8234 N   0  0  0  0  0  0  0  0  0  0  0  0
   27.4396   12.9648   61.7538 O   0  0  0  0  0  0  0  0  0  0  0  0
   28.9128    8.7416   59.1649 N   0  0  0  0  0  0  0  0  0  0  0  0
   29.9841    8.4135   59.9632 O   0  0  0  0  0  0  0  0  0  0  0  0
   28.2407    7.8303   58.6705 O   0  0  0  0  0  0  0  0  0  0  0  0
 29 30  1  0  0  0
 30 31  2  0  0  0
 30 23  1  0  0  0
 23 24  2  0  0  0
 24 25  1  0  0  0
 25 26  2  0  0  0
 26 22  1  0  0  0
 22  1  1  0  0  0
  1  2  2  0  0  0
  2  3  1  0  0  0
  3  4  2  0  0  0
  4  5  1  0  0  0
  5  6  2  0  0  0
  4  7  1  0  0  0
  7  8  2  0  0  0
  8  9  1  0  0  0
  9 10  2  0  0  0
 10 12  1  0  0  0
 12 13  1  0  0  0
 13 14  2  0  0  0
 13 16  1  0  0  0
 16 17  2  0  0  0
 17 18  1  0  0  0
 18 19  2  0  0  0
 19 20  1  0  0  0
 20 21  2  0  0  0
 10 11  1  0  0  0
 26 27  1  0  0  0
 27 28  2  0  0  0
 27 32  1  0  0  0
 32 33  1  0  0  0
 32 34  2  0  0  0
 28 23  1  0  0  0
  6  1  1  0  0  0
 11  7  1  0  0  0
 21 16  1  0  0  0
 12 15  1  0  0  0
M  CHG 1  29  -1
M  CHG 1  30   1
M  CHG 1  32   1
M  CHG 1  33  -1
M  END
> <minimizedAffinity>
17.91118

> <CNNscore>
0.5893697143

> <CNNaffinity>
6.3240995407

> <CNN_VS>
3.7272326946

> <CNNaffinity_variance>
0.1166024208

$$$$
[H]c1c([H])c([H])c(C(=O)N([H])c2nnc(-c3c([H])c([H])c(Oc4c([H])c([H])c([N+](=O)[O-])c([H])c4[N+](=O)[O-])c([H])c3[H])s2)c([H])c1[H]


 34 37  0  0  0  0  0  0  0  0999 V2000
   26.8643    9.4764   56.0035 C   0  0  0  0  0  0  0  0  0  0  0  0
   25.5797    9.7428   56.4762 C   0  0  0  0  0  0  0  0  0  0  0  0
   24.5366    9.1058   55.8736 C   0  0  0  0  0  0  0  0  0  0  0  0
   24.6909    8.2208   54.8308 C   0  0  0  0  0  0  0  0  0  0  0  0
   25.9329    7.9497   54.3586 C   0  0  0  0  0  0  0  0  0  0  0  0
   27.0226    8.5910   54.9604 C   0  0  0  0  0  0  0  0  0  0  0  0
   23.4746    7.6093   54.2691 C   0  0  0  0  0  0  0  0  0  0  0  0
   23.2368    7.3077   52.9986 N   0  0  0  0  0  0  0  0  0  0  0  0
   22.1376    6.7806   52.6755 N   0  0  0  0  0  0  0  0  0  0  0  0
   21.2229    6.5291   53.6060 C   0  0  0  0  0  0  0  0  0  0  0  0
   22.0218    7.0948   55.0090 S   0  0  0  0  0  0  0  0  0  0  0  0
   19.9201    5.9367   53.4492 N   0  0  0  0  0  0  0  0  0  0  0  0
   19.7395    4.5459   53.5844 C   0  0  0  0  0  0  0  0  0  0  0  0
   20.7440    3.7955   53.8416 O   0  0  0  0  0  0  0  0  0  0  0  0
   19.1155    6.5499   53.2404 H   0  0  0  0  0  0  0  0  0  0  0  0
   18.4363    3.9262   53.4399 C   0  0  0  0  0  0  0  0  0  0  0  0
   17.3608    4.4220   54.1817 C   0  0  0  0  0  0  0  0  0  0  0  0
   16.1142    3.8863   54.0820 C   0  0  0  0  0  0  0  0  0  0  0  0
   15.9094    2.8195   53.2200 C   0  0  0  0  0  0  0  0  0  0  0  0
   16.9355    2.2971   52.4697 C   0  0  0  0  0  0  0  0  0  0  0  0
   18.1904    2.8727   52.6012 C   0  0  0  0  0  0  0  0  0  0  0  0
   27.8807   10.1484   56.6532 O   0  0  0  0  0  0  0  0  0  0  0  0
   29.4544    9.0549   60.3008 C   0  0  0  0  0  0  0  0  0  0  0  0
   29.2613    8.1049   59.3116 C   0  0  0  0  0  0  0  0  0  0  0  0
   28.7415    8.4471   58.1007 C   0  0  0  0  0  0  0  0  0  0  0  0
   28.4059    9.7888   57.8796 C   0  0  0  0  0  0  0  0  0  0  0  0
   28.5862   10.7339   58.8407 C   0  0  0  0  0  0  0  0  0  0  0  0
   29.1252   10.3550   60.0806 C   0  0  0  0  0  0  0  0  0  0  0  0
   30.8676    9.4951   62.2464 O   0  0  0  0  0  0  0  0  0  0  0  0
   30.0003    8.6833   61.5621 N   0  0  0  0  0  0  0  0  0  0  0  0
   29.6806    7.5914   62.0577 O   0  0  0  0  0  0  0  0  0  0  0  0
   28.2339   12.1237   58.7107 N   0  0  0  0  0  0  0  0  0  0  0  0
   28.5141   13.0475   59.6908 O   0  0  0  0  0  0  0  0  0  0  0  0
   27.6181   12.4940   57.7056 O   0  0  0  0  0  0  0  0  0  0  0  0
 29 30  1  0  0  0
 30 31  2  0  0  0
 30 23  1  0  0  0
 23 24  2  0  0  0
 24 25  1  0  0  0
 25 26  2  0  0  0
 26 22  1  0  0  0
 22  1  1  0  0  0
  1  2  2  0  0  0
  2  3  1  0  0  0
  3  4  2  0  0  0
  4  5  1  0  0  0
  5  6  2  0  0  0
  4  7  1  0  0  0
  7  8  2  0  0  0
  8  9  1  0  0  0
  9 10  2  0  0  0
 10 12  1  0  0  0
 12 13  1  0  0  0
 13 14  2  0  0  0
 13 16  1  0  0  0
 16 17  2  0  0  0
 17 18  1  0  0  0
 18 19  2  0  0  0
 19 20  1  0  0  0
 20 21  2  0  0  0
 10 11  1  0  0  0
 26 27  1  0  0  0
 27 28  2  0  0  0
 27 32  1  0  0  0
 32 33  1  0  0  0
 32 34  2  0  0  0
 28 23  1  0  0  0
  6  1  1  0  0  0
 11  7  1  0  0  0
 21 16  1  0  0  0
 12 15  1  0  0  0
M  CHG 1  29  -1
M  CHG 1  30   1
M  CHG 1  32   1
M  CHG 1  33  -1
M  END
> <minimizedAffinity>
16.36277

> <CNNscore>
0.5406790376

> <CNNaffinity>
6.2178201675

> <CNN_VS>
3.3618450165

> <CNNaffinity_variance>
0.0543599539

$$$$
[H]c1c([H])c([H])c(C(=O)N([H])c2nnc(-c3c([H])c([H])c(Oc4c([H])c([H])c([N+](=O)[O-])c([H])c4[N+](=O)[O-])c([H])c3[H])s2)c([H])c1[H]


 34 37  0  0  0  0  0  0  0  0999 V2000
   25.9243    8.9463   54.2905 C   0  0  0  0  0  0  0  0  0  0  0  0
   25.0262    9.0146   55.3551 C   0  0  0  0  0  0  0  0  0  0  0  0
   23.7481    8.5964   55.1353 C   0  0  0  0  0  0  0  0  0  0  0  0
   23.3072    8.1147   53.9236 C   0  0  0  0  0  0  0  0  0  0  0  0
   24.1669    8.0410   52.8776 C   0  0  0  0  0  0  0  0  0  0  0  0
   25.4869    8.4644   53.0766 C   0  0  0  0  0  0  0  0  0  0  0  0
   21.8965    7.7036   53.8252 C   0  0  0  0  0  0  0  0  0  0  0  0
   20.8216    8.4658   53.9842 N   0  0  0  0  0  0  0  0  0  0  0  0
   19.6724    7.9605   53.8638 N   0  0  0  0  0  0  0  0  0  0  0  0
   19.5415    6.6693   53.5785 C   0  0  0  0  0  0  0  0  0  0  0  0
   21.1807    6.1885   53.4861 S   0  0  0  0  0  0  0  0  0  0  0  0
   18.3339    5.9062   53.3982 N   0  0  0  0  0  0  0  0  0  0  0  0
   18.2914    4.5362   53.7242 C   0  0  0  0  0  0  0  0  0  0  0  0
   19.3385    3.9572   54.1789 O   0  0  0  0  0  0  0  0  0  0  0  0
   17.4943    6.3815   53.0294 H   0  0  0  0  0  0  0  0  0  0  0  0
   17.0853    3.7479   53.5601 C   0  0  0  0  0  0  0  0  0  0  0  0
   17.1814    2.4596   53.0273 C   0  0  0  0  0  0  0  0  0  0  0  0
   16.0859    1.6710   52.8573 C   0  0  0  0  0  0  0  0  0  0  0  0
   14.8420    2.1625   53.2237 C   0  0  0  0  0  0  0  0  0  0  0  0
   14.6967    3.4230   53.7519 C   0  0  0  0  0  0  0  0  0  0  0  0
   15.8389    4.1938   53.9086 C   0  0  0  0  0  0  0  0  0  0  0  0
   27.2042    9.3812   54.5724 O   0  0  0  0  0  0  0  0  0  0  0  0
   28.9592    9.2257   58.2971 C   0  0  0  0  0  0  0  0  0  0  0  0
   27.8406   10.0146   58.0856 C   0  0  0  0  0  0  0  0  0  0  0  0
   27.2478   10.0795   56.8617 C   0  0  0  0  0  0  0  0  0  0  0  0
   27.7994    9.3257   55.8181 C   0  0  0  0  0  0  0  0  0  0  0  0
   28.8990    8.5481   56.0075 C   0  0  0  0  0  0  0  0  0  0  0  0
   29.4907    8.4977   57.2799 C   0  0  0  0  0  0  0  0  0  0  0  0
   30.0739    7.9988   60.0939 O   0  0  0  0  0  0  0  0  0  0  0  0
   29.5681    9.1660   59.5826 N   0  0  0  0  0  0  0  0  0  0  0  0
   29.6443   10.2025   60.2608 O   0  0  0  0  0  0  0  0  0  0  0  0
   29.5510    7.7740   54.9838 N   0  0  0  0  0  0  0  0  0  0  0  0
   30.8734    7.9593   54.6526 O   0  0  0  0  0  0  0  0  0  0  0  0
   28.8910    6.9455   54.3477 O   0  0  0  0  0  0  0  0  0  0  0  0
 29 30  1  0  0  0
 30 31  2  0  0  0
 30 23  1  0  0  0
 23 24  2  0  0  0
 24 25  1  0  0  0
 25 26  2  0  0  0
 26 22  1  0  0  0
 22  1  1  0  0  0
  1  2  2  0  0  0
  2  3  1  0  0  0
  3  4  2  0  0  0
  4  5  1  0  0  0
  5  6  2  0  0  0
  4  7  1  0  0  0
  7  8  2  0  0  0
  8  9  1  0  0  0
  9 10  2  0  0  0
 10 12  1  0  0  0
 12 13  1  0  0  0
 13 14  2  0  0  0
 13 16  1  0  0  0
 16 17  2  0  0  0
 17 18  1  0  0  0
 18 19  2  0  0  0
 19 20  1  0  0  0
 20 21  2  0  0  0
 10 11  1  0  0  0
 26 27  1  0  0  0
 27 28  2  0  0  0
 27 32  1  0  0  0
 32 33  1  0  0  0
 32 34  2  0  0  0
 28 23  1  0  0  0
  6  1  1  0  0  0
 11  7  1  0  0  0
 21 16  1  0  0  0
 12 15  1  0  0  0
M  CHG 1  29  -1
M  CHG 1  30   1
M  CHG 1  32   1
M  CHG 1  33  -1
M  END
> <minimizedAffinity>
34.74368

> <CNNscore>
0.5335252285

> <CNNaffinity>
6.3318972588

> <CNN_VS>
3.3782269955

> <CNNaffinity_variance>
0.1999740750

$$$$
[H]c1c([H])c([H])c(C(=O)N([H])c2nnc(-c3c([H])c([H])c(Oc4c([H])c([H])c([N+](=O)[O-])c([H])c4[N+](=O)[O-])c([H])c3[H])s2)c([H])c1[H]


 34 37  0  0  0  0  0  0  0  0999 V2000
   26.2988    8.0977   54.5712 C   0  0  0  0  0  0  0  0  0  0  0  0
   25.5087    8.6691   55.5682 C   0  0  0  0  0  0  0  0  0  0  0  0
   26.1367    9.3790   56.5472 C   0  0  0  0  0  0  0  0  0  0  0  0
   27.5008    9.5563   56.5969 C   0  0  0  0  0  0  0  0  0  0  0  0
   28.2844    9.0080   55.6356 C   0  0  0  0  0  0  0  0  0  0  0  0
   27.6641    8.2734   54.6174 C   0  0  0  0  0  0  0  0  0  0  0  0
   28.0465   10.3416   57.7168 C   0  0  0  0  0  0  0  0  0  0  0  0
   28.5418    9.8809   58.8587 N   0  0  0  0  0  0  0  0  0  0  0  0
   28.9765   10.6890   59.7239 N   0  0  0  0  0  0  0  0  0  0  0  0
   28.9376   11.9964   59.4900 C   0  0  0  0  0  0  0  0  0  0  0  0
   28.2311   12.0276   57.9322 S   0  0  0  0  0  0  0  0  0  0  0  0
   29.3801   13.0747   60.3353 N   0  0  0  0  0  0  0  0  0  0  0  0
   29.1055   14.4147   59.9977 C   0  0  0  0  0  0  0  0  0  0  0  0
   28.4622   14.6817   58.9238 O   0  0  0  0  0  0  0  0  0  0  0  0
   29.8997   12.8498   61.1992 H   0  0  0  0  0  0  0  0  0  0  0  0
   29.5325   15.5179   60.8367 C   0  0  0  0  0  0  0  0  0  0  0  0
   30.8860   15.6419   61.1612 C   0  0  0  0  0  0  0  0  0  0  0  0
   31.3463   16.6599   61.9375 C   0  0  0  0  0  0  0  0  0  0  0  0
   30.4447   17.5978   62.4179 C   0  0  0  0  0  0  0  0  0  0  0  0
   29.1041   17.5182   62.1261 C   0  0  0  0  0  0  0  0  0  0  0  0
   28.6770   16.4650   61.3313 C   0  0  0  0  0  0  0  0  0  0  0  0
   25.6079    7.3925   53.6058 O   0  0  0  0  0  0  0  0  0  0  0  0
   21.5706    7.7544   52.8667 C   0  0  0  0  0  0  0  0  0  0  0  0
   22.4470    8.7430   52.4510 C   0  0  0  0  0  0  0  0  0  0  0  0
   23.7840    8.6415   52.6872 C   0  0  0  0  0  0  0  0  0  0  0  0
   24.2526    7.5080   53.3634 C   0  0  0  0  0  0  0  0  0  0  0  0
   23.4057    6.5292   53.7810 C   0  0  0  0  0  0  0  0  0  0  0  0
   22.0314    6.6575   53.5238 C   0  0  0  0  0  0  0  0  0  0  0  0
   19.6815    8.0771   51.3489 O   0  0  0  0  0  0  0  0  0  0  0  0
   20.1750    7.8728   52.6116 N   0  0  0  0  0  0  0  0  0  0  0  0
   19.3806    7.7875   53.5612 O   0  0  0  0  0  0  0  0  0  0  0  0
   23.7974    5.3535   54.5137 N   0  0  0  0  0  0  0  0  0  0  0  0
   23.7782    5.3042   55.8884 O   0  0  0  0  0  0  0  0  0  0  0  0
   24.2089    4.3690   53.8908 O   0  0  0  0  0  0  0  0  0  0  0  0
 29 30  1  0  0  0
 30 31  2  0  0  0
 30 23  1  0  0  0
 23 24  2  0  0  0
 24 25  1  0  0  0
 25 26  2  0  0  0
 26 22  1  0  0  0
 22  1  1  0  0  0
  1  2  2  0  0  0
  2  3  1  0  0  0
  3  4  2  0  0  0
  4  5  1  0  0  0
  5  6  2  0  0  0
  4  7  1  0  0  0
  7  8  2  0  0  0
  8  9  1  0  0  0
  9 10  2  0  0  0
 10 12  1  0  0  0
 12 13  1  0  0  0
 13 14  2  0  0  0
 13 16  1  0  0  0
 16 17  2  0  0  0
 17 18  1  0  0  0
 18 19  2  0  0  0
 19 20  1  0  0  0
 20 21  2  0  0  0
 10 11  1  0  0  0
 26 27  1  0  0  0
 27 28  2  0  0  0
 27 32  1  0  0  0
 32 33  1  0  0  0
 32 34  2  0  0  0
 28 23  1  0  0  0
  6  1  1  0  0  0
 11  7  1  0  0  0
 21 16  1  0  0  0
 12 15  1  0  0  0
M  CHG 1  29  -1
M  CHG 1  30   1
M  CHG 1  32   1
M  CHG 1  33  -1
M  END
> <minimizedAffinity>
3.30377

> <CNNscore>
0.4705705047

> <CNNaffinity>
6.3292951584

> <CNN_VS>
2.9783797264

> <CNNaffinity_variance>
0.0813313723

$$$$
[H]c1c([H])c([H])c(C(=O)N([H])c2nnc(-c3c([H])c([H])c(Oc4c([H])c([H])c([N+](=O)[O-])c([H])c4[N+](=O)[O-])c([H])c3[H])s2)c([H])c1[H]


 34 37  0  0  0  0  0  0  0  0999 V2000
   21.8428    6.8612   53.0431 C   0  0  0  0  0  0  0  0  0  0  0  0
   21.9487    8.2297   53.2891 C   0  0  0  0  0  0  0  0  0  0  0  0
   23.0630    8.6743   53.9352 C   0  0  0  0  0  0  0  0  0  0  0  0
   24.0784    7.8436   54.3518 C   0  0  0  0  0  0  0  0  0  0  0  0
   23.9923    6.5102   54.1207 C   0  0  0  0  0  0  0  0  0  0  0  0
   22.8571    6.0268   53.4581 C   0  0  0  0  0  0  0  0  0  0  0  0
   25.2225    8.4591   55.0453 C   0  0  0  0  0  0  0  0  0  0  0  0
   26.5051    8.3777   54.7136 N   0  0  0  0  0  0  0  0  0  0  0  0
   27.3715    8.9693   55.4136 N   0  0  0  0  0  0  0  0  0  0  0  0
   26.9985    9.6709   56.4785 C   0  0  0  0  0  0  0  0  0  0  0  0
   25.3032    9.4447   56.4400 S   0  0  0  0  0  0  0  0  0  0  0  0
   27.8197   10.4142   57.3984 N   0  0  0  0  0  0  0  0  0  0  0  0
   28.2796    9.8248   58.5926 C   0  0  0  0  0  0  0  0  0  0  0  0
   27.9595    8.6172   58.8709 O   0  0  0  0  0  0  0  0  0  0  0  0
   28.0718   11.3885   57.1661 H   0  0  0  0  0  0  0  0  0  0  0  0
   29.1149   10.5493   59.5309 C   0  0  0  0  0  0  0  0  0  0  0  0
   30.1051    9.8586   60.2346 C   0  0  0  0  0  0  0  0  0  0  0  0
   30.9236   10.4863   61.1218 C   0  0  0  0  0  0  0  0  0  0  0  0
   30.7678   11.8484   61.3307 C   0  0  0  0  0  0  0  0  0  0  0  0
   29.8083   12.5707   60.6626 C   0  0  0  0  0  0  0  0  0  0  0  0
   28.9953   11.8923   59.7669 C   0  0  0  0  0  0  0  0  0  0  0  0
   20.6943    6.4696   52.3842 O   0  0  0  0  0  0  0  0  0  0  0  0
   17.4331    4.6998   54.1758 C   0  0  0  0  0  0  0  0  0  0  0  0
   17.4400    6.0630   53.9311 C   0  0  0  0  0  0  0  0  0  0  0  0
   18.5088    6.6656   53.3412 C   0  0  0  0  0  0  0  0  0  0  0  0
   19.6052    5.8694   52.9866 C   0  0  0  0  0  0  0  0  0  0  0  0
   19.6163    4.5300   53.2222 C   0  0  0  0  0  0  0  0  0  0  0  0
   18.5008    3.9329   53.8308 C   0  0  0  0  0  0  0  0  0  0  0  0
   16.3122    3.7171   56.1135 O   0  0  0  0  0  0  0  0  0  0  0  0
   16.3079    4.0825   54.7921 N   0  0  0  0  0  0  0  0  0  0  0  0
   15.2916    3.8694   54.1126 O   0  0  0  0  0  0  0  0  0  0  0  0
   20.7139    3.6470   52.9253 N   0  0  0  0  0  0  0  0  0  0  0  0
   20.5321    2.4302   52.3098 O   0  0  0  0  0  0  0  0  0  0  0  0
   21.8540    3.9700   53.2753 O   0  0  0  0  0  0  0  0  0  0  0  0
 29 30  1  0  0  0
 30 31  2  0  0  0
 30 23  1  0  0  0
 23 24  2  0  0  0
 24 25  1  0  0  0
 25 26  2  0  0  0
 26 22  1  0  0  0
 22  1  1  0  0  0
  1  2  2  0  0  0
  2  3  1  0  0  0
  3  4  2  0  0  0
  4  5  1  0  0  0
  5  6  2  0  0  0
  4  7  1  0  0  0
  7  8  2  0  0  0
  8  9  1  0  0  0
  9 10  2  0  0  0
 10 12  1  0  0  0
 12 13  1  0  0  0
 13 14  2  0  0  0
 13 16  1  0  0  0
 16 17  2  0  0  0
 17 18  1  0  0  0
 18 19  2  0  0  0
 19 20  1  0  0  0
 20 21  2  0  0  0
 10 11  1  0  0  0
 26 27  1  0  0  0
 27 28  2  0  0  0
 27 32  1  0  0  0
 32 33  1  0  0  0
 32 34  2  0  0  0
 28 23  1  0  0  0
  6  1  1  0  0  0
 11  7  1  0  0  0
 21 16  1  0  0  0
 12 15  1  0  0  0
M  CHG 1  29  -1
M  CHG 1  30   1
M  CHG 1  32   1
M  CHG 1  33  -1
M  END
> <minimizedAffinity>
21.77418

> <CNNscore>
0.4541374743

> <CNNaffinity>
6.5362839699

> <CNN_VS>
2.9683713913

> <CNNaffinity_variance>
0.5355208516

$$$$
[H]c1c([H])c([H])c(C(=O)N([H])c2nnc(-c3c([H])c([H])c(Oc4c([H])c([H])c([N+](=O)[O-])c([H])c4[N+](=O)[O-])c([H])c3[H])s2)c([H])c1[H]


 34 37  0  0  0  0  0  0  0  0999 V2000
   24.8481    8.3329   53.6825 C   0  0  0  0  0  0  0  0  0  0  0  0
   24.3340    8.7893   54.8958 C   0  0  0  0  0  0  0  0  0  0  0  0
   25.2196    9.1031   55.8827 C   0  0  0  0  0  0  0  0  0  0  0  0
   26.5840    8.9917   55.7388 C   0  0  0  0  0  0  0  0  0  0  0  0
   27.1014    8.5500   54.5658 C   0  0  0  0  0  0  0  0  0  0  0  0
   26.2129    8.2206   53.5346 C   0  0  0  0  0  0  0  0  0  0  0  0
   27.4240    9.3593   56.8913 C   0  0  0  0  0  0  0  0  0  0  0  0
   27.4554    8.7779   58.0840 N   0  0  0  0  0  0  0  0  0  0  0  0
   28.2388    9.2124   58.9718 N   0  0  0  0  0  0  0  0  0  0  0  0
   29.0286   10.2485   58.7108 C   0  0  0  0  0  0  0  0  0  0  0  0
   28.5935   10.5900   57.0919 S   0  0  0  0  0  0  0  0  0  0  0  0
   29.9857   10.8895   59.5746 N   0  0  0  0  0  0  0  0  0  0  0  0
   29.6760   12.1039   60.2184 C   0  0  0  0  0  0  0  0  0  0  0  0
   28.5344   12.6513   60.0299 O   0  0  0  0  0  0  0  0  0  0  0  0
   30.9048   10.4412   59.7197 H   0  0  0  0  0  0  0  0  0  0  0  0
   30.6191   12.7647   61.0998 C   0  0  0  0  0  0  0  0  0  0  0  0
   30.7287   14.1572   61.0585 C   0  0  0  0  0  0  0  0  0  0  0  0
   31.5900   14.8324   61.8666 C   0  0  0  0  0  0  0  0  0  0  0  0
   32.3789   14.1159   62.7539 C   0  0  0  0  0  0  0  0  0  0  0  0
   32.3071   12.7456   62.8313 C   0  0  0  0  0  0  0  0  0  0  0  0
   31.4158   12.0965   61.9900 C   0  0  0  0  0  0  0  0  0  0  0  0
   23.9046    8.0326   52.7201 O   0  0  0  0  0  0  0  0  0  0  0  0
   20.4570    5.8859   53.4151 C   0  0  0  0  0  0  0  0  0  0  0  0
   21.6956    5.2870   53.5749 C   0  0  0  0  0  0  0  0  0  0  0  0
   22.8455    5.9799   53.3488 C   0  0  0  0  0  0  0  0  0  0  0  0
   22.7442    7.3185   52.9492 C   0  0  0  0  0  0  0  0  0  0  0  0
   21.5362    7.9213   52.7848 C   0  0  0  0  0  0  0  0  0  0  0  0
   20.3653    7.1848   53.0257 C   0  0  0  0  0  0  0  0  0  0  0  0
   19.2685    3.7893   53.8249 O   0  0  0  0  0  0  0  0  0  0  0  0
   19.2625    5.1499   53.6566 N   0  0  0  0  0  0  0  0  0  0  0  0
   18.1828    5.7586   53.7174 O   0  0  0  0  0  0  0  0  0  0  0  0
   21.3418    9.2770   52.3413 N   0  0  0  0  0  0  0  0  0  0  0  0
   20.8252    9.5778   51.1022 O   0  0  0  0  0  0  0  0  0  0  0  0
   21.6925   10.2045   53.0785 O   0  0  0  0  0  0  0  0  0  0  0  0
 29 30  1  0  0  0
 30 31  2  0  0  0
 30 23  1  0  0  0
 23 24  2  0  0  0
 24 25  1  0  0  0
 25 26  2  0  0  0
 26 22  1  0  0  0
 22  1  1  0  0  0
  1  2  2  0  0  0
  2  3  1  0  0  0
  3  4  2  0  0  0
  4  5  1  0  0  0
  5  6  2  0  0  0
  4  7  1  0  0  0
  7  8  2  0  0  0
  8  9  1  0  0  0
  9 10  2  0  0  0
 10 12  1  0  0  0
 12 13  1  0  0  0
 13 14  2  0  0  0
 13 16  1  0  0  0
 16 17  2  0  0  0
 17 18  1  0  0  0
 18 19  2  0  0  0
 19 20  1  0  0  0
 20 21  2  0  0  0
 10 11  1  0  0  0
 26 27  1  0  0  0
 27 28  2  0  0  0
 27 32  1  0  0  0
 32 33  1  0  0  0
 32 34  2  0  0  0
 28 23  1  0  0  0
  6  1  1  0  0  0
 11  7  1  0  0  0
 21 16  1  0  0  0
 12 15  1  0  0  0
M  CHG 1  29  -1
M  CHG 1  30   1
M  CHG 1  32   1
M  CHG 1  33  -1
M  END
> <minimizedAffinity>
7.35797

> <CNNscore>
0.4473194182

> <CNNaffinity>
6.2841429710

> <CNN_VS>
2.8110191822

> <CNNaffinity_variance>
0.1153395548

$$$$
[H]c1c([H])c([H])c(C(=O)N([H])c2nnc(-c3c([H])c([H])c(Oc4c([H])c([H])c([N+](=O)[O-])c([H])c4[N+](=O)[O-])c([H])c3[H])s2)c([H])c1[H]


 34 37  0  0  0  0  0  0  0  0999 V2000
   23.2379    8.3132   53.4299 C   0  0  0  0  0  0  0  0  0  0  0  0
   23.1102    8.9567   54.6605 C   0  0  0  0  0  0  0  0  0  0  0  0
   24.2445    9.1754   55.3834 C   0  0  0  0  0  0  0  0  0  0  0  0
   25.4974    8.7945   54.9593 C   0  0  0  0  0  0  0  0  0  0  0  0
   25.6402    8.1680   53.7652 C   0  0  0  0  0  0  0  0  0  0  0  0
   24.4902    7.9310   53.0021 C   0  0  0  0  0  0  0  0  0  0  0  0
   26.6362    9.0879   55.8457 C   0  0  0  0  0  0  0  0  0  0  0  0
   27.8955    9.3137   55.4925 N   0  0  0  0  0  0  0  0  0  0  0  0
   28.7604    9.5555   56.3779 N   0  0  0  0  0  0  0  0  0  0  0  0
   28.4090    9.5835   57.6591 C   0  0  0  0  0  0  0  0  0  0  0  0
   26.7371    9.2389   57.5457 S   0  0  0  0  0  0  0  0  0  0  0  0
   29.2324    9.8402   58.8119 N   0  0  0  0  0  0  0  0  0  0  0  0
   29.1763   11.0816   59.4760 C   0  0  0  0  0  0  0  0  0  0  0  0
   28.3914   11.9976   59.0480 O   0  0  0  0  0  0  0  0  0  0  0  0
   29.8638    9.0956   59.1493 H   0  0  0  0  0  0  0  0  0  0  0  0
   29.9888   11.3617   60.6441 C   0  0  0  0  0  0  0  0  0  0  0  0
   31.2141   10.7068   60.7939 C   0  0  0  0  0  0  0  0  0  0  0  0
   32.0221   10.9348   61.8645 C   0  0  0  0  0  0  0  0  0  0  0  0
   31.6152   11.8422   62.8310 C   0  0  0  0  0  0  0  0  0  0  0  0
   30.4189   12.5108   62.7279 C   0  0  0  0  0  0  0  0  0  0  0  0
   29.6256   12.2493   61.6209 C   0  0  0  0  0  0  0  0  0  0  0  0
   22.0563    8.1208   52.7418 O   0  0  0  0  0  0  0  0  0  0  0  0
   19.2207    5.2726   53.6500 C   0  0  0  0  0  0  0  0  0  0  0  0
   18.8396    6.4862   53.1019 C   0  0  0  0  0  0  0  0  0  0  0  0
   19.7620    7.4398   52.7963 C   0  0  0  0  0  0  0  0  0  0  0  0
   21.1109    7.1617   53.0510 C   0  0  0  0  0  0  0  0  0  0  0  0
   21.5023    5.9766   53.5914 C   0  0  0  0  0  0  0  0  0  0  0  0
   20.5312    5.0095   53.8962 C   0  0  0  0  0  0  0  0  0  0  0  0
   16.9041    4.5659   53.9816 O   0  0  0  0  0  0  0  0  0  0  0  0
   18.2456    4.2838   53.9633 N   0  0  0  0  0  0  0  0  0  0  0  0
   18.6213    3.1308   54.2269 O   0  0  0  0  0  0  0  0  0  0  0  0
   22.8592    5.6252   53.9197 N   0  0  0  0  0  0  0  0  0  0  0  0
   23.3512    5.7122   55.2015 O   0  0  0  0  0  0  0  0  0  0  0  0
   23.6236    5.2767   53.0137 O   0  0  0  0  0  0  0  0  0  0  0  0
 29 30  1  0  0  0
 30 31  2  0  0  0
 30 23  1  0  0  0
 23 24  2  0  0  0
 24 25  1  0  0  0
 25 26  2  0  0  0
 26 22  1  0  0  0
 22  1  1  0  0  0
  1  2  2  0  0  0
  2  3  1  0  0  0
  3  4  2  0  0  0
  4  5  1  0  0  0
  5  6  2  0  0  0
  4  7  1  0  0  0
  7  8  2  0  0  0
  8  9  1  0  0  0
  9 10  2  0  0  0
 10 12  1  0  0  0
 12 13  1  0  0  0
 13 14  2  0  0  0
 13 16  1  0  0  0
 16 17  2  0  0  0
 17 18  1  0  0  0
 18 19  2  0  0  0
 19 20  1  0  0  0
 20 21  2  0  0  0
 10 11  1  0  0  0
 26 27  1  0  0  0
 27 28  2  0  0  0
 27 32  1  0  0  0
 32 33  1  0  0  0
 32 34  2  0  0  0
 28 23  1  0  0  0
  6  1  1  0  0  0
 11  7  1  0  0  0
 21 16  1  0  0  0
 12 15  1  0  0  0
M  CHG 1  29  -1
M  CHG 1  30   1
M  CHG 1  32   1
M  CHG 1  33  -1
M  END
> <minimizedAffinity>
10.20293

> <CNNscore>
0.4460860193

> <CNNaffinity>
6.3884177208

> <CNN_VS>
2.8497838974

> <CNNaffinity_variance>
0.1260838956

$$$$
[H]c1c([H])c([H])c(C(=O)N([H])c2nnc(-c3c([H])c([H])c(Oc4c([H])c([H])c([N+](=O)[O-])c([H])c4[N+](=O)[O-])c([H])c3[H])s2)c([H])c1[H]


 34 37  0  0  0  0  0  0  0  0999 V2000
   23.5263    7.8359   53.4915 C   0  0  0  0  0  0  0  0  0  0  0  0
   24.8678    7.5125   53.2900 C   0  0  0  0  0  0  0  0  0  0  0  0
   25.7845    8.0436   54.1470 C   0  0  0  0  0  0  0  0  0  0  0  0
   25.4510    8.8757   55.1915 C   0  0  0  0  0  0  0  0  0  0  0  0
   24.1514    9.2005   55.4024 C   0  0  0  0  0  0  0  0  0  0  0  0
   23.1887    8.6679   54.5359 C   0  0  0  0  0  0  0  0  0  0  0  0
   26.5456    9.3834   56.0358 C   0  0  0  0  0  0  0  0  0  0  0  0
   27.7202    9.8546   55.6360 N   0  0  0  0  0  0  0  0  0  0  0  0
   28.5565   10.2576   56.4896 N   0  0  0  0  0  0  0  0  0  0  0  0
   28.2598   10.2095   57.7839 C   0  0  0  0  0  0  0  0  0  0  0  0
   26.6851    9.5428   57.7323 S   0  0  0  0  0  0  0  0  0  0  0  0
   29.0637   10.6176   58.9065 N   0  0  0  0  0  0  0  0  0  0  0  0
   29.9232    9.7038   59.5479 C   0  0  0  0  0  0  0  0  0  0  0  0
   29.9874    8.4936   59.1362 O   0  0  0  0  0  0  0  0  0  0  0  0
   29.0043   11.5958   59.2326 H   0  0  0  0  0  0  0  0  0  0  0  0
   30.7493   10.0924   60.6747 C   0  0  0  0  0  0  0  0  0  0  0  0
   30.9753   11.4499   60.9169 C   0  0  0  0  0  0  0  0  0  0  0  0
   31.7350   11.8744   61.9627 C   0  0  0  0  0  0  0  0  0  0  0  0
   32.2987   10.9312   62.8088 C   0  0  0  0  0  0  0  0  0  0  0  0
   32.1053    9.5850   62.6116 C   0  0  0  0  0  0  0  0  0  0  0  0
   31.3240    9.1952   61.5340 C   0  0  0  0  0  0  0  0  0  0  0  0
   22.6436    7.2677   52.5945 O   0  0  0  0  0  0  0  0  0  0  0  0
   19.3657    5.0082   53.6563 C   0  0  0  0  0  0  0  0  0  0  0  0
   20.6192    4.6963   54.1560 C   0  0  0  0  0  0  0  0  0  0  0  0
   21.7140    5.4305   53.8156 C   0  0  0  0  0  0  0  0  0  0  0  0
   21.5402    6.5132   52.9443 C   0  0  0  0  0  0  0  0  0  0  0  0
   20.3171    6.8318   52.4421 C   0  0  0  0  0  0  0  0  0  0  0  0
   19.2038    6.0592   52.8099 C   0  0  0  0  0  0  0  0  0  0  0  0
   16.9800    4.4920   53.5198 O   0  0  0  0  0  0  0  0  0  0  0  0
   18.2291    4.2327   54.0219 N   0  0  0  0  0  0  0  0  0  0  0  0
   18.3736    3.2924   54.8188 O   0  0  0  0  0  0  0  0  0  0  0  0
   20.0569    7.9010   51.5140 N   0  0  0  0  0  0  0  0  0  0  0  0
   19.5417    9.1123   51.9142 O   0  0  0  0  0  0  0  0  0  0  0  0
   20.2592    7.7115   50.3099 O   0  0  0  0  0  0  0  0  0  0  0  0
 29 30  1  0  0  0
 30 31  2  0  0  0
 30 23  1  0  0  0
 23 24  2  0  0  0
 24 25  1  0  0  0
 25 26  2  0  0  0
 26 22  1  0  0  0
 22  1  1  0  0  0
  1  2  2  0  0  0
  2  3  1  0  0  0
  3  4  2  0  0  0
  4  5  1  0  0  0
  5  6  2  0  0  0
  4  7  1  0  0  0
  7  8  2  0  0  0
  8  9  1  0  0  0
  9 10  2  0  0  0
 10 12  1  0  0  0
 12 13  1  0  0  0
 13 14  2  0  0  0
 13 16  1  0  0  0
 16 17  2  0  0  0
 17 18  1  0  0  0
 18 19  2  0  0  0
 19 20  1  0  0  0
 20 21  2  0  0  0
 10 11  1  0  0  0
 26 27  1  0  0  0
 27 28  2  0  0  0
 27 32  1  0  0  0
 32 33  1  0  0  0
 32 34  2  0  0  0
 28 23  1  0  0  0
  6  1  1  0  0  0
 11  7  1  0  0  0
 21 16  1  0  0  0
 12 15  1  0  0  0
M  CHG 1  29  -1
M  CHG 1  30   1
M  CHG 1  32   1
M  CHG 1  33  -1
M  END
> <minimizedAffinity>
20.05879

> <CNNscore>
0.4363807142

> <CNNaffinity>
6.1202874184

> <CNN_VS>
2.6707754135

> <CNNaffinity_variance>
0.2409099638

$$$$
[H]c1c([H])c([H])c(C(=O)N([H])c2nnc(-c3c([H])c([H])c(Oc4c([H])c([H])c([N+](=O)[O-])c([H])c4[N+](=O)[O-])c([H])c3[H])s2)c([H])c1[H]


 34 37  0  0  0  0  0  0  0  0999 V2000
   20.4082    4.3566   53.1019 C   0  0  0  0  0  0  0  0  0  0  0  0
   19.3927    5.2975   52.9339 C   0  0  0  0  0  0  0  0  0  0  0  0
   19.7294    6.6156   53.0112 C   0  0  0  0  0  0  0  0  0  0  0  0
   21.0122    7.0567   53.2449 C   0  0  0  0  0  0  0  0  0  0  0  0
   22.0120    6.1557   53.4104 C   0  0  0  0  0  0  0  0  0  0  0  0
   21.6931    4.7942   53.3355 C   0  0  0  0  0  0  0  0  0  0  0  0
   21.2323    8.5113   53.3104 C   0  0  0  0  0  0  0  0  0  0  0  0
   21.5102    9.2370   54.3864 N   0  0  0  0  0  0  0  0  0  0  0  0
   21.6751   10.4825   54.2761 N   0  0  0  0  0  0  0  0  0  0  0  0
   21.5705   11.0631   53.0855 C   0  0  0  0  0  0  0  0  0  0  0  0
   21.2149    9.7140   52.0954 S   0  0  0  0  0  0  0  0  0  0  0  0
   21.7231   12.4542   52.7469 N   0  0  0  0  0  0  0  0  0  0  0  0
   21.6041   12.8885   51.4119 C   0  0  0  0  0  0  0  0  0  0  0  0
   21.3654   12.0389   50.4849 O   0  0  0  0  0  0  0  0  0  0  0  0
   21.9168   13.1325   53.5014 H   0  0  0  0  0  0  0  0  0  0  0  0
   21.7447   14.2848   51.0463 C   0  0  0  0  0  0  0  0  0  0  0  0
   20.7397   15.1870   51.4052 C   0  0  0  0  0  0  0  0  0  0  0  0
   20.8203   16.5095   51.0964 C   0  0  0  0  0  0  0  0  0  0  0  0
   21.9314   16.9709   50.4068 C   0  0  0  0  0  0  0  0  0  0  0  0
   22.9456   16.1225   50.0321 C   0  0  0  0  0  0  0  0  0  0  0  0
   22.8239   14.7821   50.3669 C   0  0  0  0  0  0  0  0  0  0  0  0
   20.0085    3.0380   53.0114 O   0  0  0  0  0  0  0  0  0  0  0  0
   20.7182    0.1618   55.8752 C   0  0  0  0  0  0  0  0  0  0  0  0
   21.3640    0.1017   54.6514 C   0  0  0  0  0  0  0  0  0  0  0  0
   21.1414    1.0422   53.6925 C   0  0  0  0  0  0  0  0  0  0  0  0
   20.2398    2.0759   53.9758 C   0  0  0  0  0  0  0  0  0  0  0  0
   19.5949    2.1485   55.1710 C   0  0  0  0  0  0  0  0  0  0  0  0
   19.8432    1.1666   56.1434 C   0  0  0  0  0  0  0  0  0  0  0  0
   22.1524   -0.9024   57.5446 O   0  0  0  0  0  0  0  0  0  0  0  0
   20.9616   -0.8277   56.8694 N   0  0  0  0  0  0  0  0  0  0  0  0
   20.0680   -1.6473   57.1338 O   0  0  0  0  0  0  0  0  0  0  0  0
   18.6271    3.1523   55.5290 N   0  0  0  0  0  0  0  0  0  0  0  0
   17.5559    3.4608   54.7228 O   0  0  0  0  0  0  0  0  0  0  0  0
   18.7865    3.7923   56.5738 O   0  0  0  0  0  0  0  0  0  0  0  0
 29 30  1  0  0  0
 30 31  2  0  0  0
 30 23  1  0  0  0
 23 24  2  0  0  0
 24 25  1  0  0  0
 25 26  2  0  0  0
 26 22  1  0  0  0
 22  1  1  0  0  0
  1  2  2  0  0  0
  2  3  1  0  0  0
  3  4  2  0  0  0
  4  5  1  0  0  0
  5  6  2  0  0  0
  4  7  1  0  0  0
  7  8  2  0  0  0
  8  9  1  0  0  0
  9 10  2  0  0  0
 10 12  1  0  0  0
 12 13  1  0  0  0
 13 14  2  0  0  0
 13 16  1  0  0  0
 16 17  2  0  0  0
 17 18  1  0  0  0
 18 19  2  0  0  0
 19 20  1  0  0  0
 20 21  2  0  0  0
 10 11  1  0  0  0
 26 27  1  0  0  0
 27 28  2  0  0  0
 27 32  1  0  0  0
 32 33  1  0  0  0
 32 34  2  0  0  0
 28 23  1  0  0  0
  6  1  1  0  0  0
 11  7  1  0  0  0
 21 16  1  0  0  0
 12 15  1  0  0  0
M  CHG 1  29  -1
M  CHG 1  30   1
M  CHG 1  32   1
M  CHG 1  33  -1
M  END
> <minimizedAffinity>
56.91533

> <CNNscore>
0.4080650806

> <CNNaffinity>
5.9827203751

> <CNN_VS>
2.4413392544

> <CNNaffinity_variance>
0.1025023833

$$$$
[H]c1c([H])c([H])c(C([H])([H])OC(=O)N([H])[C@]([H])(C(=O)N([H])[C@]([H])(C(=O)N([H])[C@]([H])(C(=O)N([H])[C@]([H])(C(=O)N([H])[H])C([H])([H])C([H])(C([H])([H])[H])C([H])([H])[H])C([H])([H])c2c([H])c([H])c([H])c([H])c2[H])C([H])([H])c2c([H])c([H])c([H])c([H])c2[H])C([H])([H])c2c([H])c([H])c([H])c([H])c2[H])c([H])c1[H]


 58 61  0  0  0  0  0  0  0  0999 V2000
   24.4357    6.8813   53.6412 C   0  0  0  0  0  0  0  0  0  0  0  0
   21.9422    7.3317   53.2835 N   0  0  0  0  0  0  0  0  0  0  0  0
   23.1504    6.8239   52.8373 C   0  0  0  0  0  0  0  0  0  0  0  0
   23.2270    6.2616   51.6820 O   0  0  0  0  0  0  0  0  0  0  0  0
   21.9968    7.7602   54.2862 H   0  0  0  0  0  0  0  0  0  0  0  0
   20.6360    7.4161   52.6944 C   0  0  0  0  0  0  0  0  0  0  0  0
   19.3778    5.5323   53.9619 N   0  0  0  0  0  0  0  0  0  0  0  0
   19.9066    6.1725   52.8340 C   0  0  0  0  0  0  0  0  0  0  0  0
   19.6774    5.5177   51.7189 O   0  0  0  0  0  0  0  0  0  0  0  0
   19.4242    5.9478   54.9128 H   0  0  0  0  0  0  0  0  0  0  0  0
   18.6618    4.2545   53.8728 C   0  0  0  0  0  0  0  0  0  0  0  0
   19.3657    3.2880   53.0227 C   0  0  0  0  0  0  0  0  0  0  0  0
   20.7608    3.0457   53.0862 N   0  0  0  0  0  0  0  0  0  0  0  0
   18.7184    2.6208   52.1786 O   0  0  0  0  0  0  0  0  0  0  0  0
   21.2284    2.1713   52.7808 H   0  0  0  0  0  0  0  0  0  0  0  0
   21.3751    3.7967   53.4678 H   0  0  0  0  0  0  0  0  0  0  0  0
   17.2161    4.4380   53.6175 C   0  0  0  0  0  0  0  0  0  0  0  0
   14.8873    3.7636   53.6060 C   0  0  0  0  0  0  0  0  0  0  0  0
   16.2667    3.4845   54.2355 C   0  0  0  0  0  0  0  0  0  0  0  0
   16.1090    3.6492   55.7139 C   0  0  0  0  0  0  0  0  0  0  0  0
   20.4917    8.2073   51.4535 C   0  0  0  0  0  0  0  0  0  0  0  0
   20.9239    9.6375   51.5484 C   0  0  0  0  0  0  0  0  0  0  0  0
   20.8104   10.5720   50.5749 C   0  0  0  0  0  0  0  0  0  0  0  0
   21.2019   11.8785   50.7578 C   0  0  0  0  0  0  0  0  0  0  0  0
   21.7373   12.3266   51.9475 C   0  0  0  0  0  0  0  0  0  0  0  0
   21.8571   11.3815   52.9435 C   0  0  0  0  0  0  0  0  0  0  0  0
   21.4694   10.0738   52.7714 C   0  0  0  0  0  0  0  0  0  0  0  0
   25.2726    7.9524   53.1717 N   0  0  0  0  0  0  0  0  0  0  0  0
   26.6175    8.0329   53.6421 C   0  0  0  0  0  0  0  0  0  0  0  0
   27.0195    7.1650   54.4677 O   0  0  0  0  0  0  0  0  0  0  0  0
   24.9645    8.6866   52.5012 H   0  0  0  0  0  0  0  0  0  0  0  0
   27.5925    9.0810   53.2197 C   0  0  0  0  0  0  0  0  0  0  0  0
   28.3671    9.5211   54.3433 N   0  0  0  0  0  0  0  0  0  0  0  0
   27.8752    9.5866   55.6654 C   0  0  0  0  0  0  0  0  0  0  0  0
   26.6838    9.2283   55.8913 O   0  0  0  0  0  0  0  0  0  0  0  0
   29.3574    9.8193   54.2053 H   0  0  0  0  0  0  0  0  0  0  0  0
   28.6329   10.0297   56.7517 O   0  0  0  0  0  0  0  0  0  0  0  0
   28.1010   11.1292   57.5028 C   0  0  0  0  0  0  0  0  0  0  0  0
   28.6401   11.0751   58.8689 C   0  0  0  0  0  0  0  0  0  0  0  0
   29.0498    9.8838   59.4057 C   0  0  0  0  0  0  0  0  0  0  0  0
   29.5320    9.8506   60.6907 C   0  0  0  0  0  0  0  0  0  0  0  0
   29.6091   11.0055   61.4487 C   0  0  0  0  0  0  0  0  0  0  0  0
   29.1931   12.1936   60.8922 C   0  0  0  0  0  0  0  0  0  0  0  0
   28.7164   12.2226   59.6211 C   0  0  0  0  0  0  0  0  0  0  0  0
   28.3653    8.4911   52.0797 C   0  0  0  0  0  0  0  0  0  0  0  0
   28.3475    9.3640   50.8840 C   0  0  0  0  0  0  0  0  0  0  0  0
   28.5945   10.7410   51.0510 C   0  0  0  0  0  0  0  0  0  0  0  0
   28.5602   11.6073   49.9827 C   0  0  0  0  0  0  0  0  0  0  0  0
   28.2848   11.1728   48.7154 C   0  0  0  0  0  0  0  0  0  0  0  0
   28.0401    9.8298   48.5275 C   0  0  0  0  0  0  0  0  0  0  0  0
   28.0746    8.9511   49.6055 C   0  0  0  0  0  0  0  0  0  0  0  0
   24.0940    7.0176   55.1102 C   0  0  0  0  0  0  0  0  0  0  0  0
   23.1334    8.0805   55.4153 C   0  0  0  0  0  0  0  0  0  0  0  0
   23.4701    9.4064   55.5484 C   0  0  0  0  0  0  0  0  0  0  0  0
   22.5090   10.3773   55.8532 C   0  0  0  0  0  0  0  0  0  0  0  0
   21.1882   10.0410   56.0311 C   0  0  0  0  0  0  0  0  0  0  0  0
   20.8411    8.7125   55.8981 C   0  0  0  0  0  0  0  0  0  0  0  0
   21.7820    7.7560   55.5990 C   0  0  0  0  0  0  0  0  0  0  0  0
 18 19  1  0  0  0
 19 20  1  0  0  0
 19 17  1  0  0  0
 17 11  1  0  0  0
 11  7  1  0  0  0
  7  8  1  0  0  0
  8  9  2  0  0  0
  8  6  1  0  0  0
  6 21  1  0  0  0
 21 22  1  0  0  0
 22 23  2  0  0  0
 23 24  1  0  0  0
 24 25  2  0  0  0
 25 26  1  0  0  0
 26 27  2  0  0  0
  6  2  1  0  0  0
  2  3  1  0  0  0
  3  4  2  0  0  0
  3  1  1  0  0  0
  1 52  1  0  0  0
 52 53  1  0  0  0
 53 54  2  0  0  0
 54 55  1  0  0  0
 55 56  2  0  0  0
 56 57  1  0  0  0
 57 58  2  0  0  0
  1 28  1  0  0  0
 28 29  1  0  0  0
 29 30  2  0  0  0
 29 32  1  0  0  0
 32 45  1  0  0  0
 45 46  1  0  0  0
 46 47  2  0  0  0
 47 48  1  0  0  0
 48 49  2  0  0  0
 49 50  1  0  0  0
 50 51  2  0  0  0
 32 33  1  0  0  0
 33 34  1  0  0  0
 34 35  2  0  0  0
 34 37  1  0  0  0
 37 38  1  0  0  0
 38 39  1  0  0  0
 39 40  2  0  0  0
 40 41  1  0  0  0
 41 42  2  0  0  0
 42 43  1  0  0  0
 43 44  2  0  0  0
 11 12  1  0  0  0
 12 13  1  0  0  0
 12 14  2  0  0  0
 27 22  1  0  0  0
 58 53  1  0  0  0
 51 46  1  0  0  0
 44 39  1  0  0  0
  7 10  1  0  0  0
  2  5  1  0  0  0
 28 31  1  0  0  0
 33 36  1  0  0  0
 13 15  1  0  0  0
 13 16  1  0  0  0
M  END
> <minimizedAffinity>
30.08641

> <CNNscore>
0.5255339742

> <CNNaffinity>
7.2345404625

> <CNN_VS>
3.8019967079

> <CNNaffinity_variance>
0.8349350691

$$$$
[H]c1c([H])c([H])c(C([H])([H])OC(=O)N([H])[C@]([H])(C(=O)N([H])[C@]([H])(C(=O)N([H])[C@]([H])(C(=O)N([H])[C@]([H])(C(=O)N([H])[H])C([H])([H])C([H])(C([H])([H])[H])C([H])([H])[H])C([H])([H])c2c([H])c([H])c([H])c([H])c2[H])C([H])([H])c2c([H])c([H])c([H])c([H])c2[H])C([H])([H])c2c([H])c([H])c([H])c([H])c2[H])c([H])c1[H]


 58 61  0  0  0  0  0  0  0  0999 V2000
   26.9280    9.6476   56.5232 C   0  0  0  0  0  0  0  0  0  0  0  0
   24.4325    9.8571   55.9972 N   0  0  0  0  0  0  0  0  0  0  0  0
   25.5709    9.0835   56.1471 C   0  0  0  0  0  0  0  0  0  0  0  0
   25.5141    7.8102   55.9683 O   0  0  0  0  0  0  0  0  0  0  0  0
   24.5998   10.9169   56.1995 H   0  0  0  0  0  0  0  0  0  0  0  0
   23.0808    9.5512   55.6235 C   0  0  0  0  0  0  0  0  0  0  0  0
   22.1362    7.2130   55.0077 N   0  0  0  0  0  0  0  0  0  0  0  0
   23.0002    8.3084   54.8838 C   0  0  0  0  0  0  0  0  0  0  0  0
   23.8724    8.1654   53.9124 O   0  0  0  0  0  0  0  0  0  0  0  0
   21.3538    7.1935   55.6907 H   0  0  0  0  0  0  0  0  0  0  0  0
   22.2343    6.0364   54.1363 C   0  0  0  0  0  0  0  0  0  0  0  0
   23.6280    5.6800   53.8485 C   0  0  0  0  0  0  0  0  0  0  0  0
   24.4500    6.3771   52.9279 N   0  0  0  0  0  0  0  0  0  0  0  0
   24.1506    4.7028   54.4387 O   0  0  0  0  0  0  0  0  0  0  0  0
   25.4873    6.3931   52.9486 H   0  0  0  0  0  0  0  0  0  0  0  0
   23.9883    6.9196   52.1667 H   0  0  0  0  0  0  0  0  0  0  0  0
   21.3142    6.1160   52.9805 C   0  0  0  0  0  0  0  0  0  0  0  0
   19.9865    7.8237   51.8854 C   0  0  0  0  0  0  0  0  0  0  0  0
   20.0724    6.9096   53.1240 C   0  0  0  0  0  0  0  0  0  0  0  0
   20.0523    7.8032   54.3235 C   0  0  0  0  0  0  0  0  0  0  0  0
   22.1999   10.6780   55.2483 C   0  0  0  0  0  0  0  0  0  0  0  0
   21.9377   10.8291   53.7821 C   0  0  0  0  0  0  0  0  0  0  0  0
   21.6392    9.8305   52.9175 C   0  0  0  0  0  0  0  0  0  0  0  0
   21.3765   10.0614   51.5865 C   0  0  0  0  0  0  0  0  0  0  0  0
   21.3987   11.3283   51.0412 C   0  0  0  0  0  0  0  0  0  0  0  0
   21.7024   12.3505   51.9144 C   0  0  0  0  0  0  0  0  0  0  0  0
   21.9667   12.1309   53.2455 C   0  0  0  0  0  0  0  0  0  0  0  0
   27.1079    9.6106   57.9495 N   0  0  0  0  0  0  0  0  0  0  0  0
   28.2087   10.3142   58.5237 C   0  0  0  0  0  0  0  0  0  0  0  0
   28.9952   10.9338   57.7529 O   0  0  0  0  0  0  0  0  0  0  0  0
   26.4827    9.0996   58.6063 H   0  0  0  0  0  0  0  0  0  0  0  0
   28.4963   10.3711   59.9872 C   0  0  0  0  0  0  0  0  0  0  0  0
   28.2218    9.1029   60.5974 N   0  0  0  0  0  0  0  0  0  0  0  0
   29.2033    8.1208   60.8547 C   0  0  0  0  0  0  0  0  0  0  0  0
   30.4048    8.3630   60.5441 O   0  0  0  0  0  0  0  0  0  0  0  0
   27.2457    8.8627   60.8771 H   0  0  0  0  0  0  0  0  0  0  0  0
   28.9244    6.8824   61.4372 O   0  0  0  0  0  0  0  0  0  0  0  0
   29.1572    5.7222   60.6274 C   0  0  0  0  0  0  0  0  0  0  0  0
   28.1424    4.7088   60.9481 C   0  0  0  0  0  0  0  0  0  0  0  0
   28.5153    3.4824   61.4297 C   0  0  0  0  0  0  0  0  0  0  0  0
   27.5535    2.5420   61.7045 C   0  0  0  0  0  0  0  0  0  0  0  0
   26.2133    2.8188   61.5013 C   0  0  0  0  0  0  0  0  0  0  0  0
   25.8573    4.0571   61.0172 C   0  0  0  0  0  0  0  0  0  0  0  0
   26.8113    4.9845   60.7460 C   0  0  0  0  0  0  0  0  0  0  0  0
   29.9037   10.8696   60.1126 C   0  0  0  0  0  0  0  0  0  0  0  0
   29.9562   12.3009   60.4874 C   0  0  0  0  0  0  0  0  0  0  0  0
   28.7903   13.0788   60.3431 C   0  0  0  0  0  0  0  0  0  0  0  0
   28.7856   14.4211   60.6447 C   0  0  0  0  0  0  0  0  0  0  0  0
   29.9083   15.0589   61.0957 C   0  0  0  0  0  0  0  0  0  0  0  0
   31.0608   14.3184   61.2451 C   0  0  0  0  0  0  0  0  0  0  0  0
   31.0688   12.9608   60.9414 C   0  0  0  0  0  0  0  0  0  0  0  0
   28.0043    8.8789   55.7858 C   0  0  0  0  0  0  0  0  0  0  0  0
   27.9743    9.0353   54.3297 C   0  0  0  0  0  0  0  0  0  0  0  0
   28.8224    9.8574   53.6269 C   0  0  0  0  0  0  0  0  0  0  0  0
   28.7384    9.9755   52.2347 C   0  0  0  0  0  0  0  0  0  0  0  0
   27.8023    9.2717   51.5152 C   0  0  0  0  0  0  0  0  0  0  0  0
   26.9477    8.4431   52.2125 C   0  0  0  0  0  0  0  0  0  0  0  0
   27.0269    8.3244   53.5798 C   0  0  0  0  0  0  0  0  0  0  0  0
 18 19  1  0  0  0
 19 20  1  0  0  0
 19 17  1  0  0  0
 17 11  1  0  0  0
 11  7  1  0  0  0
  7  8  1  0  0  0
  8  9  2  0  0  0
  8  6  1  0  0  0
  6 21  1  0  0  0
 21 22  1  0  0  0
 22 23  2  0  0  0
 23 24  1  0  0  0
 24 25  2  0  0  0
 25 26  1  0  0  0
 26 27  2  0  0  0
  6  2  1  0  0  0
  2  3  1  0  0  0
  3  4  2  0  0  0
  3  1  1  0  0  0
  1 52  1  0  0  0
 52 53  1  0  0  0
 53 54  2  0  0  0
 54 55  1  0  0  0
 55 56  2  0  0  0
 56 57  1  0  0  0
 57 58  2  0  0  0
  1 28  1  0  0  0
 28 29  1  0  0  0
 29 30  2  0  0  0
 29 32  1  0  0  0
 32 45  1  0  0  0
 45 46  1  0  0  0
 46 47  2  0  0  0
 47 48  1  0  0  0
 48 49  2  0  0  0
 49 50  1  0  0  0
 50 51  2  0  0  0
 32 33  1  0  0  0
 33 34  1  0  0  0
 34 35  2  0  0  0
 34 37  1  0  0  0
 37 38  1  0  0  0
 38 39  1  0  0  0
 39 40  2  0  0  0
 40 41  1  0  0  0
 41 42  2  0  0  0
 42 43  1  0  0  0
 43 44  2  0  0  0
 11 12  1  0  0  0
 12 13  1  0  0  0
 12 14  2  0  0  0
 27 22  1  0  0  0
 58 53  1  0  0  0
 51 46  1  0  0  0
 44 39  1  0  0  0
  7 10  1  0  0  0
  2  5  1  0  0  0
 28 31  1  0  0  0
 33 36  1  0  0  0
 13 15  1  0  0  0
 13 16  1  0  0  0
M  END
> <minimizedAffinity>
19.07071

> <CNNscore>
0.4940097928

> <CNNaffinity>
7.1910696030

> <CNN_VS>
3.5524587631

> <CNNaffinity_variance>
0.9750560522

$$$$
[H]c1c([H])c([H])c(C([H])([H])OC(=O)N([H])[C@]([H])(C(=O)N([H])[C@]([H])(C(=O)N([H])[C@]([H])(C(=O)N([H])[C@]([H])(C(=O)N([H])[H])C([H])([H])C([H])(C([H])([H])[H])C([H])([H])[H])C([H])([H])c2c([H])c([H])c([H])c([H])c2[H])C([H])([H])c2c([H])c([H])c([H])c([H])c2[H])C([H])([H])c2c([H])c([H])c([H])c([H])c2[H])c([H])c1[H]


 58 61  0  0  0  0  0  0  0  0999 V2000
   26.2029    9.5952   56.5928 C   0  0  0  0  0  0  0  0  0  0  0  0
   23.9171   10.1547   55.5874 N   0  0  0  0  0  0  0  0  0  0  0  0
   24.7067    9.3987   56.4371 C   0  0  0  0  0  0  0  0  0  0  0  0
   24.1776    8.4695   57.1536 O   0  0  0  0  0  0  0  0  0  0  0  0
   24.4734   10.9272   55.0529 H   0  0  0  0  0  0  0  0  0  0  0  0
   22.5197   10.1250   55.2611 C   0  0  0  0  0  0  0  0  0  0  0  0
   22.6452    8.2748   53.4446 N   0  0  0  0  0  0  0  0  0  0  0  0
   22.1518    8.8881   54.6031 C   0  0  0  0  0  0  0  0  0  0  0  0
   21.1984    8.1955   55.1828 O   0  0  0  0  0  0  0  0  0  0  0  0
   23.4390    8.6659   52.9007 H   0  0  0  0  0  0  0  0  0  0  0  0
   22.1170    6.9986   52.9491 C   0  0  0  0  0  0  0  0  0  0  0  0
   20.7459    7.1300   52.4440 C   0  0  0  0  0  0  0  0  0  0  0  0
   19.6185    6.5142   53.0432 N   0  0  0  0  0  0  0  0  0  0  0  0
   20.5281    7.8238   51.4205 O   0  0  0  0  0  0  0  0  0  0  0  0
   18.6391    6.8433   52.9486 H   0  0  0  0  0  0  0  0  0  0  0  0
   19.7727    5.6642   53.6269 H   0  0  0  0  0  0  0  0  0  0  0  0
   22.3790    5.8821   53.8837 C   0  0  0  0  0  0  0  0  0  0  0  0
   24.5441    6.6501   54.6589 C   0  0  0  0  0  0  0  0  0  0  0  0
   23.7796    5.4432   54.0793 C   0  0  0  0  0  0  0  0  0  0  0  0
   24.4806    5.0527   52.8168 C   0  0  0  0  0  0  0  0  0  0  0  0
   21.8869   11.3911   54.8334 C   0  0  0  0  0  0  0  0  0  0  0  0
   21.6967   11.5486   53.3568 C   0  0  0  0  0  0  0  0  0  0  0  0
   21.7140   10.5530   52.4391 C   0  0  0  0  0  0  0  0  0  0  0  0
   21.4943   10.7807   51.0998 C   0  0  0  0  0  0  0  0  0  0  0  0
   21.2405   12.0410   50.5997 C   0  0  0  0  0  0  0  0  0  0  0  0
   21.2219   13.0604   51.5271 C   0  0  0  0  0  0  0  0  0  0  0  0
   21.4403   12.8440   52.8671 C   0  0  0  0  0  0  0  0  0  0  0  0
   26.5529    9.6939   57.9841 N   0  0  0  0  0  0  0  0  0  0  0  0
   27.8164   10.2546   58.3387 C   0  0  0  0  0  0  0  0  0  0  0  0
   28.5890   10.6314   57.4126 O   0  0  0  0  0  0  0  0  0  0  0  0
   25.9413    9.3815   58.7662 H   0  0  0  0  0  0  0  0  0  0  0  0
   28.2918   10.4305   59.7425 C   0  0  0  0  0  0  0  0  0  0  0  0
   28.0571    9.2359   60.5001 N   0  0  0  0  0  0  0  0  0  0  0  0
   29.0739    8.3414   60.9003 C   0  0  0  0  0  0  0  0  0  0  0  0
   30.2717    8.6007   60.5891 O   0  0  0  0  0  0  0  0  0  0  0  0
   27.0852    8.9857   60.7855 H   0  0  0  0  0  0  0  0  0  0  0  0
   28.8343    7.1728   61.6266 O   0  0  0  0  0  0  0  0  0  0  0  0
   29.3633    5.9560   61.0827 C   0  0  0  0  0  0  0  0  0  0  0  0
   28.3953    4.8742   61.3113 C   0  0  0  0  0  0  0  0  0  0  0  0
   28.8255    3.5894   61.5099 C   0  0  0  0  0  0  0  0  0  0  0  0
   27.9048    2.5893   61.7019 C   0  0  0  0  0  0  0  0  0  0  0  0
   26.5488    2.8641   61.6977 C   0  0  0  0  0  0  0  0  0  0  0  0
   26.1352    4.1614   61.4971 C   0  0  0  0  0  0  0  0  0  0  0  0
   27.0486    5.1479   61.3070 C   0  0  0  0  0  0  0  0  0  0  0  0
   29.7190   10.8754   59.6428 C   0  0  0  0  0  0  0  0  0  0  0  0
   29.9363   12.1958   60.2762 C   0  0  0  0  0  0  0  0  0  0  0  0
   28.9265   13.1719   60.1634 C   0  0  0  0  0  0  0  0  0  0  0  0
   29.0836   14.4276   60.7034 C   0  0  0  0  0  0  0  0  0  0  0  0
   30.2230   14.7840   61.3707 C   0  0  0  0  0  0  0  0  0  0  0  0
   31.2246   13.8456   61.4940 C   0  0  0  0  0  0  0  0  0  0  0  0
   31.0687   12.5749   60.9495 C   0  0  0  0  0  0  0  0  0  0  0  0
   26.9254    8.4619   55.8951 C   0  0  0  0  0  0  0  0  0  0  0  0
   27.2812    8.7344   54.5005 C   0  0  0  0  0  0  0  0  0  0  0  0
   28.4001    9.4332   54.1148 C   0  0  0  0  0  0  0  0  0  0  0  0
   28.6823    9.6734   52.7650 C   0  0  0  0  0  0  0  0  0  0  0  0
   27.8491    9.2182   51.7710 C   0  0  0  0  0  0  0  0  0  0  0  0
   26.7243    8.5148   52.1492 C   0  0  0  0  0  0  0  0  0  0  0  0
   26.4435    8.2769   53.4737 C   0  0  0  0  0  0  0  0  0  0  0  0
 18 19  1  0  0  0
 19 20  1  0  0  0
 19 17  1  0  0  0
 17 11  1  0  0  0
 11  7  1  0  0  0
  7  8  1  0  0  0
  8  9  2  0  0  0
  8  6  1  0  0  0
  6 21  1  0  0  0
 21 22  1  0  0  0
 22 23  2  0  0  0
 23 24  1  0  0  0
 24 25  2  0  0  0
 25 26  1  0  0  0
 26 27  2  0  0  0
  6  2  1  0  0  0
  2  3  1  0  0  0
  3  4  2  0  0  0
  3  1  1  0  0  0
  1 52  1  0  0  0
 52 53  1  0  0  0
 53 54  2  0  0  0
 54 55  1  0  0  0
 55 56  2  0  0  0
 56 57  1  0  0  0
 57 58  2  0  0  0
  1 28  1  0  0  0
 28 29  1  0  0  0
 29 30  2  0  0  0
 29 32  1  0  0  0
 32 45  1  0  0  0
 45 46  1  0  0  0
 46 47  2  0  0  0
 47 48  1  0  0  0
 48 49  2  0  0  0
 49 50  1  0  0  0
 50 51  2  0  0  0
 32 33  1  0  0  0
 33 34  1  0  0  0
 34 35  2  0  0  0
 34 37  1  0  0  0
 37 38  1  0  0  0
 38 39  1  0  0  0
 39 40  2  0  0  0
 40 41  1  0  0  0
 41 42  2  0  0  0
 42 43  1  0  0  0
 43 44  2  0  0  0
 11 12  1  0  0  0
 12 13  1  0  0  0
 12 14  2  0  0  0
 27 22  1  0  0  0
 58 53  1  0  0  0
 51 46  1  0  0  0
 44 39  1  0  0  0
  7 10  1  0  0  0
  2  5  1  0  0  0
 28 31  1  0  0  0
 33 36  1  0  0  0
 13 15  1  0  0  0
 13 16  1  0  0  0
M  END
> <minimizedAffinity>
25.90350

> <CNNscore>
0.4897920191

> <CNNaffinity>
7.0999016762

> <CNN_VS>
3.4774751663

> <CNNaffinity_variance>
0.9667732120

$$$$
[H]c1c([H])c([H])c(C([H])([H])OC(=O)N([H])[C@]([H])(C(=O)N([H])[C@]([H])(C(=O)N([H])[C@]([H])(C(=O)N([H])[C@]([H])(C(=O)N([H])[H])C([H])([H])C([H])(C([H])([H])[H])C([H])([H])[H])C([H])([H])c2c([H])c([H])c([H])c([H])c2[H])C([H])([H])c2c([H])c([H])c([H])c([H])c2[H])C([H])([H])c2c([H])c([H])c([H])c([H])c2[H])c([H])c1[H]


 58 61  0  0  0  0  0  0  0  0999 V2000
   27.0988    9.7669   56.3617 C   0  0  0  0  0  0  0  0  0  0  0  0
   26.5636    9.1164   53.9453 N   0  0  0  0  0  0  0  0  0  0  0  0
   27.3286    8.9719   55.0902 C   0  0  0  0  0  0  0  0  0  0  0  0
   28.2963    8.1236   55.1170 O   0  0  0  0  0  0  0  0  0  0  0  0
   25.7583    9.8458   54.0524 H   0  0  0  0  0  0  0  0  0  0  0  0
   26.6181    8.5090   52.6460 C   0  0  0  0  0  0  0  0  0  0  0  0
   27.5243    9.4297   50.3944 N   0  0  0  0  0  0  0  0  0  0  0  0
   27.5500    9.1953   51.7750 C   0  0  0  0  0  0  0  0  0  0  0  0
   28.6074    9.7076   52.3618 O   0  0  0  0  0  0  0  0  0  0  0  0
   26.7285    9.1388   49.7935 H   0  0  0  0  0  0  0  0  0  0  0  0
   28.5931   10.1613   49.7047 C   0  0  0  0  0  0  0  0  0  0  0  0
   28.1248   11.4450   49.1709 C   0  0  0  0  0  0  0  0  0  0  0  0
   28.8426   12.2188   48.2248 N   0  0  0  0  0  0  0  0  0  0  0  0
   27.0249   11.9109   49.5577 O   0  0  0  0  0  0  0  0  0  0  0  0
   28.4207   12.9139   47.5802 H   0  0  0  0  0  0  0  0  0  0  0  0
   29.8751   12.0881   48.1620 H   0  0  0  0  0  0  0  0  0  0  0  0
   29.3607    9.2959   48.7823 C   0  0  0  0  0  0  0  0  0  0  0  0
   29.2321    7.0794   47.8082 C   0  0  0  0  0  0  0  0  0  0  0  0
   28.6139    8.4917   47.7883 C   0  0  0  0  0  0  0  0  0  0  0  0
   28.7282    8.9943   46.3840 C   0  0  0  0  0  0  0  0  0  0  0  0
   25.3593    7.9733   52.0846 C   0  0  0  0  0  0  0  0  0  0  0  0
   24.6044    7.0371   52.9761 C   0  0  0  0  0  0  0  0  0  0  0  0
   23.5258    6.2969   52.6259 C   0  0  0  0  0  0  0  0  0  0  0  0
   22.9103    5.4309   53.5006 C   0  0  0  0  0  0  0  0  0  0  0  0
   23.3511    5.2568   54.7961 C   0  0  0  0  0  0  0  0  0  0  0  0
   24.4481    6.0072   55.1609 C   0  0  0  0  0  0  0  0  0  0  0  0
   25.0702    6.8753   54.2954 C   0  0  0  0  0  0  0  0  0  0  0  0
   25.7658   10.3060   56.3812 N   0  0  0  0  0  0  0  0  0  0  0  0
   24.6955    9.5162   55.8640 C   0  0  0  0  0  0  0  0  0  0  0  0
   24.9627    8.3744   55.3935 O   0  0  0  0  0  0  0  0  0  0  0  0
   25.5190   11.2467   56.7520 H   0  0  0  0  0  0  0  0  0  0  0  0
   23.2674    9.9497   55.8428 C   0  0  0  0  0  0  0  0  0  0  0  0
   23.0285   10.8195   54.7282 N   0  0  0  0  0  0  0  0  0  0  0  0
   21.7537   11.3057   54.3641 C   0  0  0  0  0  0  0  0  0  0  0  0
   20.7520   10.9719   55.0599 O   0  0  0  0  0  0  0  0  0  0  0  0
   23.8265   11.1269   54.1302 H   0  0  0  0  0  0  0  0  0  0  0  0
   21.5285   12.1417   53.2683 O   0  0  0  0  0  0  0  0  0  0  0  0
   20.4059   13.0297   53.3549 C   0  0  0  0  0  0  0  0  0  0  0  0
   20.5617   14.0902   52.3497 C   0  0  0  0  0  0  0  0  0  0  0  0
   21.5455   14.0071   51.4008 C   0  0  0  0  0  0  0  0  0  0  0  0
   21.6876   15.0178   50.4826 C   0  0  0  0  0  0  0  0  0  0  0  0
   20.8489   16.1179   50.5043 C   0  0  0  0  0  0  0  0  0  0  0  0
   19.8655   16.1839   51.4650 C   0  0  0  0  0  0  0  0  0  0  0  0
   19.7282   15.1827   52.3719 C   0  0  0  0  0  0  0  0  0  0  0  0
   22.4534    8.6924   55.8813 C   0  0  0  0  0  0  0  0  0  0  0  0
   21.7591    8.4391   54.5985 C   0  0  0  0  0  0  0  0  0  0  0  0
   20.6172    7.6137   54.6015 C   0  0  0  0  0  0  0  0  0  0  0  0
   19.9482    7.3161   53.4367 C   0  0  0  0  0  0  0  0  0  0  0  0
   20.3603    7.8052   52.2278 C   0  0  0  0  0  0  0  0  0  0  0  0
   21.4748    8.6151   52.2000 C   0  0  0  0  0  0  0  0  0  0  0  0
   22.1532    8.9184   53.3760 C   0  0  0  0  0  0  0  0  0  0  0  0
   27.3802    8.8802   57.5566 C   0  0  0  0  0  0  0  0  0  0  0  0
   28.2712    9.4723   58.5571 C   0  0  0  0  0  0  0  0  0  0  0  0
   28.9042    8.7549   59.5438 C   0  0  0  0  0  0  0  0  0  0  0  0
   29.7362    9.3782   60.4811 C   0  0  0  0  0  0  0  0  0  0  0  0
   29.9527   10.7352   60.4504 C   0  0  0  0  0  0  0  0  0  0  0  0
   29.3222   11.4630   59.4625 C   0  0  0  0  0  0  0  0  0  0  0  0
   28.5044   10.8546   58.5401 C   0  0  0  0  0  0  0  0  0  0  0  0
 18 19  1  0  0  0
 19 20  1  0  0  0
 19 17  1  0  0  0
 17 11  1  0  0  0
 11  7  1  0  0  0
  7  8  1  0  0  0
  8  9  2  0  0  0
  8  6  1  0  0  0
  6 21  1  0  0  0
 21 22  1  0  0  0
 22 23  2  0  0  0
 23 24  1  0  0  0
 24 25  2  0  0  0
 25 26  1  0  0  0
 26 27  2  0  0  0
  6  2  1  0  0  0
  2  3  1  0  0  0
  3  4  2  0  0  0
  3  1  1  0  0  0
  1 52  1  0  0  0
 52 53  1  0  0  0
 53 54  2  0  0  0
 54 55  1  0  0  0
 55 56  2  0  0  0
 56 57  1  0  0  0
 57 58  2  0  0  0
  1 28  1  0  0  0
 28 29  1  0  0  0
 29 30  2  0  0  0
 29 32  1  0  0  0
 32 45  1  0  0  0
 45 46  1  0  0  0
 46 47  2  0  0  0
 47 48  1  0  0  0
 48 49  2  0  0  0
 49 50  1  0  0  0
 50 51  2  0  0  0
 32 33  1  0  0  0
 33 34  1  0  0  0
 34 35  2  0  0  0
 34 37  1  0  0  0
 37 38  1  0  0  0
 38 39  1  0  0  0
 39 40  2  0  0  0
 40 41  1  0  0  0
 41 42  2  0  0  0
 42 43  1  0  0  0
 43 44  2  0  0  0
 11 12  1  0  0  0
 12 13  1  0  0  0
 12 14  2  0  0  0
 27 22  1  0  0  0
 58 53  1  0  0  0
 51 46  1  0  0  0
 44 39  1  0  0  0
  7 10  1  0  0  0
  2  5  1  0  0  0
 28 31  1  0  0  0
 33 36  1  0  0  0
 13 15  1  0  0  0
 13 16  1  0  0  0
M  END
> <minimizedAffinity>
31.77647

> <CNNscore>
0.4726857841

> <CNNaffinity>
6.9033408165

> <CNN_VS>
3.2631111145

> <CNNaffinity_variance>
0.6820628047

$$$$
[H]c1c([H])c([H])c(C([H])([H])OC(=O)N([H])[C@]([H])(C(=O)N([H])[C@]([H])(C(=O)N([H])[C@]([H])(C(=O)N([H])[C@]([H])(C(=O)N([H])[H])C([H])([H])C([H])(C([H])([H])[H])C([H])([H])[H])C([H])([H])c2c([H])c([H])c([H])c([H])c2[H])C([H])([H])c2c([H])c([H])c([H])c([H])c2[H])C([H])([H])c2c([H])c([H])c([H])c([H])c2[H])c([H])c1[H]


 58 61  0  0  0  0  0  0  0  0999 V2000
   24.7328    7.2663   53.3079 C   0  0  0  0  0  0  0  0  0  0  0  0
   22.2201    7.0781   52.8614 N   0  0  0  0  0  0  0  0  0  0  0  0
   23.3530    7.8478   53.0643 C   0  0  0  0  0  0  0  0  0  0  0  0
   23.2716    9.1322   53.0497 O   0  0  0  0  0  0  0  0  0  0  0  0
   22.4191    6.0046   52.8704 H   0  0  0  0  0  0  0  0  0  0  0  0
   20.8383    7.4032   52.6494 C   0  0  0  0  0  0  0  0  0  0  0  0
   19.5112    5.6137   53.9817 N   0  0  0  0  0  0  0  0  0  0  0  0
   19.9850    6.2460   52.8252 C   0  0  0  0  0  0  0  0  0  0  0  0
   19.5572    5.6798   51.7202 O   0  0  0  0  0  0  0  0  0  0  0  0
   19.7119    5.9717   54.9359 H   0  0  0  0  0  0  0  0  0  0  0  0
   18.6418    4.4328   53.9277 C   0  0  0  0  0  0  0  0  0  0  0  0
   19.2291    3.3540   53.1254 C   0  0  0  0  0  0  0  0  0  0  0  0
   20.6221    3.1812   52.9287 N   0  0  0  0  0  0  0  0  0  0  0  0
   18.4760    2.5184   52.5675 O   0  0  0  0  0  0  0  0  0  0  0  0
   21.0829    2.2841   52.6850 H   0  0  0  0  0  0  0  0  0  0  0  0
   21.2422    4.0126   53.0347 H   0  0  0  0  0  0  0  0  0  0  0  0
   17.2337    4.7852   53.6419 C   0  0  0  0  0  0  0  0  0  0  0  0
   16.8512    3.4475   55.6275 C   0  0  0  0  0  0  0  0  0  0  0  0
   16.1682    4.1008   54.4094 C   0  0  0  0  0  0  0  0  0  0  0  0
   15.4813    3.0043   53.6587 C   0  0  0  0  0  0  0  0  0  0  0  0
   20.5182    8.3877   51.5935 C   0  0  0  0  0  0  0  0  0  0  0  0
   20.9764    9.7879   51.8592 C   0  0  0  0  0  0  0  0  0  0  0  0
   21.2072   10.7427   50.9270 C   0  0  0  0  0  0  0  0  0  0  0  0
   21.5941   12.0206   51.2605 C   0  0  0  0  0  0  0  0  0  0  0  0
   21.7730   12.4173   52.5695 C   0  0  0  0  0  0  0  0  0  0  0  0
   21.5409   11.4512   53.5246 C   0  0  0  0  0  0  0  0  0  0  0  0
   21.1544   10.1718   53.2026 C   0  0  0  0  0  0  0  0  0  0  0  0
   25.6249    8.2822   53.7980 N   0  0  0  0  0  0  0  0  0  0  0  0
   26.9149    7.8966   54.2711 C   0  0  0  0  0  0  0  0  0  0  0  0
   27.2204    6.6706   54.2549 O   0  0  0  0  0  0  0  0  0  0  0  0
   25.3954    9.2968   53.8333 H   0  0  0  0  0  0  0  0  0  0  0  0
   27.9393    8.8519   54.7867 C   0  0  0  0  0  0  0  0  0  0  0  0
   28.6273    9.4792   53.6963 N   0  0  0  0  0  0  0  0  0  0  0  0
   28.1537    9.4929   52.3660 C   0  0  0  0  0  0  0  0  0  0  0  0
   27.0512    8.9313   52.1053 O   0  0  0  0  0  0  0  0  0  0  0  0
   29.5371    9.9611   53.8660 H   0  0  0  0  0  0  0  0  0  0  0  0
   28.8375   10.0948   51.3075 O   0  0  0  0  0  0  0  0  0  0  0  0
   28.0511   10.4980   50.1783 C   0  0  0  0  0  0  0  0  0  0  0  0
   28.4114    9.6600   49.0261 C   0  0  0  0  0  0  0  0  0  0  0  0
   28.1836   10.1010   47.7498 C   0  0  0  0  0  0  0  0  0  0  0  0
   28.5088    9.2952   46.6870 C   0  0  0  0  0  0  0  0  0  0  0  0
   29.0640    8.0443   46.8899 C   0  0  0  0  0  0  0  0  0  0  0  0
   29.2862    7.6181   48.1796 C   0  0  0  0  0  0  0  0  0  0  0  0
   28.9629    8.4176   49.2285 C   0  0  0  0  0  0  0  0  0  0  0  0
   27.2138    9.7709   55.7215 C   0  0  0  0  0  0  0  0  0  0  0  0
   27.8796    9.8626   57.0407 C   0  0  0  0  0  0  0  0  0  0  0  0
   28.0268    8.6879   57.8046 C   0  0  0  0  0  0  0  0  0  0  0  0
   28.6084    8.7149   59.0511 C   0  0  0  0  0  0  0  0  0  0  0  0
   29.0673    9.8790   59.6035 C   0  0  0  0  0  0  0  0  0  0  0  0
   28.9343   11.0409   58.8747 C   0  0  0  0  0  0  0  0  0  0  0  0
   28.3472   11.0169   57.6138 C   0  0  0  0  0  0  0  0  0  0  0  0
   24.6143    6.0945   54.2597 C   0  0  0  0  0  0  0  0  0  0  0  0
   23.5029    6.1919   55.2090 C   0  0  0  0  0  0  0  0  0  0  0  0
   23.1010    5.1658   56.0304 C   0  0  0  0  0  0  0  0  0  0  0  0
   22.0225    5.3139   56.9102 C   0  0  0  0  0  0  0  0  0  0  0  0
   21.3224    6.4943   56.9868 C   0  0  0  0  0  0  0  0  0  0  0  0
   21.7198    7.5299   56.1667 C   0  0  0  0  0  0  0  0  0  0  0  0
   22.7784    7.3885   55.3013 C   0  0  0  0  0  0  0  0  0  0  0  0
 18 19  1  0  0  0
 19 20  1  0  0  0
 19 17  1  0  0  0
 17 11  1  0  0  0
 11  7  1  0  0  0
  7  8  1  0  0  0
  8  9  2  0  0  0
  8  6  1  0  0  0
  6 21  1  0  0  0
 21 22  1  0  0  0
 22 23  2  0  0  0
 23 24  1  0  0  0
 24 25  2  0  0  0
 25 26  1  0  0  0
 26 27  2  0  0  0
  6  2  1  0  0  0
  2  3  1  0  0  0
  3  4  2  0  0  0
  3  1  1  0  0  0
  1 52  1  0  0  0
 52 53  1  0  0  0
 53 54  2  0  0  0
 54 55  1  0  0  0
 55 56  2  0  0  0
 56 57  1  0  0  0
 57 58  2  0  0  0
  1 28  1  0  0  0
 28 29  1  0  0  0
 29 30  2  0  0  0
 29 32  1  0  0  0
 32 45  1  0  0  0
 45 46  1  0  0  0
 46 47  2  0  0  0
 47 48  1  0  0  0
 48 49  2  0  0  0
 49 50  1  0  0  0
 50 51  2  0  0  0
 32 33  1  0  0  0
 33 34  1  0  0  0
 34 35  2  0  0  0
 34 37  1  0  0  0
 37 38  1  0  0  0
 38 39  1  0  0  0
 39 40  2  0  0  0
 40 41  1  0  0  0
 41 42  2  0  0  0
 42 43  1  0  0  0
 43 44  2  0  0  0
 11 12  1  0  0  0
 12 13  1  0  0  0
 12 14  2  0  0  0
 27 22  1  0  0  0
 58 53  1  0  0  0
 51 46  1  0  0  0
 44 39  1  0  0  0
  7 10  1  0  0  0
  2  5  1  0  0  0
 28 31  1  0  0  0
 33 36  1  0  0  0
 13 15  1  0  0  0
 13 16  1  0  0  0
M  END
> <minimizedAffinity>
31.70624

> <CNNscore>
0.4648417830

> <CNNaffinity>
7.0854249001

> <CNN_VS>
3.2936015129

> <CNNaffinity_variance>
1.0400975943

$$$$
[H]c1c([H])c([H])c(C([H])([H])OC(=O)N([H])[C@]([H])(C(=O)N([H])[C@]([H])(C(=O)N([H])[C@]([H])(C(=O)N([H])[C@]([H])(C(=O)N([H])[H])C([H])([H])C([H])(C([H])([H])[H])C([H])([H])[H])C([H])([H])c2c([H])c([H])c([H])c([H])c2[H])C([H])([H])c2c([H])c([H])c([H])c([H])c2[H])C([H])([H])c2c([H])c([H])c([H])c([H])c2[H])c([H])c1[H]


 58 61  0  0  0  0  0  0  0  0999 V2000
   24.4455    6.7269   54.6855 C   0  0  0  0  0  0  0  0  0  0  0  0
   22.0705    6.9640   53.7629 N   0  0  0  0  0  0  0  0  0  0  0  0
   23.4418    7.0593   53.5976 C   0  0  0  0  0  0  0  0  0  0  0  0
   23.9308    7.4453   52.4714 O   0  0  0  0  0  0  0  0  0  0  0  0
   21.7778    6.6019   54.7505 H   0  0  0  0  0  0  0  0  0  0  0  0
   20.9567    7.2508   52.9042 C   0  0  0  0  0  0  0  0  0  0  0  0
   19.8512    5.0735   53.7851 N   0  0  0  0  0  0  0  0  0  0  0  0
   19.9316    6.2320   53.0020 C   0  0  0  0  0  0  0  0  0  0  0  0
   18.8761    6.4102   52.2413 O   0  0  0  0  0  0  0  0  0  0  0  0
   20.5787    4.8185   54.4812 H   0  0  0  0  0  0  0  0  0  0  0  0
   18.6993    4.1664   53.7245 C   0  0  0  0  0  0  0  0  0  0  0  0
   18.9176    3.0627   52.7829 C   0  0  0  0  0  0  0  0  0  0  0  0
   17.8740    2.3613   52.1287 N   0  0  0  0  0  0  0  0  0  0  0  0
   20.0896    2.6957   52.5218 O   0  0  0  0  0  0  0  0  0  0  0  0
   17.9724    1.8445   51.2344 H   0  0  0  0  0  0  0  0  0  0  0  0
   16.9296    2.3575   52.5704 H   0  0  0  0  0  0  0  0  0  0  0  0
   17.4166    4.8949   53.6118 C   0  0  0  0  0  0  0  0  0  0  0  0
   16.8468    3.4986   55.5102 C   0  0  0  0  0  0  0  0  0  0  0  0
   16.2699    4.4289   54.4244 C   0  0  0  0  0  0  0  0  0  0  0  0
   15.2628    3.6294   53.6601 C   0  0  0  0  0  0  0  0  0  0  0  0
   21.2421    7.8699   51.5920 C   0  0  0  0  0  0  0  0  0  0  0  0
   21.3294    9.3645   51.5913 C   0  0  0  0  0  0  0  0  0  0  0  0
   20.9391   10.1864   50.5882 C   0  0  0  0  0  0  0  0  0  0  0  0
   21.0215   11.5568   50.6835 C   0  0  0  0  0  0  0  0  0  0  0  0
   21.5076   12.1881   51.8096 C   0  0  0  0  0  0  0  0  0  0  0  0
   21.9078   11.3588   52.8350 C   0  0  0  0  0  0  0  0  0  0  0  0
   21.8301    9.9888   52.7502 C   0  0  0  0  0  0  0  0  0  0  0  0
   25.7554    7.1924   54.3174 N   0  0  0  0  0  0  0  0  0  0  0  0
   26.4691    8.0307   55.2254 C   0  0  0  0  0  0  0  0  0  0  0  0
   25.9151    8.3453   56.3166 O   0  0  0  0  0  0  0  0  0  0  0  0
   26.2307    6.9584   53.4214 H   0  0  0  0  0  0  0  0  0  0  0  0
   27.8398    8.5649   54.9733 C   0  0  0  0  0  0  0  0  0  0  0  0
   28.1990    8.3825   53.5971 N   0  0  0  0  0  0  0  0  0  0  0  0
   27.3552    8.7027   52.5110 C   0  0  0  0  0  0  0  0  0  0  0  0
   26.2136    9.1915   52.7489 O   0  0  0  0  0  0  0  0  0  0  0  0
   29.1340    7.9889   53.3533 H   0  0  0  0  0  0  0  0  0  0  0  0
   27.7083    8.5088   51.1738 O   0  0  0  0  0  0  0  0  0  0  0  0
   27.9972    9.6851   50.4063 C   0  0  0  0  0  0  0  0  0  0  0  0
   28.3707    9.2821   49.0434 C   0  0  0  0  0  0  0  0  0  0  0  0
   28.9361    8.0563   48.8132 C   0  0  0  0  0  0  0  0  0  0  0  0
   29.2964    7.7061   47.5356 C   0  0  0  0  0  0  0  0  0  0  0  0
   29.0949    8.5762   46.4789 C   0  0  0  0  0  0  0  0  0  0  0  0
   28.5249    9.8037   46.7293 C   0  0  0  0  0  0  0  0  0  0  0  0
   28.1702   10.1468   47.9942 C   0  0  0  0  0  0  0  0  0  0  0  0
   27.8295    9.9792   55.4677 C   0  0  0  0  0  0  0  0  0  0  0  0
   28.1889   10.0708   56.9009 C   0  0  0  0  0  0  0  0  0  0  0  0
   28.3065    8.8794   57.6439 C   0  0  0  0  0  0  0  0  0  0  0  0
   28.6067    8.9018   58.9864 C   0  0  0  0  0  0  0  0  0  0  0  0
   28.8029   10.0769   59.6580 C   0  0  0  0  0  0  0  0  0  0  0  0
   28.6934   11.2553   58.9521 C   0  0  0  0  0  0  0  0  0  0  0  0
   28.3904   11.2361   57.5944 C   0  0  0  0  0  0  0  0  0  0  0  0
   23.9694    7.3196   55.9951 C   0  0  0  0  0  0  0  0  0  0  0  0
   22.9362    8.3487   55.8570 C   0  0  0  0  0  0  0  0  0  0  0  0
   23.1998    9.6932   55.7475 C   0  0  0  0  0  0  0  0  0  0  0  0
   22.1688   10.6327   55.6300 C   0  0  0  0  0  0  0  0  0  0  0  0
   20.8500   10.2456   55.6193 C   0  0  0  0  0  0  0  0  0  0  0  0
   20.5764    8.8978   55.7276 C   0  0  0  0  0  0  0  0  0  0  0  0
   21.5859    7.9720   55.8433 C   0  0  0  0  0  0  0  0  0  0  0  0
 18 19  1  0  0  0
 19 20  1  0  0  0
 19 17  1  0  0  0
 17 11  1  0  0  0
 11  7  1  0  0  0
  7  8  1  0  0  0
  8  9  2  0  0  0
  8  6  1  0  0  0
  6 21  1  0  0  0
 21 22  1  0  0  0
 22 23  2  0  0  0
 23 24  1  0  0  0
 24 25  2  0  0  0
 25 26  1  0  0  0
 26 27  2  0  0  0
  6  2  1  0  0  0
  2  3  1  0  0  0
  3  4  2  0  0  0
  3  1  1  0  0  0
  1 52  1  0  0  0
 52 53  1  0  0  0
 53 54  2  0  0  0
 54 55  1  0  0  0
 55 56  2  0  0  0
 56 57  1  0  0  0
 57 58  2  0  0  0
  1 28  1  0  0  0
 28 29  1  0  0  0
 29 30  2  0  0  0
 29 32  1  0  0  0
 32 45  1  0  0  0
 45 46  1  0  0  0
 46 47  2  0  0  0
 47 48  1  0  0  0
 48 49  2  0  0  0
 49 50  1  0  0  0
 50 51  2  0  0  0
 32 33  1  0  0  0
 33 34  1  0  0  0
 34 35  2  0  0  0
 34 37  1  0  0  0
 37 38  1  0  0  0
 38 39  1  0  0  0
 39 40  2  0  0  0
 40 41  1  0  0  0
 41 42  2  0  0  0
 42 43  1  0  0  0
 43 44  2  0  0  0
 11 12  1  0  0  0
 12 13  1  0  0  0
 12 14  2  0  0  0
 27 22  1  0  0  0
 58 53  1  0  0  0
 51 46  1  0  0  0
 44 39  1  0  0  0
  7 10  1  0  0  0
  2  5  1  0  0  0
 28 31  1  0  0  0
 33 36  1  0  0  0
 13 15  1  0  0  0
 13 16  1  0  0  0
M  END
> <minimizedAffinity>
31.71616

> <CNNscore>
0.4606645107

> <CNNaffinity>
7.2520151138

> <CNN_VS>
3.3407459259

> <CNNaffinity_variance>
0.8492733240

$$$$
[H]c1c([H])c([H])c(C([H])([H])OC(=O)N([H])[C@]([H])(C(=O)N([H])[C@]([H])(C(=O)N([H])[C@]([H])(C(=O)N([H])[C@]([H])(C(=O)N([H])[H])C([H])([H])C([H])(C([H])([H])[H])C([H])([H])[H])C([H])([H])c2c([H])c([H])c([H])c([H])c2[H])C([H])([H])c2c([H])c([H])c([H])c([H])c2[H])C([H])([H])c2c([H])c([H])c([H])c([H])c2[H])c([H])c1[H]


 58 61  0  0  0  0  0  0  0  0999 V2000
   24.5275    7.5988   54.2861 C   0  0  0  0  0  0  0  0  0  0  0  0
   22.6834    8.8927   53.0724 N   0  0  0  0  0  0  0  0  0  0  0  0
   23.8156    8.0963   53.0424 C   0  0  0  0  0  0  0  0  0  0  0  0
   24.3205    7.7346   51.9151 O   0  0  0  0  0  0  0  0  0  0  0  0
   22.3351    9.1115   54.0837 H   0  0  0  0  0  0  0  0  0  0  0  0
   21.8799    9.4944   52.0465 C   0  0  0  0  0  0  0  0  0  0  0  0
   21.3369   11.9291   51.3280 N   0  0  0  0  0  0  0  0  0  0  0  0
   21.8349   10.9359   52.1809 C   0  0  0  0  0  0  0  0  0  0  0  0
   22.3312   11.4204   53.2961 O   0  0  0  0  0  0  0  0  0  0  0  0
   20.8608   11.7080   50.4317 H   0  0  0  0  0  0  0  0  0  0  0  0
   21.3951   13.3550   51.6693 C   0  0  0  0  0  0  0  0  0  0  0  0
   20.3871   13.7224   52.6700 C   0  0  0  0  0  0  0  0  0  0  0  0
   20.2282   13.0617   53.9139 N   0  0  0  0  0  0  0  0  0  0  0  0
   19.6040   14.6759   52.4373 O   0  0  0  0  0  0  0  0  0  0  0  0
   19.7987   13.4803   54.7605 H   0  0  0  0  0  0  0  0  0  0  0  0
   20.5655   12.0786   53.9971 H   0  0  0  0  0  0  0  0  0  0  0  0
   21.4880   14.2158   50.4696 C   0  0  0  0  0  0  0  0  0  0  0  0
   20.9129   16.1790   49.1683 C   0  0  0  0  0  0  0  0  0  0  0  0
   21.1204   15.6443   50.5994 C   0  0  0  0  0  0  0  0  0  0  0  0
   22.1783   16.4937   51.2296 C   0  0  0  0  0  0  0  0  0  0  0  0
   20.6690    8.7679   51.6074 C   0  0  0  0  0  0  0  0  0  0  0  0
   20.4073    7.4711   52.3082 C   0  0  0  0  0  0  0  0  0  0  0  0
   19.2143    7.0527   52.7936 C   0  0  0  0  0  0  0  0  0  0  0  0
   19.0526    5.8257   53.3953 C   0  0  0  0  0  0  0  0  0  0  0  0
   20.0962    4.9361   53.5448 C   0  0  0  0  0  0  0  0  0  0  0  0
   21.3142    5.3546   53.0540 C   0  0  0  0  0  0  0  0  0  0  0  0
   21.4869    6.5782   52.4516 C   0  0  0  0  0  0  0  0  0  0  0  0
   25.5198    8.5498   54.7093 N   0  0  0  0  0  0  0  0  0  0  0  0
   26.8953    8.1708   54.6774 C   0  0  0  0  0  0  0  0  0  0  0  0
   27.1896    7.0045   54.2906 O   0  0  0  0  0  0  0  0  0  0  0  0
   25.3052    9.5121   55.0428 H   0  0  0  0  0  0  0  0  0  0  0  0
   28.0217    9.0674   55.0712 C   0  0  0  0  0  0  0  0  0  0  0  0
   28.6243    9.6489   53.9072 N   0  0  0  0  0  0  0  0  0  0  0  0
   28.1860    9.4086   52.5866 C   0  0  0  0  0  0  0  0  0  0  0  0
   27.1954    8.6446   52.4022 O   0  0  0  0  0  0  0  0  0  0  0  0
   29.4398   10.2914   54.0119 H   0  0  0  0  0  0  0  0  0  0  0  0
   28.7879    9.9688   51.4577 O   0  0  0  0  0  0  0  0  0  0  0  0
   27.9180   10.3341   50.3778 C   0  0  0  0  0  0  0  0  0  0  0  0
   28.3520    9.6330   49.1614 C   0  0  0  0  0  0  0  0  0  0  0  0
   28.2818   10.2521   47.9420 C   0  0  0  0  0  0  0  0  0  0  0  0
   28.6733    9.5733   46.8147 C   0  0  0  0  0  0  0  0  0  0  0  0
   29.1379    8.2726   46.8962 C   0  0  0  0  0  0  0  0  0  0  0  0
   29.2019    7.6669   48.1304 C   0  0  0  0  0  0  0  0  0  0  0  0
   28.8134    8.3411   49.2432 C   0  0  0  0  0  0  0  0  0  0  0  0
   27.4537   10.0312   56.0679 C   0  0  0  0  0  0  0  0  0  0  0  0
   28.1244    9.9311   57.3839 C   0  0  0  0  0  0  0  0  0  0  0  0
   28.1991    8.6703   58.0084 C   0  0  0  0  0  0  0  0  0  0  0  0
   28.7817    8.5196   59.2456 C   0  0  0  0  0  0  0  0  0  0  0  0
   29.3117    9.5829   59.9232 C   0  0  0  0  0  0  0  0  0  0  0  0
   29.2506   10.8262   59.3321 C   0  0  0  0  0  0  0  0  0  0  0  0
   28.6626   10.9819   58.0809 C   0  0  0  0  0  0  0  0  0  0  0  0
   23.5015    7.3174   55.3637 C   0  0  0  0  0  0  0  0  0  0  0  0
   22.4824    8.3579   55.5199 C   0  0  0  0  0  0  0  0  0  0  0  0
   21.1308    8.1329   55.4123 C   0  0  0  0  0  0  0  0  0  0  0  0
   20.2032    9.1707   55.5597 C   0  0  0  0  0  0  0  0  0  0  0  0
   20.6096   10.4580   55.8186 C   0  0  0  0  0  0  0  0  0  0  0  0
   21.9646   10.6927   55.9294 C   0  0  0  0  0  0  0  0  0  0  0  0
   22.8787    9.6762   55.7852 C   0  0  0  0  0  0  0  0  0  0  0  0
 18 19  1  0  0  0
 19 20  1  0  0  0
 19 17  1  0  0  0
 17 11  1  0  0  0
 11  7  1  0  0  0
  7  8  1  0  0  0
  8  9  2  0  0  0
  8  6  1  0  0  0
  6 21  1  0  0  0
 21 22  1  0  0  0
 22 23  2  0  0  0
 23 24  1  0  0  0
 24 25  2  0  0  0
 25 26  1  0  0  0
 26 27  2  0  0  0
  6  2  1  0  0  0
  2  3  1  0  0  0
  3  4  2  0  0  0
  3  1  1  0  0  0
  1 52  1  0  0  0
 52 53  1  0  0  0
 53 54  2  0  0  0
 54 55  1  0  0  0
 55 56  2  0  0  0
 56 57  1  0  0  0
 57 58  2  0  0  0
  1 28  1  0  0  0
 28 29  1  0  0  0
 29 30  2  0  0  0
 29 32  1  0  0  0
 32 45  1  0  0  0
 45 46  1  0  0  0
 46 47  2  0  0  0
 47 48  1  0  0  0
 48 49  2  0  0  0
 49 50  1  0  0  0
 50 51  2  0  0  0
 32 33  1  0  0  0
 33 34  1  0  0  0
 34 35  2  0  0  0
 34 37  1  0  0  0
 37 38  1  0  0  0
 38 39  1  0  0  0
 39 40  2  0  0  0
 40 41  1  0  0  0
 41 42  2  0  0  0
 42 43  1  0  0  0
 43 44  2  0  0  0
 11 12  1  0  0  0
 12 13  1  0  0  0
 12 14  2  0  0  0
 27 22  1  0  0  0
 58 53  1  0  0  0
 51 46  1  0  0  0
 44 39  1  0  0  0
  7 10  1  0  0  0
  2  5  1  0  0  0
 28 31  1  0  0  0
 33 36  1  0  0  0
 13 15  1  0  0  0
 13 16  1  0  0  0
M  END
> <minimizedAffinity>
33.70911

> <CNNscore>
0.4519955516

> <CNNaffinity>
6.6352615356

> <CNN_VS>
2.9991087914

> <CNNaffinity_variance>
2.1280748844

$$$$
[H]c1c([H])c([H])c(C([H])([H])OC(=O)N([H])[C@]([H])(C(=O)N([H])[C@]([H])(C(=O)N([H])[C@]([H])(C(=O)N([H])[C@]([H])(C(=O)N([H])[H])C([H])([H])C([H])(C([H])([H])[H])C([H])([H])[H])C([H])([H])c2c([H])c([H])c([H])c([H])c2[H])C([H])([H])c2c([H])c([H])c([H])c([H])c2[H])C([H])([H])c2c([H])c([H])c([H])c([H])c2[H])c([H])c1[H]


 58 61  0  0  0  0  0  0  0  0999 V2000
   27.3759    9.4310   56.3700 C   0  0  0  0  0  0  0  0  0  0  0  0
   24.8517    9.6434   56.0071 N   0  0  0  0  0  0  0  0  0  0  0  0
   26.0103    8.8855   55.9971 C   0  0  0  0  0  0  0  0  0  0  0  0
   25.9664    7.6439   55.6609 O   0  0  0  0  0  0  0  0  0  0  0  0
   25.0110   10.6730   56.3336 H   0  0  0  0  0  0  0  0  0  0  0  0
   23.4871    9.3538   55.6693 C   0  0  0  0  0  0  0  0  0  0  0  0
   22.8531    6.9177   55.0352 N   0  0  0  0  0  0  0  0  0  0  0  0
   23.3855    8.1932   54.8085 C   0  0  0  0  0  0  0  0  0  0  0  0
   23.8576    8.3423   53.5922 O   0  0  0  0  0  0  0  0  0  0  0  0
   22.3899    6.6565   55.9275 H   0  0  0  0  0  0  0  0  0  0  0  0
   22.8541    5.8744   54.0032 C   0  0  0  0  0  0  0  0  0  0  0  0
   24.1752    5.7131   53.3859 C   0  0  0  0  0  0  0  0  0  0  0  0
   25.2361    6.6419   53.5308 N   0  0  0  0  0  0  0  0  0  0  0  0
   24.4086    4.7006   52.6812 O   0  0  0  0  0  0  0  0  0  0  0  0
   26.2433    6.4180   53.4220 H   0  0  0  0  0  0  0  0  0  0  0  0
   24.9985    7.6297   53.7651 H   0  0  0  0  0  0  0  0  0  0  0  0
   21.6994    5.9915   53.0858 C   0  0  0  0  0  0  0  0  0  0  0  0
   19.7953    4.5151   53.3553 C   0  0  0  0  0  0  0  0  0  0  0  0
   20.3361    5.9263   53.6600 C   0  0  0  0  0  0  0  0  0  0  0  0
   19.3715    6.8987   53.0586 C   0  0  0  0  0  0  0  0  0  0  0  0
   22.5742   10.4975   55.4568 C   0  0  0  0  0  0  0  0  0  0  0  0
   22.0732   10.6693   54.0565 C   0  0  0  0  0  0  0  0  0  0  0  0
   22.0009   11.8356   53.3721 C   0  0  0  0  0  0  0  0  0  0  0  0
   21.5592   11.9004   52.0703 C   0  0  0  0  0  0  0  0  0  0  0  0
   21.1597   10.7797   51.3722 C   0  0  0  0  0  0  0  0  0  0  0  0
   21.2295    9.5885   52.0619 C   0  0  0  0  0  0  0  0  0  0  0  0
   21.6688    9.5125   53.3623 C   0  0  0  0  0  0  0  0  0  0  0  0
   27.6604    9.1651   57.7543 N   0  0  0  0  0  0  0  0  0  0  0  0
   28.1959   10.2132   58.5614 C   0  0  0  0  0  0  0  0  0  0  0  0
   28.4141   11.3356   58.0236 O   0  0  0  0  0  0  0  0  0  0  0  0
   27.5012    8.2480   58.2201 H   0  0  0  0  0  0  0  0  0  0  0  0
   28.5168   10.0740   60.0124 C   0  0  0  0  0  0  0  0  0  0  0  0
   28.4883    8.6931   60.3975 N   0  0  0  0  0  0  0  0  0  0  0  0
   29.2308    7.6780   59.7553 C   0  0  0  0  0  0  0  0  0  0  0  0
   29.9804    7.9909   58.7862 O   0  0  0  0  0  0  0  0  0  0  0  0
   27.8896    8.3901   61.1966 H   0  0  0  0  0  0  0  0  0  0  0  0
   29.1863    6.3330   60.1287 O   0  0  0  0  0  0  0  0  0  0  0  0
   28.8247    6.0531   61.4878 C   0  0  0  0  0  0  0  0  0  0  0  0
   27.9711    4.8571   61.5145 C   0  0  0  0  0  0  0  0  0  0  0  0
   28.5213    3.6167   61.6987 C   0  0  0  0  0  0  0  0  0  0  0  0
   27.7094    2.5096   61.7007 C   0  0  0  0  0  0  0  0  0  0  0  0
   26.3432    2.6324   61.5195 C   0  0  0  0  0  0  0  0  0  0  0  0
   25.8081    3.8872   61.3365 C   0  0  0  0  0  0  0  0  0  0  0  0
   26.6142    4.9799   61.3346 C   0  0  0  0  0  0  0  0  0  0  0  0
   29.8187   10.7866   60.2178 C   0  0  0  0  0  0  0  0  0  0  0  0
   29.6238   12.2061   60.5905 C   0  0  0  0  0  0  0  0  0  0  0  0
   30.7510   12.9677   60.9571 C   0  0  0  0  0  0  0  0  0  0  0  0
   30.6296   14.2825   61.3437 C   0  0  0  0  0  0  0  0  0  0  0  0
   29.4136   14.9070   61.3905 C   0  0  0  0  0  0  0  0  0  0  0  0
   28.2965   14.1821   61.0361 C   0  0  0  0  0  0  0  0  0  0  0  0
   28.4160   12.8526   60.6443 C   0  0  0  0  0  0  0  0  0  0  0  0
   28.4153    8.8369   55.4428 C   0  0  0  0  0  0  0  0  0  0  0  0
   28.2112    9.1421   54.0248 C   0  0  0  0  0  0  0  0  0  0  0  0
   27.2567    8.5420   53.2387 C   0  0  0  0  0  0  0  0  0  0  0  0
   27.1163    8.8662   51.8843 C   0  0  0  0  0  0  0  0  0  0  0  0
   27.9295    9.7997   51.2871 C   0  0  0  0  0  0  0  0  0  0  0  0
   28.8896   10.4078   52.0691 C   0  0  0  0  0  0  0  0  0  0  0  0
   29.0308   10.0922   53.3996 C   0  0  0  0  0  0  0  0  0  0  0  0
 18 19  1  0  0  0
 19 20  1  0  0  0
 19 17  1  0  0  0
 17 11  1  0  0  0
 11  7  1  0  0  0
  7  8  1  0  0  0
  8  9  2  0  0  0
  8  6  1  0  0  0
  6 21  1  0  0  0
 21 22  1  0  0  0
 22 23  2  0  0  0
 23 24  1  0  0  0
 24 25  2  0  0  0
 25 26  1  0  0  0
 26 27  2  0  0  0
  6  2  1  0  0  0
  2  3  1  0  0  0
  3  4  2  0  0  0
  3  1  1  0  0  0
  1 52  1  0  0  0
 52 53  1  0  0  0
 53 54  2  0  0  0
 54 55  1  0  0  0
 55 56  2  0  0  0
 56 57  1  0  0  0
 57 58  2  0  0  0
  1 28  1  0  0  0
 28 29  1  0  0  0
 29 30  2  0  0  0
 29 32  1  0  0  0
 32 45  1  0  0  0
 45 46  1  0  0  0
 46 47  2  0  0  0
 47 48  1  0  0  0
 48 49  2  0  0  0
 49 50  1  0  0  0
 50 51  2  0  0  0
 32 33  1  0  0  0
 33 34  1  0  0  0
 34 35  2  0  0  0
 34 37  1  0  0  0
 37 38  1  0  0  0
 38 39  1  0  0  0
 39 40  2  0  0  0
 40 41  1  0  0  0
 41 42  2  0  0  0
 42 43  1  0  0  0
 43 44  2  0  0  0
 11 12  1  0  0  0
 12 13  1  0  0  0
 12 14  2  0  0  0
 27 22  1  0  0  0
 58 53  1  0  0  0
 51 46  1  0  0  0
 44 39  1  0  0  0
  7 10  1  0  0  0
  2  5  1  0  0  0
 28 31  1  0  0  0
 33 36  1  0  0  0
 13 15  1  0  0  0
 13 16  1  0  0  0
M  END
> <minimizedAffinity>
20.63029

> <CNNscore>
0.4238211215

> <CNNaffinity>
6.9283456802

> <CNN_VS>
2.9363791943

> <CNNaffinity_variance>
1.0318114758

$$$$
[H]c1c([H])c([H])c(C([H])([H])OC(=O)N([H])[C@]([H])(C(=O)N([H])[C@]([H])(C(=O)N([H])[C@]([H])(C(=O)N([H])[C@]([H])(C(=O)N([H])[H])C([H])([H])C([H])(C([H])([H])[H])C([H])([H])[H])C([H])([H])c2c([H])c([H])c([H])c([H])c2[H])C([H])([H])c2c([H])c([H])c([H])c([H])c2[H])C([H])([H])c2c([H])c([H])c([H])c([H])c2[H])c([H])c1[H]


 58 61  0  0  0  0  0  0  0  0999 V2000
   24.4285    6.6361   54.6879 C   0  0  0  0  0  0  0  0  0  0  0  0
   22.1058    7.1540   53.7471 N   0  0  0  0  0  0  0  0  0  0  0  0
   23.4699    6.9975   53.5691 C   0  0  0  0  0  0  0  0  0  0  0  0
   23.9909    7.1567   52.4030 O   0  0  0  0  0  0  0  0  0  0  0  0
   21.7793    6.9686   54.7724 H   0  0  0  0  0  0  0  0  0  0  0  0
   21.0361    7.5170   52.8615 C   0  0  0  0  0  0  0  0  0  0  0  0
   19.5347    5.6131   53.7887 N   0  0  0  0  0  0  0  0  0  0  0  0
   20.0161    6.4899   52.8083 C   0  0  0  0  0  0  0  0  0  0  0  0
   19.4131    6.3447   51.6507 O   0  0  0  0  0  0  0  0  0  0  0  0
   19.8675    5.6384   54.7723 H   0  0  0  0  0  0  0  0  0  0  0  0
   18.4767    4.6346   53.5122 C   0  0  0  0  0  0  0  0  0  0  0  0
   17.1732    5.0757   54.0207 C   0  0  0  0  0  0  0  0  0  0  0  0
   16.7412    6.4257   54.0276 N   0  0  0  0  0  0  0  0  0  0  0  0
   16.3714    4.2279   54.4840 O   0  0  0  0  0  0  0  0  0  0  0  0
   15.7507    6.7344   54.0407 H   0  0  0  0  0  0  0  0  0  0  0  0
   17.4655    7.1756   54.0186 H   0  0  0  0  0  0  0  0  0  0  0  0
   18.8892    3.2532   53.8446 C   0  0  0  0  0  0  0  0  0  0  0  0
   20.7225    1.9727   52.9079 C   0  0  0  0  0  0  0  0  0  0  0  0
   19.2343    2.3364   52.7342 C   0  0  0  0  0  0  0  0  0  0  0  0
   19.0928    2.9421   51.3738 C   0  0  0  0  0  0  0  0  0  0  0  0
   21.3848    8.2586   51.6307 C   0  0  0  0  0  0  0  0  0  0  0  0
   21.4363    9.7483   51.7701 C   0  0  0  0  0  0  0  0  0  0  0  0
   21.8563   10.4340   52.8598 C   0  0  0  0  0  0  0  0  0  0  0  0
   21.9054   11.8090   52.8920 C   0  0  0  0  0  0  0  0  0  0  0  0
   21.5301   12.5841   51.8144 C   0  0  0  0  0  0  0  0  0  0  0  0
   21.1006   11.8940   50.7014 C   0  0  0  0  0  0  0  0  0  0  0  0
   21.0473   10.5209   50.6586 C   0  0  0  0  0  0  0  0  0  0  0  0
   25.7622    7.0643   54.3624 N   0  0  0  0  0  0  0  0  0  0  0  0
   26.3721    8.0819   55.1555 C   0  0  0  0  0  0  0  0  0  0  0  0
   25.7093    8.5805   56.1087 O   0  0  0  0  0  0  0  0  0  0  0  0
   26.3265    6.6794   53.5769 H   0  0  0  0  0  0  0  0  0  0  0  0
   27.7540    8.6013   54.9357 C   0  0  0  0  0  0  0  0  0  0  0  0
   28.0977    8.5272   53.5456 N   0  0  0  0  0  0  0  0  0  0  0  0
   27.1704    8.6874   52.4927 C   0  0  0  0  0  0  0  0  0  0  0  0
   25.9606    8.9221   52.7757 O   0  0  0  0  0  0  0  0  0  0  0  0
   29.0856    8.3427   53.2650 H   0  0  0  0  0  0  0  0  0  0  0  0
   27.5118    8.5999   51.1412 O   0  0  0  0  0  0  0  0  0  0  0  0
   28.0413    9.7852   50.5322 C   0  0  0  0  0  0  0  0  0  0  0  0
   28.3989    9.4833   49.1392 C   0  0  0  0  0  0  0  0  0  0  0  0
   28.2920   10.4464   48.1716 C   0  0  0  0  0  0  0  0  0  0  0  0
   28.6119   10.1391   46.8724 C   0  0  0  0  0  0  0  0  0  0  0  0
   29.0411    8.8692   46.5296 C   0  0  0  0  0  0  0  0  0  0  0  0
   29.1429    7.9144   47.5156 C   0  0  0  0  0  0  0  0  0  0  0  0
   28.8252    8.2217   48.7995 C   0  0  0  0  0  0  0  0  0  0  0  0
   27.7837    9.9686   55.5478 C   0  0  0  0  0  0  0  0  0  0  0  0
   28.1324    9.9274   56.9861 C   0  0  0  0  0  0  0  0  0  0  0  0
   28.4310   11.1379   57.6423 C   0  0  0  0  0  0  0  0  0  0  0  0
   28.7926   11.1603   58.9696 C   0  0  0  0  0  0  0  0  0  0  0  0
   28.8791   10.0129   59.7089 C   0  0  0  0  0  0  0  0  0  0  0  0
   28.5913    8.8166   59.0885 C   0  0  0  0  0  0  0  0  0  0  0  0
   28.2249    8.7905   57.7467 C   0  0  0  0  0  0  0  0  0  0  0  0
   23.9280    7.2416   55.9824 C   0  0  0  0  0  0  0  0  0  0  0  0
   22.8564    8.2268   55.8189 C   0  0  0  0  0  0  0  0  0  0  0  0
   21.5185    7.9123   55.8038 C   0  0  0  0  0  0  0  0  0  0  0  0
   20.5384    8.8967   55.6316 C   0  0  0  0  0  0  0  0  0  0  0  0
   20.8774   10.2191   55.4709 C   0  0  0  0  0  0  0  0  0  0  0  0
   22.2181   10.5438   55.4859 C   0  0  0  0  0  0  0  0  0  0  0  0
   23.1836    9.5800   55.6547 C   0  0  0  0  0  0  0  0  0  0  0  0
 18 19  1  0  0  0
 19 20  1  0  0  0
 19 17  1  0  0  0
 17 11  1  0  0  0
 11  7  1  0  0  0
  7  8  1  0  0  0
  8  9  2  0  0  0
  8  6  1  0  0  0
  6 21  1  0  0  0
 21 22  1  0  0  0
 22 23  2  0  0  0
 23 24  1  0  0  0
 24 25  2  0  0  0
 25 26  1  0  0  0
 26 27  2  0  0  0
  6  2  1  0  0  0
  2  3  1  0  0  0
  3  4  2  0  0  0
  3  1  1  0  0  0
  1 52  1  0  0  0
 52 53  1  0  0  0
 53 54  2  0  0  0
 54 55  1  0  0  0
 55 56  2  0  0  0
 56 57  1  0  0  0
 57 58  2  0  0  0
  1 28  1  0  0  0
 28 29  1  0  0  0
 29 30  2  0  0  0
 29 32  1  0  0  0
 32 45  1  0  0  0
 45 46  1  0  0  0
 46 47  2  0  0  0
 47 48  1  0  0  0
 48 49  2  0  0  0
 49 50  1  0  0  0
 50 51  2  0  0  0
 32 33  1  0  0  0
 33 34  1  0  0  0
 34 35  2  0  0  0
 34 37  1  0  0  0
 37 38  1  0  0  0
 38 39  1  0  0  0
 39 40  2  0  0  0
 40 41  1  0  0  0
 41 42  2  0  0  0
 42 43  1  0  0  0
 43 44  2  0  0  0
 11 12  1  0  0  0
 12 13  1  0  0  0
 12 14  2  0  0  0
 27 22  1  0  0  0
 58 53  1  0  0  0
 51 46  1  0  0  0
 44 39  1  0  0  0
  7 10  1  0  0  0
  2  5  1  0  0  0
 28 31  1  0  0  0
 33 36  1  0  0  0
 13 15  1  0  0  0
 13 16  1  0  0  0
M  END
> <minimizedAffinity>
31.63605

> <CNNscore>
0.4191606343

> <CNNaffinity>
7.2201728821

> <CNN_VS>
3.0264122486

> <CNNaffinity_variance>
1.4413733482

$$$$
[H]c1c(C([H])([H])[H])nc(C([H])([H])[H])c(OC([H])([H])C([H])([H])N2C([H])([H])C([H])([H])N(C([H])([H])C([H])([H])C([H])([H])[H])C([H])([H])C2([H])[H])c1[H]


 20 21  0  0  0  0  0  0  0  0999 V2000
   22.4379    7.3251   52.7632 C   0  0  0  0  0  0  0  0  0  0  0  0
   21.0201   10.8467   54.5281 N   0  0  0  0  0  0  0  0  0  0  0  0
   20.6651    9.5638   55.0709 C   0  0  0  0  0  0  0  0  0  0  0  0
   20.7323    8.4828   53.9883 C   0  0  0  0  0  0  0  0  0  0  0  0
   22.1153    8.4519   53.5724 N   0  0  0  0  0  0  0  0  0  0  0  0
   22.6070    9.7164   53.1293 C   0  0  0  0  0  0  0  0  0  0  0  0
   21.5644   10.7844   53.2112 C   0  0  0  0  0  0  0  0  0  0  0  0
   21.9488   11.4990   55.4144 C   0  0  0  0  0  0  0  0  0  0  0  0
   24.1439   10.4383   55.3451 C   0  0  0  0  0  0  0  0  0  0  0  0
   22.8243   10.4546   56.0771 C   0  0  0  0  0  0  0  0  0  0  0  0
   23.2835    6.3715   53.5686 C   0  0  0  0  0  0  0  0  0  0  0  0
   24.6136    6.5245   53.1005 O   0  0  0  0  0  0  0  0  0  0  0  0
   25.4791    7.3160   53.8301 C   0  0  0  0  0  0  0  0  0  0  0  0
   26.8164    7.3906   53.4836 C   0  0  0  0  0  0  0  0  0  0  0  0
   27.6469    8.1900   54.2349 C   0  0  0  0  0  0  0  0  0  0  0  0
   27.1450    8.8982   55.3095 C   0  0  0  0  0  0  0  0  0  0  0  0
   28.0411    9.7606   56.1213 C   0  0  0  0  0  0  0  0  0  0  0  0
   25.8385    8.7916   55.6048 N   0  0  0  0  0  0  0  0  0  0  0  0
   24.9989    8.0319   54.9074 C   0  0  0  0  0  0  0  0  0  0  0  0
   23.5512    7.9201   55.2428 C   0  0  0  0  0  0  0  0  0  0  0  0
  9 10  1  0  0  0
 10  8  1  0  0  0
  8  2  1  0  0  0
  2  3  1  0  0  0
  3  4  1  0  0  0
  4  5  1  0  0  0
  5  1  1  0  0  0
  1 11  1  0  0  0
 11 12  1  0  0  0
 12 13  1  0  0  0
 13 14  2  0  0  0
 14 15  1  0  0  0
 15 16  2  0  0  0
 16 17  1  0  0  0
 16 18  1  0  0  0
 18 19  2  0  0  0
 19 20  1  0  0  0
  5  6  1  0  0  0
  6  7  1  0  0  0
  7  2  1  0  0  0
 19 13  1  0  0  0
M  END
> <minimizedAffinity>
10.05293

> <CNNscore>
0.5734156370

> <CNNaffinity>
5.7000284195

> <CNN_VS>
3.2684855461

> <CNNaffinity_variance>
0.3378021121

$$$$
[H]c1c(C([H])([H])[H])nc(C([H])([H])[H])c(OC([H])([H])C([H])([H])N2C([H])([H])C([H])([H])N(C([H])([H])C([H])([H])C([H])([H])[H])C([H])([H])C2([H])[H])c1[H]


 20 21  0  0  0  0  0  0  0  0999 V2000
   25.7423    7.1906   54.5169 C   0  0  0  0  0  0  0  0  0  0  0  0
   21.6527    7.2991   53.6278 N   0  0  0  0  0  0  0  0  0  0  0  0
   22.1472    6.4657   54.6896 C   0  0  0  0  0  0  0  0  0  0  0  0
   23.6119    6.0922   54.4446 C   0  0  0  0  0  0  0  0  0  0  0  0
   24.3277    7.3468   54.4582 N   0  0  0  0  0  0  0  0  0  0  0  0
   23.8301    8.2988   53.5185 C   0  0  0  0  0  0  0  0  0  0  0  0
   22.6683    7.7674   52.7426 C   0  0  0  0  0  0  0  0  0  0  0  0
   20.9376    8.4149   54.1910 C   0  0  0  0  0  0  0  0  0  0  0  0
   21.5205   10.7743   54.3962 C   0  0  0  0  0  0  0  0  0  0  0  0
   21.2654    9.6671   53.4030 C   0  0  0  0  0  0  0  0  0  0  0  0
   26.3903    8.5407   54.3427 C   0  0  0  0  0  0  0  0  0  0  0  0
   27.6879    8.4363   54.9055 O   0  0  0  0  0  0  0  0  0  0  0  0
   27.9661    9.1555   56.0515 C   0  0  0  0  0  0  0  0  0  0  0  0
   27.5075    8.7151   57.2802 C   0  0  0  0  0  0  0  0  0  0  0  0
   27.8054    9.4592   58.3986 C   0  0  0  0  0  0  0  0  0  0  0  0
   28.5470   10.6190   58.2848 C   0  0  0  0  0  0  0  0  0  0  0  0
   28.8681   11.4231   59.4915 C   0  0  0  0  0  0  0  0  0  0  0  0
   28.9689   11.0038   57.0685 N   0  0  0  0  0  0  0  0  0  0  0  0
   28.7053   10.3170   55.9607 C   0  0  0  0  0  0  0  0  0  0  0  0
   29.1777   10.7520   54.6158 C   0  0  0  0  0  0  0  0  0  0  0  0
  9 10  1  0  0  0
 10  8  1  0  0  0
  8  2  1  0  0  0
  2  3  1  0  0  0
  3  4  1  0  0  0
  4  5  1  0  0  0
  5  1  1  0  0  0
  1 11  1  0  0  0
 11 12  1  0  0  0
 12 13  1  0  0  0
 13 14  2  0  0  0
 14 15  1  0  0  0
 15 16  2  0  0  0
 16 17  1  0  0  0
 16 18  1  0  0  0
 18 19  2  0  0  0
 19 20  1  0  0  0
  5  6  1  0  0  0
  6  7  1  0  0  0
  7  2  1  0  0  0
 19 13  1  0  0  0
M  END
> <minimizedAffinity>
5.17482

> <CNNscore>
0.5379171371

> <CNNaffinity>
5.3934707642

> <CNN_VS>
2.9012403488

> <CNNaffinity_variance>
0.5595649481

$$$$
[H]c1c(C([H])([H])[H])nc(C([H])([H])[H])c(OC([H])([H])C([H])([H])N2C([H])([H])C([H])([H])N(C([H])([H])C([H])([H])C([H])([H])[H])C([H])([H])C2([H])[H])c1[H]


 20 21  0  0  0  0  0  0  0  0999 V2000
   24.5704    7.0559   53.0574 C   0  0  0  0  0  0  0  0  0  0  0  0
   21.0589    9.1030   54.0603 N   0  0  0  0  0  0  0  0  0  0  0  0
   21.4129    8.8918   52.6831 C   0  0  0  0  0  0  0  0  0  0  0  0
   22.9278    8.7231   52.5354 C   0  0  0  0  0  0  0  0  0  0  0  0
   23.2499    7.5355   53.2920 N   0  0  0  0  0  0  0  0  0  0  0  0
   22.8252    7.5927   54.6534 C   0  0  0  0  0  0  0  0  0  0  0  0
   22.1326    8.8784   54.9720 C   0  0  0  0  0  0  0  0  0  0  0  0
   19.9407    8.2616   54.3997 C   0  0  0  0  0  0  0  0  0  0  0  0
   18.5478    6.5565   53.3504 C   0  0  0  0  0  0  0  0  0  0  0  0
   19.9731    7.0160   53.5372 C   0  0  0  0  0  0  0  0  0  0  0  0
   25.5304    8.2167   53.1229 C   0  0  0  0  0  0  0  0  0  0  0  0
   26.6569    7.7622   53.8550 O   0  0  0  0  0  0  0  0  0  0  0  0
   27.0486    8.4791   54.9688 C   0  0  0  0  0  0  0  0  0  0  0  0
   26.1018    9.0624   55.7916 C   0  0  0  0  0  0  0  0  0  0  0  0
   26.5317    9.7685   56.8916 C   0  0  0  0  0  0  0  0  0  0  0  0
   27.8819    9.8856   57.1584 C   0  0  0  0  0  0  0  0  0  0  0  0
   28.3467   10.6484   58.3450 C   0  0  0  0  0  0  0  0  0  0  0  0
   28.7615    9.3004   56.3281 N   0  0  0  0  0  0  0  0  0  0  0  0
   28.3924    8.6087   55.2540 C   0  0  0  0  0  0  0  0  0  0  0  0
   29.3756    7.9631   54.3389 C   0  0  0  0  0  0  0  0  0  0  0  0
  9 10  1  0  0  0
 10  8  1  0  0  0
  8  2  1  0  0  0
  2  3  1  0  0  0
  3  4  1  0  0  0
  4  5  1  0  0  0
  5  1  1  0  0  0
  1 11  1  0  0  0
 11 12  1  0  0  0
 12 13  1  0  0  0
 13 14  2  0  0  0
 14 15  1  0  0  0
 15 16  2  0  0  0
 16 17  1  0  0  0
 16 18  1  0  0  0
 18 19  2  0  0  0
 19 20  1  0  0  0
  5  6  1  0  0  0
  6  7  1  0  0  0
  7  2  1  0  0  0
 19 13  1  0  0  0
M  END
> <minimizedAffinity>
8.76759

> <CNNscore>
0.5329321623

> <CNNaffinity>
5.1754727364

> <CNN_VS>
2.7581758499

> <CNNaffinity_variance>
0.5379806161

$$$$
[H]c1c(C([H])([H])[H])nc(C([H])([H])[H])c(OC([H])([H])C([H])([H])N2C([H])([H])C([H])([H])N(C([H])([H])C([H])([H])C([H])([H])[H])C([H])([H])C2([H])[H])c1[H]


 20 21  0  0  0  0  0  0  0  0999 V2000
   21.5562   10.4874   54.2870 C   0  0  0  0  0  0  0  0  0  0  0  0
   20.3998    7.3540   51.7627 N   0  0  0  0  0  0  0  0  0  0  0  0
   21.4206    8.2808   51.3557 C   0  0  0  0  0  0  0  0  0  0  0  0
   21.2469    9.6233   52.0716 C   0  0  0  0  0  0  0  0  0  0  0  0
   21.4135    9.3257   53.4753 N   0  0  0  0  0  0  0  0  0  0  0  0
   20.5236    8.3183   53.9553 C   0  0  0  0  0  0  0  0  0  0  0  0
   19.6283    7.7996   52.8766 C   0  0  0  0  0  0  0  0  0  0  0  0
   21.0027    6.0805   52.0593 C   0  0  0  0  0  0  0  0  0  0  0  0
   23.3712    6.0439   52.6401 C   0  0  0  0  0  0  0  0  0  0  0  0
   21.9851    6.2468   53.2011 C   0  0  0  0  0  0  0  0  0  0  0  0
   21.2799   10.1174   55.7222 C   0  0  0  0  0  0  0  0  0  0  0  0
   22.5355   10.1112   56.3817 O   0  0  0  0  0  0  0  0  0  0  0  0
   23.5771    9.4122   55.8035 C   0  0  0  0  0  0  0  0  0  0  0  0
   24.7712   10.0495   55.5174 C   0  0  0  0  0  0  0  0  0  0  0  0
   25.7851    9.3190   54.9415 C   0  0  0  0  0  0  0  0  0  0  0  0
   25.6032    7.9790   54.6598 C   0  0  0  0  0  0  0  0  0  0  0  0
   26.6969    7.1901   54.0375 C   0  0  0  0  0  0  0  0  0  0  0  0
   24.4244    7.4067   54.9572 N   0  0  0  0  0  0  0  0  0  0  0  0
   23.4169    8.0727   55.5137 C   0  0  0  0  0  0  0  0  0  0  0  0
   22.1129    7.4291   55.8398 C   0  0  0  0  0  0  0  0  0  0  0  0
  9 10  1  0  0  0
 10  8  1  0  0  0
  8  2  1  0  0  0
  2  3  1  0  0  0
  3  4  1  0  0  0
  4  5  1  0  0  0
  5  1  1  0  0  0
  1 11  1  0  0  0
 11 12  1  0  0  0
 12 13  1  0  0  0
 13 14  2  0  0  0
 14 15  1  0  0  0
 15 16  2  0  0  0
 16 17  1  0  0  0
 16 18  1  0  0  0
 18 19  2  0  0  0
 19 20  1  0  0  0
  5  6  1  0  0  0
  6  7  1  0  0  0
  7  2  1  0  0  0
 19 13  1  0  0  0
M  END
> <minimizedAffinity>
10.26631

> <CNNscore>
0.5213099718

> <CNNaffinity>
5.7772521973

> <CNN_VS>
3.0117392540

> <CNNaffinity_variance>
0.5114785433

$$$$
[H]c1c(C([H])([H])[H])nc(C([H])([H])[H])c(OC([H])([H])C([H])([H])N2C([H])([H])C([H])([H])N(C([H])([H])C([H])([H])C([H])([H])[H])C([H])([H])C2([H])[H])c1[H]


 20 21  0  0  0  0  0  0  0  0999 V2000
   23.7141    6.3260   53.1788 C   0  0  0  0  0  0  0  0  0  0  0  0
   20.8585    9.3871   53.1321 N   0  0  0  0  0  0  0  0  0  0  0  0
   20.7257    8.2785   54.0375 C   0  0  0  0  0  0  0  0  0  0  0  0
   21.4473    7.0444   53.4887 C   0  0  0  0  0  0  0  0  0  0  0  0
   22.8386    7.4252   53.4112 N   0  0  0  0  0  0  0  0  0  0  0  0
   23.0673    8.5981   52.6308 C   0  0  0  0  0  0  0  0  0  0  0  0
   21.7973    9.1637   52.0818 C   0  0  0  0  0  0  0  0  0  0  0  0
   21.2205   10.5674   53.8732 C   0  0  0  0  0  0  0  0  0  0  0  0
   22.6860   10.1346   55.7742 C   0  0  0  0  0  0  0  0  0  0  0  0
   21.2408   10.2412   55.3530 C   0  0  0  0  0  0  0  0  0  0  0  0
   24.8553    6.3944   54.1616 C   0  0  0  0  0  0  0  0  0  0  0  0
   25.6735    7.4768   53.7486 O   0  0  0  0  0  0  0  0  0  0  0  0
   26.3090    8.2266   54.7190 C   0  0  0  0  0  0  0  0  0  0  0  0
   25.5709    8.8901   55.6828 C   0  0  0  0  0  0  0  0  0  0  0  0
   26.2406    9.6268   56.6326 C   0  0  0  0  0  0  0  0  0  0  0  0
   27.6201    9.6952   56.6141 C   0  0  0  0  0  0  0  0  0  0  0  0
   28.3436   10.4909   57.6385 C   0  0  0  0  0  0  0  0  0  0  0  0
   28.2908    9.0325   55.6567 N   0  0  0  0  0  0  0  0  0  0  0  0
   27.6864    8.3086   54.7192 C   0  0  0  0  0  0  0  0  0  0  0  0
   28.4390    7.5770   53.6612 C   0  0  0  0  0  0  0  0  0  0  0  0
  9 10  1  0  0  0
 10  8  1  0  0  0
  8  2  1  0  0  0
  2  3  1  0  0  0
  3  4  1  0  0  0
  4  5  1  0  0  0
  5  1  1  0  0  0
  1 11  1  0  0  0
 11 12  1  0  0  0
 12 13  1  0  0  0
 13 14  2  0  0  0
 14 15  1  0  0  0
 15 16  2  0  0  0
 16 17  1  0  0  0
 16 18  1  0  0  0
 18 19  2  0  0  0
 19 20  1  0  0  0
  5  6  1  0  0  0
  6  7  1  0  0  0
  7  2  1  0  0  0
 19 13  1  0  0  0
M  END
> <minimizedAffinity>
2.64380

> <CNNscore>
0.4746917188

> <CNNaffinity>
5.2404685020

> <CNN_VS>
2.4876070023

> <CNNaffinity_variance>
0.9842262268

$$$$
[H]c1c(C([H])([H])[H])nc(C([H])([H])[H])c(OC([H])([H])C([H])([H])N2C([H])([H])C([H])([H])N(C([H])([H])C([H])([H])C([H])([H])[H])C([H])([H])C2([H])[H])c1[H]


 20 21  0  0  0  0  0  0  0  0999 V2000
   23.7067    6.4422   54.5356 C   0  0  0  0  0  0  0  0  0  0  0  0
   20.7181    8.9622   53.0372 N   0  0  0  0  0  0  0  0  0  0  0  0
   21.4170    9.2978   54.2478 C   0  0  0  0  0  0  0  0  0  0  0  0
   21.9580    8.0359   54.9259 C   0  0  0  0  0  0  0  0  0  0  0  0
   22.8950    7.4732   53.9815 N   0  0  0  0  0  0  0  0  0  0  0  0
   22.3276    7.2167   52.6973 C   0  0  0  0  0  0  0  0  0  0  0  0
   20.8855    7.6046   52.6330 C   0  0  0  0  0  0  0  0  0  0  0  0
   21.1409    9.8459   51.9819 C   0  0  0  0  0  0  0  0  0  0  0  0
   21.6210   12.1966   51.5436 C   0  0  0  0  0  0  0  0  0  0  0  0
   21.7110   11.1119   52.5889 C   0  0  0  0  0  0  0  0  0  0  0  0
   25.0426    6.4436   53.8367 C   0  0  0  0  0  0  0  0  0  0  0  0
   25.4068    7.8046   53.6744 O   0  0  0  0  0  0  0  0  0  0  0  0
   26.1123    8.4208   54.6895 C   0  0  0  0  0  0  0  0  0  0  0  0
   25.4417    9.0466   55.7251 C   0  0  0  0  0  0  0  0  0  0  0  0
   26.1799    9.6491   56.7177 C   0  0  0  0  0  0  0  0  0  0  0  0
   27.5602    9.6233   56.6706 C   0  0  0  0  0  0  0  0  0  0  0  0
   28.3577   10.2742   57.7412 C   0  0  0  0  0  0  0  0  0  0  0  0
   28.1638    9.0024   55.6431 N   0  0  0  0  0  0  0  0  0  0  0  0
   27.4918    8.4070   54.6622 C   0  0  0  0  0  0  0  0  0  0  0  0
   28.1703    7.7208   53.5265 C   0  0  0  0  0  0  0  0  0  0  0  0
  9 10  1  0  0  0
 10  8  1  0  0  0
  8  2  1  0  0  0
  2  3  1  0  0  0
  3  4  1  0  0  0
  4  5  1  0  0  0
  5  1  1  0  0  0
  1 11  1  0  0  0
 11 12  1  0  0  0
 12 13  1  0  0  0
 13 14  2  0  0  0
 14 15  1  0  0  0
 15 16  2  0  0  0
 16 17  1  0  0  0
 16 18  1  0  0  0
 18 19  2  0  0  0
 19 20  1  0  0  0
  5  6  1  0  0  0
  6  7  1  0  0  0
  7  2  1  0  0  0
 19 13  1  0  0  0
M  END
> <minimizedAffinity>
2.38840

> <CNNscore>
0.4728880525

> <CNNaffinity>
4.9227647781

> <CNN_VS>
2.3279166222

> <CNNaffinity_variance>
0.7839465141

$$$$
[H]c1c(C([H])([H])[H])nc(C([H])([H])[H])c(OC([H])([H])C([H])([H])N2C([H])([H])C([H])([H])N(C([H])([H])C([H])([H])C([H])([H])[H])C([H])([H])C2([H])[H])c1[H]


 20 21  0  0  0  0  0  0  0  0999 V2000
   21.6040    9.6894   55.4792 C   0  0  0  0  0  0  0  0  0  0  0  0
   21.3451    6.2700   53.0776 N   0  0  0  0  0  0  0  0  0  0  0  0
   21.7431    6.1663   54.4551 C   0  0  0  0  0  0  0  0  0  0  0  0
   22.3638    7.4804   54.9375 C   0  0  0  0  0  0  0  0  0  0  0  0
   21.3077    8.4595   54.8247 N   0  0  0  0  0  0  0  0  0  0  0  0
   20.7531    8.5531   53.5129 C   0  0  0  0  0  0  0  0  0  0  0  0
   21.3986    7.5984   52.5610 C   0  0  0  0  0  0  0  0  0  0  0  0
   20.0173    5.7347   52.9232 C   0  0  0  0  0  0  0  0  0  0  0  0
   18.5013    3.9884   53.6982 C   0  0  0  0  0  0  0  0  0  0  0  0
   19.9573    4.3582   53.5543 C   0  0  0  0  0  0  0  0  0  0  0  0
   23.0736    9.9857   55.3198 C   0  0  0  0  0  0  0  0  0  0  0  0
   23.7031    8.7456   55.0417 O   0  0  0  0  0  0  0  0  0  0  0  0
   25.0833    8.7029   55.0085 C   0  0  0  0  0  0  0  0  0  0  0  0
   25.8242    9.3093   56.0072 C   0  0  0  0  0  0  0  0  0  0  0  0
   27.1970    9.2449   55.9388 C   0  0  0  0  0  0  0  0  0  0  0  0
   27.8109    8.5865   54.8911 C   0  0  0  0  0  0  0  0  0  0  0  0
   29.2926    8.5174   54.8163 C   0  0  0  0  0  0  0  0  0  0  0  0
   27.0461    8.0139   53.9462 N   0  0  0  0  0  0  0  0  0  0  0  0
   25.7171    8.0505   53.9710 C   0  0  0  0  0  0  0  0  0  0  0  0
   24.8773    7.4124   52.9181 C   0  0  0  0  0  0  0  0  0  0  0  0
  9 10  1  0  0  0
 10  8  1  0  0  0
  8  2  1  0  0  0
  2  3  1  0  0  0
  3  4  1  0  0  0
  4  5  1  0  0  0
  5  1  1  0  0  0
  1 11  1  0  0  0
 11 12  1  0  0  0
 12 13  1  0  0  0
 13 14  2  0  0  0
 14 15  1  0  0  0
 15 16  2  0  0  0
 16 17  1  0  0  0
 16 18  1  0  0  0
 18 19  2  0  0  0
 19 20  1  0  0  0
  5  6  1  0  0  0
  6  7  1  0  0  0
  7  2  1  0  0  0
 19 13  1  0  0  0
M  END
> <minimizedAffinity>
5.07007

> <CNNscore>
0.4658433795

> <CNNaffinity>
5.3437743187

> <CNN_VS>
2.4893620014

> <CNNaffinity_variance>
0.3201001287

$$$$
[H]c1c(C([H])([H])[H])nc(C([H])([H])[H])c(OC([H])([H])C([H])([H])N2C([H])([H])C([H])([H])N(C([H])([H])C([H])([H])C([H])([H])[H])C([H])([H])C2([H])[H])c1[H]


 20 21  0  0  0  0  0  0  0  0999 V2000
   23.4739    6.8360   55.2762 C   0  0  0  0  0  0  0  0  0  0  0  0
   21.0443    9.8155   53.6189 N   0  0  0  0  0  0  0  0  0  0  0  0
   22.3905   10.1136   54.0256 C   0  0  0  0  0  0  0  0  0  0  0  0
   22.8500    9.1461   55.1201 C   0  0  0  0  0  0  0  0  0  0  0  0
   22.8224    7.8399   54.5039 N   0  0  0  0  0  0  0  0  0  0  0  0
   21.5520    7.4952   53.9521 C   0  0  0  0  0  0  0  0  0  0  0  0
   20.5451    8.5842   54.1377 C   0  0  0  0  0  0  0  0  0  0  0  0
   20.9708    9.8097   52.1808 C   0  0  0  0  0  0  0  0  0  0  0  0
   21.5551    7.8494   50.8525 C   0  0  0  0  0  0  0  0  0  0  0  0
   20.4735    8.4573   51.7116 C   0  0  0  0  0  0  0  0  0  0  0  0
   24.7884    6.4931   54.6222 C   0  0  0  0  0  0  0  0  0  0  0  0
   25.8004    7.0558   55.4412 O   0  0  0  0  0  0  0  0  0  0  0  0
   26.6650    7.9743   54.8783 C   0  0  0  0  0  0  0  0  0  0  0  0
   26.8078    8.0470   53.5041 C   0  0  0  0  0  0  0  0  0  0  0  0
   27.6788    8.9752   52.9817 C   0  0  0  0  0  0  0  0  0  0  0  0
   28.3899    9.8109   53.8207 C   0  0  0  0  0  0  0  0  0  0  0  0
   29.3310   10.8124   53.2574 C   0  0  0  0  0  0  0  0  0  0  0  0
   28.2155    9.7002   55.1484 N   0  0  0  0  0  0  0  0  0  0  0  0
   27.3853    8.8188   55.6980 C   0  0  0  0  0  0  0  0  0  0  0  0
   27.1986    8.7035   57.1720 C   0  0  0  0  0  0  0  0  0  0  0  0
  9 10  1  0  0  0
 10  8  1  0  0  0
  8  2  1  0  0  0
  2  3  1  0  0  0
  3  4  1  0  0  0
  4  5  1  0  0  0
  5  1  1  0  0  0
  1 11  1  0  0  0
 11 12  1  0  0  0
 12 13  1  0  0  0
 13 14  2  0  0  0
 14 15  1  0  0  0
 15 16  2  0  0  0
 16 17  1  0  0  0
 16 18  1  0  0  0
 18 19  2  0  0  0
 19 20  1  0  0  0
  5  6  1  0  0  0
  6  7  1  0  0  0
  7  2  1  0  0  0
 19 13  1  0  0  0
M  END
> <minimizedAffinity>
12.93476

> <CNNscore>
0.4648930430

> <CNNaffinity>
5.1835699081

> <CNN_VS>
2.4098055363

> <CNNaffinity_variance>
0.4309651256

$$$$
[H]c1c(C([H])([H])[H])nc(C([H])([H])[H])c(OC([H])([H])C([H])([H])N2C([H])([H])C([H])([H])N(C([H])([H])C([H])([H])C([H])([H])[H])C([H])([H])C2([H])[H])c1[H]


 20 21  0  0  0  0  0  0  0  0999 V2000
   21.5551    9.9367   55.5502 C   0  0  0  0  0  0  0  0  0  0  0  0
   21.4895    7.7517   51.9797 N   0  0  0  0  0  0  0  0  0  0  0  0
   20.7968    7.2697   53.1435 C   0  0  0  0  0  0  0  0  0  0  0  0
   21.4350    7.8253   54.4198 C   0  0  0  0  0  0  0  0  0  0  0  0
   21.2681    9.2574   54.3316 N   0  0  0  0  0  0  0  0  0  0  0  0
   21.8157    9.8243   53.1417 C   0  0  0  0  0  0  0  0  0  0  0  0
   22.4297    8.7878   52.2570 C   0  0  0  0  0  0  0  0  0  0  0  0
   20.5295    8.2053   51.0071 C   0  0  0  0  0  0  0  0  0  0  0  0
   18.1693    8.7080   50.6532 C   0  0  0  0  0  0  0  0  0  0  0  0
   19.1304    7.9346   51.5224 C   0  0  0  0  0  0  0  0  0  0  0  0
   23.0495   10.0793   55.6895 C   0  0  0  0  0  0  0  0  0  0  0  0
   23.6014    8.8072   55.3918 O   0  0  0  0  0  0  0  0  0  0  0  0
   24.9685    8.7085   55.2208 C   0  0  0  0  0  0  0  0  0  0  0  0
   25.8280    9.3932   56.0614 C   0  0  0  0  0  0  0  0  0  0  0  0
   27.1833    9.2694   55.8589 C   0  0  0  0  0  0  0  0  0  0  0  0
   27.6637    8.4758   54.8354 C   0  0  0  0  0  0  0  0  0  0  0  0
   29.1266    8.3424   54.6158 C   0  0  0  0  0  0  0  0  0  0  0  0
   26.7873    7.8315   54.0466 N   0  0  0  0  0  0  0  0  0  0  0  0
   25.4701    7.9213   54.2047 C   0  0  0  0  0  0  0  0  0  0  0  0
   24.5057    7.2027   53.3245 C   0  0  0  0  0  0  0  0  0  0  0  0
  9 10  1  0  0  0
 10  8  1  0  0  0
  8  2  1  0  0  0
  2  3  1  0  0  0
  3  4  1  0  0  0
  4  5  1  0  0  0
  5  1  1  0  0  0
  1 11  1  0  0  0
 11 12  1  0  0  0
 12 13  1  0  0  0
 13 14  2  0  0  0
 14 15  1  0  0  0
 15 16  2  0  0  0
 16 17  1  0  0  0
 16 18  1  0  0  0
 18 19  2  0  0  0
 19 20  1  0  0  0
  5  6  1  0  0  0
  6  7  1  0  0  0
  7  2  1  0  0  0
 19 13  1  0  0  0
M  END
> <minimizedAffinity>
8.42282

> <CNNscore>
0.4596254528

> <CNNaffinity>
5.4661884308

> <CNN_VS>
2.5123994350

> <CNNaffinity_variance>
0.2269395888

$$$$
[H]c1nc([H])c([H])c(C([H])([H])N([H])C(=O)c2nc(N([H])c3c([H])c([H])c(F)c(Cl)c3[H])c([H])c([H])c2[H])c1[H]


 27 29  0  0  0  0  0  0  0  0999 V2000
   26.4190    8.1921   53.6097 C   0  0  0  0  0  0  0  0  0  0  0  0
   27.3389    8.5751   54.5455 C   0  0  0  0  0  0  0  0  0  0  0  0
   28.4945    9.2977   54.2516 C   0  0  0  0  0  0  0  0  0  0  0  0
   28.7213    9.6466   52.9431 C   0  0  0  0  0  0  0  0  0  0  0  0
   27.7866    9.2560   52.0076 C   0  0  0  0  0  0  0  0  0  0  0  0
   26.6913    8.5659   52.3134 N   0  0  0  0  0  0  0  0  0  0  0  0
   28.0516    9.6451   50.6071 C   0  0  0  0  0  0  0  0  0  0  0  0
   28.0195    8.7947   49.6757 O   0  0  0  0  0  0  0  0  0  0  0  0
   28.3426   10.9891   50.3278 N   0  0  0  0  0  0  0  0  0  0  0  0
   28.3695   11.6928   51.0882 H   0  0  0  0  0  0  0  0  0  0  0  0
   28.6071   11.3848   48.9518 C   0  0  0  0  0  0  0  0  0  0  0  0
   27.6585   12.4450   48.5725 C   0  0  0  0  0  0  0  0  0  0  0  0
   26.6823   12.8064   49.4836 C   0  0  0  0  0  0  0  0  0  0  0  0
   25.7535   13.7967   49.1908 C   0  0  0  0  0  0  0  0  0  0  0  0
   25.8191   14.4064   47.9922 N   0  0  0  0  0  0  0  0  0  0  0  0
   26.7519   14.0866   47.0759 C   0  0  0  0  0  0  0  0  0  0  0  0
   27.6781   13.1012   47.3640 C   0  0  0  0  0  0  0  0  0  0  0  0
   25.2462    7.4254   53.8581 N   0  0  0  0  0  0  0  0  0  0  0  0
   25.3452    6.3700   53.9623 H   0  0  0  0  0  0  0  0  0  0  0  0
   20.1605    9.6055   54.1351 F   0  0  0  0  0  0  0  0  0  0  0  0
   21.4104    9.0719   54.0786 C   0  0  0  0  0  0  0  0  0  0  0  0
   22.3269    9.3121   55.0892 C   0  0  0  0  0  0  0  0  0  0  0  0
   23.6078    8.7711   55.0416 C   0  0  0  0  0  0  0  0  0  0  0  0
   23.9649    7.9865   53.9722 C   0  0  0  0  0  0  0  0  0  0  0  0
   23.0248    7.7485   52.9500 C   0  0  0  0  0  0  0  0  0  0  0  0
   21.7583    8.2866   53.0029 C   0  0  0  0  0  0  0  0  0  0  0  0
   20.5758    8.0010   51.7383 Cl  0  0  0  0  0  0  0  0  0  0  0  0
 20 21  1  0  0  0
 21 22  2  0  0  0
 22 23  1  0  0  0
 23 24  2  0  0  0
 24 18  1  0  0  0
 18  1  1  0  0  0
  1  2  2  0  0  0
  2  3  1  0  0  0
  3  4  2  0  0  0
  4  5  1  0  0  0
  5  6  2  0  0  0
  5  7  1  0  0  0
  7  8  2  0  0  0
  7  9  1  0  0  0
  9 11  1  0  0  0
 11 12  1  0  0  0
 12 13  2  0  0  0
 13 14  1  0  0  0
 14 15  2  0  0  0
 15 16  1  0  0  0
 16 17  2  0  0  0
 24 25  1  0  0  0
 25 26  2  0  0  0
 26 27  1  0  0  0
 26 21  1  0  0  0
  6  1  1  0  0  0
 17 12  1  0  0  0
 18 19  1  0  0  0
  9 10  1  0  0  0
M  END
> <minimizedAffinity>
23.74819

> <CNNscore>
0.5867848396

> <CNNaffinity>
5.7912721634

> <CNN_VS>
3.3982307911

> <CNNaffinity_variance>
0.1302004606

$$$$
[H]c1nc([H])c([H])c(C([H])([H])N([H])C(=O)c2nc(N([H])c3c([H])c([H])c(F)c(Cl)c3[H])c([H])c([H])c2[H])c1[H]


 27 29  0  0  0  0  0  0  0  0999 V2000
   22.6069    8.8939   54.1969 C   0  0  0  0  0  0  0  0  0  0  0  0
   21.9538    9.6184   53.2393 C   0  0  0  0  0  0  0  0  0  0  0  0
   21.0266    9.0767   52.3500 C   0  0  0  0  0  0  0  0  0  0  0  0
   20.7524    7.7345   52.4429 C   0  0  0  0  0  0  0  0  0  0  0  0
   21.4160    7.0135   53.4129 C   0  0  0  0  0  0  0  0  0  0  0  0
   22.2975    7.5539   54.2498 N   0  0  0  0  0  0  0  0  0  0  0  0
   21.1023    5.5719   53.4946 C   0  0  0  0  0  0  0  0  0  0  0  0
   22.0029    4.7198   53.7274 O   0  0  0  0  0  0  0  0  0  0  0  0
   19.7733    5.1629   53.3068 N   0  0  0  0  0  0  0  0  0  0  0  0
   19.0285    5.8580   53.1162 H   0  0  0  0  0  0  0  0  0  0  0  0
   19.4517    3.7450   53.3833 C   0  0  0  0  0  0  0  0  0  0  0  0
   17.9919    3.5955   53.5036 C   0  0  0  0  0  0  0  0  0  0  0  0
   17.3152    4.4462   54.3592 C   0  0  0  0  0  0  0  0  0  0  0  0
   15.9387    4.3593   54.5231 C   0  0  0  0  0  0  0  0  0  0  0  0
   15.2657    3.4231   53.8280 N   0  0  0  0  0  0  0  0  0  0  0  0
   15.8834    2.5748   52.9848 C   0  0  0  0  0  0  0  0  0  0  0  0
   17.2536    2.6584   52.8192 C   0  0  0  0  0  0  0  0  0  0  0  0
   23.5846    9.3962   55.1006 N   0  0  0  0  0  0  0  0  0  0  0  0
   23.2673   10.0608   55.8701 H   0  0  0  0  0  0  0  0  0  0  0  0
   28.9900    8.1890   54.9654 F   0  0  0  0  0  0  0  0  0  0  0  0
   27.6610    8.4775   54.9901 C   0  0  0  0  0  0  0  0  0  0  0  0
   26.8492    8.1584   53.9139 C   0  0  0  0  0  0  0  0  0  0  0  0
   25.4886    8.4488   53.9288 C   0  0  0  0  0  0  0  0  0  0  0  0
   24.9461    9.0627   55.0312 C   0  0  0  0  0  0  0  0  0  0  0  0
   25.7809    9.3826   56.1203 C   0  0  0  0  0  0  0  0  0  0  0  0
   27.1269    9.0924   56.0998 C   0  0  0  0  0  0  0  0  0  0  0  0
   28.1808    9.4846   57.4469 Cl  0  0  0  0  0  0  0  0  0  0  0  0
 20 21  1  0  0  0
 21 22  2  0  0  0
 22 23  1  0  0  0
 23 24  2  0  0  0
 24 18  1  0  0  0
 18  1  1  0  0  0
  1  2  2  0  0  0
  2  3  1  0  0  0
  3  4  2  0  0  0
  4  5  1  0  0  0
  5  6  2  0  0  0
  5  7  1  0  0  0
  7  8  2  0  0  0
  7  9  1  0  0  0
  9 11  1  0  0  0
 11 12  1  0  0  0
 12 13  2  0  0  0
 13 14  1  0  0  0
 14 15  2  0  0  0
 15 16  1  0  0  0
 16 17  2  0  0  0
 24 25  1  0  0  0
 25 26  2  0  0  0
 26 27  1  0  0  0
 26 21  1  0  0  0
  6  1  1  0  0  0
 17 12  1  0  0  0
 18 19  1  0  0  0
  9 10  1  0  0  0
M  END
> <minimizedAffinity>
11.17068

> <CNNscore>
0.5752787590

> <CNNaffinity>
6.1765394211

> <CNN_VS>
3.5532319546

> <CNNaffinity_variance>
0.3176862299

$$$$
[H]c1nc([H])c([H])c(C([H])([H])N([H])C(=O)c2nc(N([H])c3c([H])c([H])c(F)c(Cl)c3[H])c([H])c([H])c2[H])c1[H]


 27 29  0  0  0  0  0  0  0  0999 V2000
   25.8572    7.6907   53.7572 C   0  0  0  0  0  0  0  0  0  0  0  0
   26.4076    7.8565   54.9974 C   0  0  0  0  0  0  0  0  0  0  0  0
   27.5276    8.6465   55.2533 C   0  0  0  0  0  0  0  0  0  0  0  0
   28.1121    9.2981   54.1955 C   0  0  0  0  0  0  0  0  0  0  0  0
   27.5484    9.1247   52.9492 C   0  0  0  0  0  0  0  0  0  0  0  0
   26.4789    8.3645   52.7306 N   0  0  0  0  0  0  0  0  0  0  0  0
   28.1936    9.8378   51.8275 C   0  0  0  0  0  0  0  0  0  0  0  0
   29.0979   10.6936   52.0314 O   0  0  0  0  0  0  0  0  0  0  0  0
   27.7796    9.5445   50.5192 N   0  0  0  0  0  0  0  0  0  0  0  0
   27.0380    8.8418   50.3449 H   0  0  0  0  0  0  0  0  0  0  0  0
   28.4067   10.2416   49.4054 C   0  0  0  0  0  0  0  0  0  0  0  0
   28.6449    9.2791   48.3170 C   0  0  0  0  0  0  0  0  0  0  0  0
   28.3099    9.6529   47.0279 C   0  0  0  0  0  0  0  0  0  0  0  0
   28.5051    8.7938   45.9541 C   0  0  0  0  0  0  0  0  0  0  0  0
   29.0315    7.5775   46.1905 N   0  0  0  0  0  0  0  0  0  0  0  0
   29.3719    7.1724   47.4283 C   0  0  0  0  0  0  0  0  0  0  0  0
   29.1790    8.0250   48.4997 C   0  0  0  0  0  0  0  0  0  0  0  0
   24.7389    6.8685   53.4442 N   0  0  0  0  0  0  0  0  0  0  0  0
   24.9181    5.9281   52.9772 H   0  0  0  0  0  0  0  0  0  0  0  0
   19.5575    8.4480   54.6073 F   0  0  0  0  0  0  0  0  0  0  0  0
   20.8255    8.0511   54.3156 C   0  0  0  0  0  0  0  0  0  0  0  0
   21.0818    6.7539   53.9029 C   0  0  0  0  0  0  0  0  0  0  0  0
   22.3747    6.3375   53.6017 C   0  0  0  0  0  0  0  0  0  0  0  0
   23.4111    7.2315   53.7176 C   0  0  0  0  0  0  0  0  0  0  0  0
   23.1389    8.5485   54.1380 C   0  0  0  0  0  0  0  0  0  0  0  0
   21.8570    8.9548   54.4344 C   0  0  0  0  0  0  0  0  0  0  0  0
   21.5008   10.5906   54.9601 Cl  0  0  0  0  0  0  0  0  0  0  0  0
 20 21  1  0  0  0
 21 22  2  0  0  0
 22 23  1  0  0  0
 23 24  2  0  0  0
 24 18  1  0  0  0
 18  1  1  0  0  0
  1  2  2  0  0  0
  2  3  1  0  0  0
  3  4  2  0  0  0
  4  5  1  0  0  0
  5  6  2  0  0  0
  5  7  1  0  0  0
  7  8  2  0  0  0
  7  9  1  0  0  0
  9 11  1  0  0  0
 11 12  1  0  0  0
 12 13  2  0  0  0
 13 14  1  0  0  0
 14 15  2  0  0  0
 15 16  1  0  0  0
 16 17  2  0  0  0
 24 25  1  0  0  0
 25 26  2  0  0  0
 26 27  1  0  0  0
 26 21  1  0  0  0
  6  1  1  0  0  0
 17 12  1  0  0  0
 18 19  1  0  0  0
  9 10  1  0  0  0
M  END
> <minimizedAffinity>
14.76004

> <CNNscore>
0.5544226766

> <CNNaffinity>
5.7160997391

> <CNN_VS>
3.1691353321

> <CNNaffinity_variance>
0.0909521207

$$$$
[H]c1nc([H])c([H])c(C([H])([H])N([H])C(=O)c2nc(N([H])c3c([H])c([H])c(F)c(Cl)c3[H])c([H])c([H])c2[H])c1[H]


 27 29  0  0  0  0  0  0  0  0999 V2000
   23.2289    7.0987   53.2910 C   0  0  0  0  0  0  0  0  0  0  0  0
   23.2018    5.8690   53.8874 C   0  0  0  0  0  0  0  0  0  0  0  0
   24.2478    5.3492   54.6486 C   0  0  0  0  0  0  0  0  0  0  0  0
   25.3728    6.1199   54.8096 C   0  0  0  0  0  0  0  0  0  0  0  0
   25.3892    7.3588   54.2047 C   0  0  0  0  0  0  0  0  0  0  0  0
   24.3776    7.8324   53.4823 N   0  0  0  0  0  0  0  0  0  0  0  0
   26.6093    8.1702   54.3944 C   0  0  0  0  0  0  0  0  0  0  0  0
   27.3983    8.3970   53.4365 O   0  0  0  0  0  0  0  0  0  0  0  0
   26.8784    8.6889   55.6701 N   0  0  0  0  0  0  0  0  0  0  0  0
   26.2337    8.5071   56.4610 H   0  0  0  0  0  0  0  0  0  0  0  0
   28.0784    9.4888   55.8702 C   0  0  0  0  0  0  0  0  0  0  0  0
   28.2876    9.6769   57.3154 C   0  0  0  0  0  0  0  0  0  0  0  0
   28.3086   10.9683   57.8110 C   0  0  0  0  0  0  0  0  0  0  0  0
   28.5038   11.2189   59.1631 C   0  0  0  0  0  0  0  0  0  0  0  0
   28.6743   10.1729   59.9934 N   0  0  0  0  0  0  0  0  0  0  0  0
   28.6611    8.9004   59.5546 C   0  0  0  0  0  0  0  0  0  0  0  0
   28.4671    8.6471   58.2092 C   0  0  0  0  0  0  0  0  0  0  0  0
   22.2016    7.6543   52.4781 N   0  0  0  0  0  0  0  0  0  0  0  0
   21.6888    7.0107   51.8019 H   0  0  0  0  0  0  0  0  0  0  0  0
   20.6839   12.9720   52.8134 F   0  0  0  0  0  0  0  0  0  0  0  0
   21.0603   11.6682   52.7201 C   0  0  0  0  0  0  0  0  0  0  0  0
   21.2459   11.0739   51.4827 C   0  0  0  0  0  0  0  0  0  0  0  0
   21.6310    9.7412   51.3758 C   0  0  0  0  0  0  0  0  0  0  0  0
   21.8287    9.0066   52.5194 C   0  0  0  0  0  0  0  0  0  0  0  0
   21.6372    9.6212   53.7728 C   0  0  0  0  0  0  0  0  0  0  0  0
   21.2562   10.9408   53.8722 C   0  0  0  0  0  0  0  0  0  0  0  0
   21.0126   11.7213   55.4248 Cl  0  0  0  0  0  0  0  0  0  0  0  0
 20 21  1  0  0  0
 21 22  2  0  0  0
 22 23  1  0  0  0
 23 24  2  0  0  0
 24 18  1  0  0  0
 18  1  1  0  0  0
  1  2  2  0  0  0
  2  3  1  0  0  0
  3  4  2  0  0  0
  4  5  1  0  0  0
  5  6  2  0  0  0
  5  7  1  0  0  0
  7  8  2  0  0  0
  7  9  1  0  0  0
  9 11  1  0  0  0
 11 12  1  0  0  0
 12 13  2  0  0  0
 13 14  1  0  0  0
 14 15  2  0  0  0
 15 16  1  0  0  0
 16 17  2  0  0  0
 24 25  1  0  0  0
 25 26  2  0  0  0
 26 27  1  0  0  0
 26 21  1  0  0  0
  6  1  1  0  0  0
 17 12  1  0  0  0
 18 19  1  0  0  0
  9 10  1  0  0  0
M  END
> <minimizedAffinity>
11.89643

> <CNNscore>
0.5502031446

> <CNNaffinity>
5.7066068649

> <CNN_VS>
3.1397931576

> <CNNaffinity_variance>
0.1797498912

$$$$
[H]c1nc([H])c([H])c(C([H])([H])N([H])C(=O)c2nc(N([H])c3c([H])c([H])c(F)c(Cl)c3[H])c([H])c([H])c2[H])c1[H]


 27 29  0  0  0  0  0  0  0  0999 V2000
   23.5482    8.2270   54.4603 C   0  0  0  0  0  0  0  0  0  0  0  0
   23.3341    9.4439   55.0451 C   0  0  0  0  0  0  0  0  0  0  0  0
   22.1271   10.1386   54.9784 C   0  0  0  0  0  0  0  0  0  0  0  0
   21.0906    9.5648   54.2844 C   0  0  0  0  0  0  0  0  0  0  0  0
   21.3170    8.3369   53.6994 C   0  0  0  0  0  0  0  0  0  0  0  0
   22.4790    7.6940   53.7769 N   0  0  0  0  0  0  0  0  0  0  0  0
   20.1860    7.7389   52.9602 C   0  0  0  0  0  0  0  0  0  0  0  0
   20.1809    7.6932   51.6995 O   0  0  0  0  0  0  0  0  0  0  0  0
   19.1074    7.2180   53.6911 N   0  0  0  0  0  0  0  0  0  0  0  0
   19.1059    7.2515   54.7270 H   0  0  0  0  0  0  0  0  0  0  0  0
   17.9861    6.6275   52.9742 C   0  0  0  0  0  0  0  0  0  0  0  0
   17.5829    5.3894   53.6614 C   0  0  0  0  0  0  0  0  0  0  0  0
   18.5537    4.4383   53.9196 C   0  0  0  0  0  0  0  0  0  0  0  0
   18.2432    3.2465   54.5617 C   0  0  0  0  0  0  0  0  0  0  0  0
   16.9675    3.0291   54.9331 N   0  0  0  0  0  0  0  0  0  0  0  0
   15.9912    3.9265   54.7021 C   0  0  0  0  0  0  0  0  0  0  0  0
   16.2967    5.1140   54.0630 C   0  0  0  0  0  0  0  0  0  0  0  0
   24.7710    7.4994   54.4724 N   0  0  0  0  0  0  0  0  0  0  0  0
   24.7269    6.4365   54.4205 H   0  0  0  0  0  0  0  0  0  0  0  0
   29.7070    9.9719   54.9379 F   0  0  0  0  0  0  0  0  0  0  0  0
   28.4986    9.3598   54.8136 C   0  0  0  0  0  0  0  0  0  0  0  0
   28.0756    8.8752   53.5868 C   0  0  0  0  0  0  0  0  0  0  0  0
   26.8418    8.2473   53.4485 C   0  0  0  0  0  0  0  0  0  0  0  0
   26.0329    8.1085   54.5499 C   0  0  0  0  0  0  0  0  0  0  0  0
   26.4732    8.6050   55.7929 C   0  0  0  0  0  0  0  0  0  0  0  0
   27.6957    9.2253   55.9236 C   0  0  0  0  0  0  0  0  0  0  0  0
   28.2589    9.8499   57.4637 Cl  0  0  0  0  0  0  0  0  0  0  0  0
 20 21  1  0  0  0
 21 22  2  0  0  0
 22 23  1  0  0  0
 23 24  2  0  0  0
 24 18  1  0  0  0
 18  1  1  0  0  0
  1  2  2  0  0  0
  2  3  1  0  0  0
  3  4  2  0  0  0
  4  5  1  0  0  0
  5  6  2  0  0  0
  5  7  1  0  0  0
  7  8  2  0  0  0
  7  9  1  0  0  0
  9 11  1  0  0  0
 11 12  1  0  0  0
 12 13  2  0  0  0
 13 14  1  0  0  0
 14 15  2  0  0  0
 15 16  1  0  0  0
 16 17  2  0  0  0
 24 25  1  0  0  0
 25 26  2  0  0  0
 26 27  1  0  0  0
 26 21  1  0  0  0
  6  1  1  0  0  0
 17 12  1  0  0  0
 18 19  1  0  0  0
  9 10  1  0  0  0
M  END
> <minimizedAffinity>
18.78775

> <CNNscore>
0.5303894877

> <CNNaffinity>
6.0541505814

> <CNN_VS>
3.2110579014

> <CNNaffinity_variance>
0.4480604529

$$$$
[H]c1nc([H])c([H])c(C([H])([H])N([H])C(=O)c2nc(N([H])c3c([H])c([H])c(F)c(Cl)c3[H])c([H])c([H])c2[H])c1[H]


 27 29  0  0  0  0  0  0  0  0999 V2000
   23.2315    8.1453   53.7216 C   0  0  0  0  0  0  0  0  0  0  0  0
   22.6609    9.2670   54.2552 C   0  0  0  0  0  0  0  0  0  0  0  0
   21.2864    9.4452   54.4063 C   0  0  0  0  0  0  0  0  0  0  0  0
   20.4560    8.4318   53.9954 C   0  0  0  0  0  0  0  0  0  0  0  0
   21.0421    7.3046   53.4596 C   0  0  0  0  0  0  0  0  0  0  0  0
   22.3575    7.1588   53.3254 N   0  0  0  0  0  0  0  0  0  0  0  0
   20.1281    6.2273   53.0269 C   0  0  0  0  0  0  0  0  0  0  0  0
   19.1982    6.4509   52.2042 O   0  0  0  0  0  0  0  0  0  0  0  0
   20.3134    4.9392   53.5517 N   0  0  0  0  0  0  0  0  0  0  0  0
   21.0761    4.7487   54.2271 H   0  0  0  0  0  0  0  0  0  0  0  0
   19.4184    3.8694   53.1343 C   0  0  0  0  0  0  0  0  0  0  0  0
   18.3081    3.7772   54.0968 C   0  0  0  0  0  0  0  0  0  0  0  0
   17.0430    4.1437   53.6737 C   0  0  0  0  0  0  0  0  0  0  0  0
   15.9507    4.0840   54.5296 C   0  0  0  0  0  0  0  0  0  0  0  0
   16.1450    3.6589   55.7921 N   0  0  0  0  0  0  0  0  0  0  0  0
   17.3582    3.2925   56.2461 C   0  0  0  0  0  0  0  0  0  0  0  0
   18.4478    3.3507   55.3968 C   0  0  0  0  0  0  0  0  0  0  0  0
   24.6238    7.9349   53.5162 N   0  0  0  0  0  0  0  0  0  0  0  0
   24.9318    7.4104   52.6418 H   0  0  0  0  0  0  0  0  0  0  0  0
   28.6491    9.5945   56.9419 F   0  0  0  0  0  0  0  0  0  0  0  0
   27.6534    9.1944   56.1060 C   0  0  0  0  0  0  0  0  0  0  0  0
   26.3258    9.4192   56.4312 C   0  0  0  0  0  0  0  0  0  0  0  0
   25.2995    9.0145   55.5834 C   0  0  0  0  0  0  0  0  0  0  0  0
   25.6133    8.3814   54.4056 C   0  0  0  0  0  0  0  0  0  0  0  0
   26.9670    8.1581   54.0847 C   0  0  0  0  0  0  0  0  0  0  0  0
   27.9784    8.5612   54.9278 C   0  0  0  0  0  0  0  0  0  0  0  0
   29.6691    8.2903   54.5439 Cl  0  0  0  0  0  0  0  0  0  0  0  0
 20 21  1  0  0  0
 21 22  2  0  0  0
 22 23  1  0  0  0
 23 24  2  0  0  0
 24 18  1  0  0  0
 18  1  1  0  0  0
  1  2  2  0  0  0
  2  3  1  0  0  0
  3  4  2  0  0  0
  4  5  1  0  0  0
  5  6  2  0  0  0
  5  7  1  0  0  0
  7  8  2  0  0  0
  7  9  1  0  0  0
  9 11  1  0  0  0
 11 12  1  0  0  0
 12 13  2  0  0  0
 13 14  1  0  0  0
 14 15  2  0  0  0
 15 16  1  0  0  0
 16 17  2  0  0  0
 24 25  1  0  0  0
 25 26  2  0  0  0
 26 27  1  0  0  0
 26 21  1  0  0  0
  6  1  1  0  0  0
 17 12  1  0  0  0
 18 19  1  0  0  0
  9 10  1  0  0  0
M  END
> <minimizedAffinity>
14.98948

> <CNNscore>
0.5130606890

> <CNNaffinity>
6.1592984200

> <CNN_VS>
3.1600937843

> <CNNaffinity_variance>
0.3329408765

$$$$
[H]c1nc([H])c([H])c(C([H])([H])N([H])C(=O)c2nc(N([H])c3c([H])c([H])c(F)c(Cl)c3[H])c([H])c([H])c2[H])c1[H]


 27 29  0  0  0  0  0  0  0  0999 V2000
   23.5206    8.0458   52.9612 C   0  0  0  0  0  0  0  0  0  0  0  0
   22.8048    9.1098   52.4880 C   0  0  0  0  0  0  0  0  0  0  0  0
   21.4118    9.1659   52.4711 C   0  0  0  0  0  0  0  0  0  0  0  0
   20.7173    8.0873   52.9607 C   0  0  0  0  0  0  0  0  0  0  0  0
   21.4491    7.0199   53.4364 C   0  0  0  0  0  0  0  0  0  0  0  0
   22.7791    6.9903   53.4411 N   0  0  0  0  0  0  0  0  0  0  0  0
   20.6795    5.8725   53.9600 C   0  0  0  0  0  0  0  0  0  0  0  0
   21.0469    5.2595   54.9997 O   0  0  0  0  0  0  0  0  0  0  0  0
   19.5223    5.4722   53.2748 N   0  0  0  0  0  0  0  0  0  0  0  0
   19.2145    5.9722   52.4207 H   0  0  0  0  0  0  0  0  0  0  0  0
   18.7561    4.3419   53.7799 C   0  0  0  0  0  0  0  0  0  0  0  0
   19.5026    3.1026   53.5067 C   0  0  0  0  0  0  0  0  0  0  0  0
   19.6422    2.1833   54.5310 C   0  0  0  0  0  0  0  0  0  0  0  0
   20.3360    0.9948   54.3438 C   0  0  0  0  0  0  0  0  0  0  0  0
   20.8768    0.7487   53.1357 N   0  0  0  0  0  0  0  0  0  0  0  0
   20.7655    1.6147   52.1111 C   0  0  0  0  0  0  0  0  0  0  0  0
   20.0756    2.7989   52.2938 C   0  0  0  0  0  0  0  0  0  0  0  0
   24.9389    7.9304   52.9656 N   0  0  0  0  0  0  0  0  0  0  0  0
   25.4146    7.5138   52.1085 H   0  0  0  0  0  0  0  0  0  0  0  0
   28.2588    9.4474   57.1334 F   0  0  0  0  0  0  0  0  0  0  0  0
   27.4350    9.0813   56.1148 C   0  0  0  0  0  0  0  0  0  0  0  0
   26.0597    9.1777   56.2497 C   0  0  0  0  0  0  0  0  0  0  0  0
   25.2080    8.8063   55.2142 C   0  0  0  0  0  0  0  0  0  0  0  0
   25.7448    8.3361   54.0406 C   0  0  0  0  0  0  0  0  0  0  0  0
   27.1449    8.2423   53.9141 C   0  0  0  0  0  0  0  0  0  0  0  0
   27.9829    8.6118   54.9425 C   0  0  0  0  0  0  0  0  0  0  0  0
   29.7285    8.5006   54.8020 Cl  0  0  0  0  0  0  0  0  0  0  0  0
 20 21  1  0  0  0
 21 22  2  0  0  0
 22 23  1  0  0  0
 23 24  2  0  0  0
 24 18  1  0  0  0
 18  1  1  0  0  0
  1  2  2  0  0  0
  2  3  1  0  0  0
  3  4  2  0  0  0
  4  5  1  0  0  0
  5  6  2  0  0  0
  5  7  1  0  0  0
  7  8  2  0  0  0
  7  9  1  0  0  0
  9 11  1  0  0  0
 11 12  1  0  0  0
 12 13  2  0  0  0
 13 14  1  0  0  0
 14 15  2  0  0  0
 15 16  1  0  0  0
 16 17  2  0  0  0
 24 25  1  0  0  0
 25 26  2  0  0  0
 26 27  1  0  0  0
 26 21  1  0  0  0
  6  1  1  0  0  0
 17 12  1  0  0  0
 18 19  1  0  0  0
  9 10  1  0  0  0
M  END
> <minimizedAffinity>
26.32466

> <CNNscore>
0.5012707710

> <CNNaffinity>
6.0678911209

> <CNN_VS>
3.0416564941

> <CNNaffinity_variance>
0.3028890193

$$$$
[H]c1nc([H])c([H])c(C([H])([H])N([H])C(=O)c2nc(N([H])c3c([H])c([H])c(F)c(Cl)c3[H])c([H])c([H])c2[H])c1[H]


 27 29  0  0  0  0  0  0  0  0999 V2000
   20.7488    7.9143   53.3667 C   0  0  0  0  0  0  0  0  0  0  0  0
   20.4457    9.0104   54.1251 C   0  0  0  0  0  0  0  0  0  0  0  0
   21.3755    9.7037   54.8988 C   0  0  0  0  0  0  0  0  0  0  0  0
   22.6746    9.2590   54.8976 C   0  0  0  0  0  0  0  0  0  0  0  0
   22.9696    8.1532   54.1285 C   0  0  0  0  0  0  0  0  0  0  0  0
   22.0635    7.5082   53.3987 N   0  0  0  0  0  0  0  0  0  0  0  0
   24.3743    7.6953   54.1418 C   0  0  0  0  0  0  0  0  0  0  0  0
   24.7355    6.7165   54.8511 O   0  0  0  0  0  0  0  0  0  0  0  0
   25.3087    8.3739   53.3447 N   0  0  0  0  0  0  0  0  0  0  0  0
   25.0183    9.1781   52.7589 H   0  0  0  0  0  0  0  0  0  0  0  0
   26.6963    7.9332   53.3503 C   0  0  0  0  0  0  0  0  0  0  0  0
   27.3865    8.5537   54.4932 C   0  0  0  0  0  0  0  0  0  0  0  0
   26.6591    8.7942   55.6451 C   0  0  0  0  0  0  0  0  0  0  0  0
   27.2459    9.3790   56.7599 C   0  0  0  0  0  0  0  0  0  0  0  0
   28.5490    9.7119   56.7010 N   0  0  0  0  0  0  0  0  0  0  0  0
   29.2947    9.4961   55.6012 C   0  0  0  0  0  0  0  0  0  0  0  0
   28.7138    8.9142   54.4895 C   0  0  0  0  0  0  0  0  0  0  0  0
   19.8277    7.1560   52.5912 N   0  0  0  0  0  0  0  0  0  0  0  0
   19.7367    7.3795   51.5537 H   0  0  0  0  0  0  0  0  0  0  0  0
   16.7945    2.9817   54.6082 F   0  0  0  0  0  0  0  0  0  0  0  0
   17.5325    4.0142   54.1187 C   0  0  0  0  0  0  0  0  0  0  0  0
   17.0216    5.3017   54.1027 C   0  0  0  0  0  0  0  0  0  0  0  0
   17.7678    6.3650   53.6046 C   0  0  0  0  0  0  0  0  0  0  0  0
   19.0317    6.1290   53.1213 C   0  0  0  0  0  0  0  0  0  0  0  0
   19.5415    4.8156   53.1427 C   0  0  0  0  0  0  0  0  0  0  0  0
   18.7982    3.7672   53.6372 C   0  0  0  0  0  0  0  0  0  0  0  0
   19.4174    2.1256   53.6704 Cl  0  0  0  0  0  0  0  0  0  0  0  0
 20 21  1  0  0  0
 21 22  2  0  0  0
 22 23  1  0  0  0
 23 24  2  0  0  0
 24 18  1  0  0  0
 18  1  1  0  0  0
  1  2  2  0  0  0
  2  3  1  0  0  0
  3  4  2  0  0  0
  4  5  1  0  0  0
  5  6  2  0  0  0
  5  7  1  0  0  0
  7  8  2  0  0  0
  7  9  1  0  0  0
  9 11  1  0  0  0
 11 12  1  0  0  0
 12 13  2  0  0  0
 13 14  1  0  0  0
 14 15  2  0  0  0
 15 16  1  0  0  0
 16 17  2  0  0  0
 24 25  1  0  0  0
 25 26  2  0  0  0
 26 27  1  0  0  0
 26 21  1  0  0  0
  6  1  1  0  0  0
 17 12  1  0  0  0
 18 19  1  0  0  0
  9 10  1  0  0  0
M  END
> <minimizedAffinity>
18.22399

> <CNNscore>
0.4968168736

> <CNNaffinity>
6.1005964279

> <CNN_VS>
3.0308792591

> <CNNaffinity_variance>
0.4728221297

$$$$
[H]c1nc([H])c([H])c(C([H])([H])N([H])C(=O)c2nc(N([H])c3c([H])c([H])c(F)c(Cl)c3[H])c([H])c([H])c2[H])c1[H]


 27 29  0  0  0  0  0  0  0  0999 V2000
   22.6200    8.1125   53.6853 C   0  0  0  0  0  0  0  0  0  0  0  0
   21.9801    9.0922   54.3918 C   0  0  0  0  0  0  0  0  0  0  0  0
   22.6105    9.9240   55.3163 C   0  0  0  0  0  0  0  0  0  0  0  0
   23.9557    9.7491   55.5286 C   0  0  0  0  0  0  0  0  0  0  0  0
   24.5915    8.7589   54.8100 C   0  0  0  0  0  0  0  0  0  0  0  0
   23.9671    7.9771   53.9333 N   0  0  0  0  0  0  0  0  0  0  0  0
   26.0390    8.5915   55.0541 C   0  0  0  0  0  0  0  0  0  0  0  0
   26.7458    7.8560   54.3118 O   0  0  0  0  0  0  0  0  0  0  0  0
   26.6198    9.2707   56.1359 N   0  0  0  0  0  0  0  0  0  0  0  0
   26.0449    9.8773   56.7489 H   0  0  0  0  0  0  0  0  0  0  0  0
   28.0451    9.1128   56.3879 C   0  0  0  0  0  0  0  0  0  0  0  0
   28.3628    9.7001   57.7000 C   0  0  0  0  0  0  0  0  0  0  0  0
   28.6213    8.8436   58.7552 C   0  0  0  0  0  0  0  0  0  0  0  0
   28.9251    9.3291   60.0205 C   0  0  0  0  0  0  0  0  0  0  0  0
   28.9645   10.6619   60.2060 N   0  0  0  0  0  0  0  0  0  0  0  0
   28.7199   11.5317   59.2081 C   0  0  0  0  0  0  0  0  0  0  0  0
   28.4170   11.0520   57.9472 C   0  0  0  0  0  0  0  0  0  0  0  0
   22.0118    7.2188   52.7599 N   0  0  0  0  0  0  0  0  0  0  0  0
   22.4383    7.1305   51.7879 H   0  0  0  0  0  0  0  0  0  0  0  0
   17.6178    4.0325   53.8708 F   0  0  0  0  0  0  0  0  0  0  0  0
   18.6915    4.8238   53.6037 C   0  0  0  0  0  0  0  0  0  0  0  0
   18.5849    6.2034   53.6673 C   0  0  0  0  0  0  0  0  0  0  0  0
   19.6768    7.0220   53.3963 C   0  0  0  0  0  0  0  0  0  0  0  0
   20.8783    6.4477   53.0601 C   0  0  0  0  0  0  0  0  0  0  0  0
   20.9755    5.0433   52.9987 C   0  0  0  0  0  0  0  0  0  0  0  0
   19.8913    4.2383   53.2682 C   0  0  0  0  0  0  0  0  0  0  0  0
   19.9948    2.4881   53.1955 Cl  0  0  0  0  0  0  0  0  0  0  0  0
 20 21  1  0  0  0
 21 22  2  0  0  0
 22 23  1  0  0  0
 23 24  2  0  0  0
 24 18  1  0  0  0
 18  1  1  0  0  0
  1  2  2  0  0  0
  2  3  1  0  0  0
  3  4  2  0  0  0
  4  5  1  0  0  0
  5  6  2  0  0  0
  5  7  1  0  0  0
  7  8  2  0  0  0
  7  9  1  0  0  0
  9 11  1  0  0  0
 11 12  1  0  0  0
 12 13  2  0  0  0
 13 14  1  0  0  0
 14 15  2  0  0  0
 15 16  1  0  0  0
 16 17  2  0  0  0
 24 25  1  0  0  0
 25 26  2  0  0  0
 26 27  1  0  0  0
 26 21  1  0  0  0
  6  1  1  0  0  0
 17 12  1  0  0  0
 18 19  1  0  0  0
  9 10  1  0  0  0
M  END
> <minimizedAffinity>
12.15822

> <CNNscore>
0.4930508733

> <CNNaffinity>
5.8551769257

> <CNN_VS>
2.8869001865

> <CNNaffinity_variance>
0.2883535922

$$$$
[H]c1c([H])c([H])c2c(c1[H])c1c3c(c4c5c([H])c([H])c([H])c([H])c5n5c4c1n2[C@@]1(C([H])([H])[H])O[C@]5([H])C([H])([H])[C@]([H])(N([H])C([H])([H])[H])[C@]1([H])OC([H])([H])[H])C(=O)N([H])C3([H])[H]


 37 44  0  0  0  0  0  0  0  0999 V2000
   22.1018   10.5314   53.7326 C   0  0  0  0  0  0  0  0  0  0  0  0
   22.6698   11.3375   54.8843 C   0  0  0  0  0  0  0  0  0  0  0  0
   22.9923   10.4756   56.0721 C   0  0  0  0  0  0  0  0  0  0  0  0
   22.2214    9.4167   56.3064 O   0  0  0  0  0  0  0  0  0  0  0  0
   21.7551    8.6355   55.2441 C   0  0  0  0  0  0  0  0  0  0  0  0
   20.6869    7.7864   55.9092 C   0  0  0  0  0  0  0  0  0  0  0  0
   21.0782    9.6098   54.3032 C   0  0  0  0  0  0  0  0  0  0  0  0
   22.8196    7.8523   54.6612 N   0  0  0  0  0  0  0  0  0  0  0  0
   22.6419    6.6974   53.9737 C   0  0  0  0  0  0  0  0  0  0  0  0
   21.5415    6.0085   53.5610 C   0  0  0  0  0  0  0  0  0  0  0  0
   21.6185    4.8156   52.8382 C   0  0  0  0  0  0  0  0  0  0  0  0
   22.8347    4.2829   52.5094 C   0  0  0  0  0  0  0  0  0  0  0  0
   23.9478    4.9675   52.9178 C   0  0  0  0  0  0  0  0  0  0  0  0
   23.8837    6.1447   53.6311 C   0  0  0  0  0  0  0  0  0  0  0  0
   24.8362    6.9979   54.1241 C   0  0  0  0  0  0  0  0  0  0  0  0
   26.2146    6.9631   54.0839 C   0  0  0  0  0  0  0  0  0  0  0  0
   27.1455    5.9728   53.4891 C   0  0  0  0  0  0  0  0  0  0  0  0
   28.4495    6.4730   53.7698 N   0  0  0  0  0  0  0  0  0  0  0  0
   28.3623    7.7132   54.4970 C   0  0  0  0  0  0  0  0  0  0  0  0
   29.3767    8.3301   54.8459 O   0  0  0  0  0  0  0  0  0  0  0  0
   26.9540    7.9928   54.6777 C   0  0  0  0  0  0  0  0  0  0  0  0
   26.2560    9.0306   55.2942 C   0  0  0  0  0  0  0  0  0  0  0  0
   26.6378   10.2041   55.9409 C   0  0  0  0  0  0  0  0  0  0  0  0
   27.8431   10.7485   56.2296 C   0  0  0  0  0  0  0  0  0  0  0  0
   27.8860   11.9782   56.9107 C   0  0  0  0  0  0  0  0  0  0  0  0
   26.7295   12.6112   57.2740 C   0  0  0  0  0  0  0  0  0  0  0  0
   25.4950   12.0749   56.9902 C   0  0  0  0  0  0  0  0  0  0  0  0
   25.4669   10.8644   56.3196 C   0  0  0  0  0  0  0  0  0  0  0  0
   24.4180   10.1301   55.9251 N   0  0  0  0  0  0  0  0  0  0  0  0
   24.8695    9.0318   55.3154 C   0  0  0  0  0  0  0  0  0  0  0  0
   24.1811    8.0058   54.7287 C   0  0  0  0  0  0  0  0  0  0  0  0
   29.3272    5.9957   53.4820 H   0  0  0  0  0  0  0  0  0  0  0  0
   21.1272   10.7559   51.5032 C   0  0  0  0  0  0  0  0  0  0  0  0
   21.7780   11.3035   52.6214 N   0  0  0  0  0  0  0  0  0  0  0  0
   22.4897   12.0025   52.3203 H   0  0  0  0  0  0  0  0  0  0  0  0
   20.2346   10.3652   55.1016 O   0  0  0  0  0  0  0  0  0  0  0  0
   20.7769   11.2691   55.9505 C   0  0  0  0  0  0  0  0  0  0  0  0
 33 34  1  0  0  0
 34  1  1  0  0  0
  1  2  1  0  0  0
  2  3  1  0  0  0
  3  4  1  0  0  0
  4  5  1  0  0  0
  5  6  1  0  0  0
  5  7  1  0  0  0
  7 36  1  0  0  0
 36 37  1  0  0  0
  5  8  1  0  0  0
  8  9  1  0  0  0
  9 10  2  0  0  0
 10 11  1  0  0  0
 11 12  2  0  0  0
 12 13  1  0  0  0
 13 14  2  0  0  0
 14 15  1  0  0  0
 15 16  2  0  0  0
 16 17  1  0  0  0
 17 18  1  0  0  0
 18 19  1  0  0  0
 19 20  2  0  0  0
 19 21  1  0  0  0
 21 22  2  0  0  0
 22 23  1  0  0  0
 23 24  2  0  0  0
 24 25  1  0  0  0
 25 26  2  0  0  0
 26 27  1  0  0  0
 27 28  2  0  0  0
 28 29  1  0  0  0
 29 30  1  0  0  0
 30 31  2  0  0  0
  7  1  1  0  0  0
 31  8  1  0  0  0
 29  3  1  0  0  0
 14  9  1  0  0  0
 31 15  1  0  0  0
 21 16  1  0  0  0
 30 22  1  0  0  0
 28 23  1  0  0  0
 34 35  1  0  0  0
 18 32  1  0  0  0
M  END
> <minimizedAffinity>
71.97575

> <CNNscore>
0.2129410952

> <CNNaffinity>
6.1340818405

> <CNN_VS>
1.3061981201

> <CNNaffinity_variance>
0.3865490854

$$$$
[H]c1c([H])c([H])c2c(c1[H])c1c3c(c4c5c([H])c([H])c([H])c([H])c5n5c4c1n2[C@@]1(C([H])([H])[H])O[C@]5([H])C([H])([H])[C@]([H])(N([H])C([H])([H])[H])[C@]1([H])OC([H])([H])[H])C(=O)N([H])C3([H])[H]


 37 44  0  0  0  0  0  0  0  0999 V2000
   26.8853    8.8538   57.4098 C   0  0  0  0  0  0  0  0  0  0  0  0
   25.8595    9.9702   57.4164 C   0  0  0  0  0  0  0  0  0  0  0  0
   25.5956   10.5030   56.0364 C   0  0  0  0  0  0  0  0  0  0  0  0
   26.6026   10.5184   55.1669 O   0  0  0  0  0  0  0  0  0  0  0  0
   27.5079    9.4534   55.1180 C   0  0  0  0  0  0  0  0  0  0  0  0
   28.6313   10.0201   54.2688 C   0  0  0  0  0  0  0  0  0  0  0  0
   28.0108    9.2955   56.5374 C   0  0  0  0  0  0  0  0  0  0  0  0
   26.9022    8.2750   54.5427 N   0  0  0  0  0  0  0  0  0  0  0  0
   27.5849    7.2726   53.9370 C   0  0  0  0  0  0  0  0  0  0  0  0
   28.9099    7.0081   53.7635 C   0  0  0  0  0  0  0  0  0  0  0  0
   29.3775    5.8740   53.0954 C   0  0  0  0  0  0  0  0  0  0  0  0
   28.4974    4.9634   52.5782 C   0  0  0  0  0  0  0  0  0  0  0  0
   27.1629    5.2182   52.7477 C   0  0  0  0  0  0  0  0  0  0  0  0
   26.6906    6.3334   53.4049 C   0  0  0  0  0  0  0  0  0  0  0  0
   25.4317    6.7842   53.7056 C   0  0  0  0  0  0  0  0  0  0  0  0
   24.1801    6.2705   53.4373 C   0  0  0  0  0  0  0  0  0  0  0  0
   23.7674    5.0406   52.7174 C   0  0  0  0  0  0  0  0  0  0  0  0
   22.3434    5.0462   52.7579 N   0  0  0  0  0  0  0  0  0  0  0  0
   21.8689    6.2072   53.4660 C   0  0  0  0  0  0  0  0  0  0  0  0
   20.6600    6.4169   53.6260 O   0  0  0  0  0  0  0  0  0  0  0  0
   23.0394    6.9519   53.8778 C   0  0  0  0  0  0  0  0  0  0  0  0
   23.2172    8.1413   54.5837 C   0  0  0  0  0  0  0  0  0  0  0  0
   22.3486    9.0483   55.1871 C   0  0  0  0  0  0  0  0  0  0  0  0
   20.9996    9.1123   55.2797 C   0  0  0  0  0  0  0  0  0  0  0  0
   20.4182   10.1862   55.9773 C   0  0  0  0  0  0  0  0  0  0  0  0
   21.2034   11.1476   56.5512 C   0  0  0  0  0  0  0  0  0  0  0  0
   22.5756   11.1009   56.4685 C   0  0  0  0  0  0  0  0  0  0  0  0
   23.1350   10.0389   55.7792 C   0  0  0  0  0  0  0  0  0  0  0  0
   24.4235    9.7534   55.5487 N   0  0  0  0  0  0  0  0  0  0  0  0
   24.4913    8.6277   54.8344 C   0  0  0  0  0  0  0  0  0  0  0  0
   25.5823    7.9366   54.3839 C   0  0  0  0  0  0  0  0  0  0  0  0
   21.7490    4.3077   52.3310 H   0  0  0  0  0  0  0  0  0  0  0  0
   28.4682    8.0001   59.0638 C   0  0  0  0  0  0  0  0  0  0  0  0
   27.1636    8.3485   58.6758 N   0  0  0  0  0  0  0  0  0  0  0  0
   26.4762    7.6685   59.0642 H   0  0  0  0  0  0  0  0  0  0  0  0
   28.3770   10.5693   56.9410 O   0  0  0  0  0  0  0  0  0  0  0  0
   28.7881   10.7559   58.2169 C   0  0  0  0  0  0  0  0  0  0  0  0
 33 34  1  0  0  0
 34  1  1  0  0  0
  1  2  1  0  0  0
  2  3  1  0  0  0
  3  4  1  0  0  0
  4  5  1  0  0  0
  5  6  1  0  0  0
  5  7  1  0  0  0
  7 36  1  0  0  0
 36 37  1  0  0  0
  5  8  1  0  0  0
  8  9  1  0  0  0
  9 10  2  0  0  0
 10 11  1  0  0  0
 11 12  2  0  0  0
 12 13  1  0  0  0
 13 14  2  0  0  0
 14 15  1  0  0  0
 15 16  2  0  0  0
 16 17  1  0  0  0
 17 18  1  0  0  0
 18 19  1  0  0  0
 19 20  2  0  0  0
 19 21  1  0  0  0
 21 22  2  0  0  0
 22 23  1  0  0  0
 23 24  2  0  0  0
 24 25  1  0  0  0
 25 26  2  0  0  0
 26 27  1  0  0  0
 27 28  2  0  0  0
 28 29  1  0  0  0
 29 30  1  0  0  0
 30 31  2  0  0  0
  7  1  1  0  0  0
 31  8  1  0  0  0
 29  3  1  0  0  0
 14  9  1  0  0  0
 31 15  1  0  0  0
 21 16  1  0  0  0
 30 22  1  0  0  0
 28 23  1  0  0  0
 34 35  1  0  0  0
 18 32  1  0  0  0
M  END
> <minimizedAffinity>
78.84701

> <CNNscore>
0.2061259598

> <CNNaffinity>
5.8299641609

> <CNN_VS>
1.2017070055

> <CNNaffinity_variance>
0.4582876563

$$$$
[H]c1c([H])c([H])c2c(c1[H])c1c3c(c4c5c([H])c([H])c([H])c([H])c5n5c4c1n2[C@@]1(C([H])([H])[H])O[C@]5([H])C([H])([H])[C@]([H])(N([H])C([H])([H])[H])[C@]1([H])OC([H])([H])[H])C(=O)N([H])C3([H])[H]


 37 44  0  0  0  0  0  0  0  0999 V2000
   23.5408    5.4751   55.4932 C   0  0  0  0  0  0  0  0  0  0  0  0
   24.9996    5.7900   55.7601 C   0  0  0  0  0  0  0  0  0  0  0  0
   25.6386    6.5214   54.6136 C   0  0  0  0  0  0  0  0  0  0  0  0
   25.2248    6.2391   53.3810 O   0  0  0  0  0  0  0  0  0  0  0  0
   23.8677    6.0160   53.1268 C   0  0  0  0  0  0  0  0  0  0  0  0
   23.8921    5.4178   51.7318 C   0  0  0  0  0  0  0  0  0  0  0  0
   23.4535    4.9373   54.1053 C   0  0  0  0  0  0  0  0  0  0  0  0
   23.1102    7.2435   53.2035 N   0  0  0  0  0  0  0  0  0  0  0  0
   21.9275    7.4621   52.5778 C   0  0  0  0  0  0  0  0  0  0  0  0
   21.0980    6.6780   51.8344 C   0  0  0  0  0  0  0  0  0  0  0  0
   19.8974    7.1421   51.2918 C   0  0  0  0  0  0  0  0  0  0  0  0
   19.5008    8.4355   51.4941 C   0  0  0  0  0  0  0  0  0  0  0  0
   20.3261    9.2326   52.2411 C   0  0  0  0  0  0  0  0  0  0  0  0
   21.5124    8.7854   52.7809 C   0  0  0  0  0  0  0  0  0  0  0  0
   22.4739    9.3778   53.5574 C   0  0  0  0  0  0  0  0  0  0  0  0
   22.5910   10.6549   54.0653 C   0  0  0  0  0  0  0  0  0  0  0  0
   21.7050   11.8379   53.9362 C   0  0  0  0  0  0  0  0  0  0  0  0
   22.3528   12.8699   54.6741 N   0  0  0  0  0  0  0  0  0  0  0  0
   23.5793   12.3786   55.2477 C   0  0  0  0  0  0  0  0  0  0  0  0
   24.3079   13.1057   55.9345 O   0  0  0  0  0  0  0  0  0  0  0  0
   23.7002   10.9926   54.8497 C   0  0  0  0  0  0  0  0  0  0  0  0
   24.6568   10.0074   55.0922 C   0  0  0  0  0  0  0  0  0  0  0  0
   25.8385    9.9658   55.8290 C   0  0  0  0  0  0  0  0  0  0  0  0
   26.5029   10.8909   56.5607 C   0  0  0  0  0  0  0  0  0  0  0  0
   27.7004   10.5191   57.1976 C   0  0  0  0  0  0  0  0  0  0  0  0
   28.1834    9.2452   57.0788 C   0  0  0  0  0  0  0  0  0  0  0  0
   27.5236    8.2906   56.3401 C   0  0  0  0  0  0  0  0  0  0  0  0
   26.3464    8.6696   55.7185 C   0  0  0  0  0  0  0  0  0  0  0  0
   25.5165    7.9517   54.9497 N   0  0  0  0  0  0  0  0  0  0  0  0
   24.5057    8.7340   54.5645 C   0  0  0  0  0  0  0  0  0  0  0  0
   23.4108    8.4425   53.7984 C   0  0  0  0  0  0  0  0  0  0  0  0
   21.9775   13.8345   54.7728 H   0  0  0  0  0  0  0  0  0  0  0  0
   21.8314    5.3212   57.2324 C   0  0  0  0  0  0  0  0  0  0  0  0
   22.9235    4.7836   56.5308 N   0  0  0  0  0  0  0  0  0  0  0  0
   23.5523    4.2659   57.1805 H   0  0  0  0  0  0  0  0  0  0  0  0
   24.4100    3.9427   53.9818 O   0  0  0  0  0  0  0  0  0  0  0  0
   24.4874    3.2534   52.8196 C   0  0  0  0  0  0  0  0  0  0  0  0
 33 34  1  0  0  0
 34  1  1  0  0  0
  1  2  1  0  0  0
  2  3  1  0  0  0
  3  4  1  0  0  0
  4  5  1  0  0  0
  5  6  1  0  0  0
  5  7  1  0  0  0
  7 36  1  0  0  0
 36 37  1  0  0  0
  5  8  1  0  0  0
  8  9  1  0  0  0
  9 10  2  0  0  0
 10 11  1  0  0  0
 11 12  2  0  0  0
 12 13  1  0  0  0
 13 14  2  0  0  0
 14 15  1  0  0  0
 15 16  2  0  0  0
 16 17  1  0  0  0
 17 18  1  0  0  0
 18 19  1  0  0  0
 19 20  2  0  0  0
 19 21  1  0  0  0
 21 22  2  0  0  0
 22 23  1  0  0  0
 23 24  2  0  0  0
 24 25  1  0  0  0
 25 26  2  0  0  0
 26 27  1  0  0  0
 27 28  2  0  0  0
 28 29  1  0  0  0
 29 30  1  0  0  0
 30 31  2  0  0  0
  7  1  1  0  0  0
 31  8  1  0  0  0
 29  3  1  0  0  0
 14  9  1  0  0  0
 31 15  1  0  0  0
 21 16  1  0  0  0
 30 22  1  0  0  0
 28 23  1  0  0  0
 34 35  1  0  0  0
 18 32  1  0  0  0
M  END
> <minimizedAffinity>
84.33033

> <CNNscore>
0.1989923716

> <CNNaffinity>
5.4307627678

> <CNN_VS>
1.0806803703

> <CNNaffinity_variance>
1.1568338871

$$$$
[H]c1c([H])c([H])c2c(c1[H])c1c3c(c4c5c([H])c([H])c([H])c([H])c5n5c4c1n2[C@@]1(C([H])([H])[H])O[C@]5([H])C([H])([H])[C@]([H])(N([H])C([H])([H])[H])[C@]1([H])OC([H])([H])[H])C(=O)N([H])C3([H])[H]


 37 44  0  0  0  0  0  0  0  0999 V2000
   27.1918    8.3926   53.0467 C   0  0  0  0  0  0  0  0  0  0  0  0
   26.5855    7.0033   53.0756 C   0  0  0  0  0  0  0  0  0  0  0  0
   26.0940    6.6299   54.4455 C   0  0  0  0  0  0  0  0  0  0  0  0
   26.7587    7.0971   55.4993 O   0  0  0  0  0  0  0  0  0  0  0  0
   27.2580    8.4036   55.4951 C   0  0  0  0  0  0  0  0  0  0  0  0
   28.1952    8.3974   56.6891 C   0  0  0  0  0  0  0  0  0  0  0  0
   28.0879    8.5065   54.2328 C   0  0  0  0  0  0  0  0  0  0  0  0
   26.1938    9.3729   55.6154 N   0  0  0  0  0  0  0  0  0  0  0  0
   26.3446   10.6297   56.1008 C   0  0  0  0  0  0  0  0  0  0  0  0
   27.4224   11.3594   56.5030 C   0  0  0  0  0  0  0  0  0  0  0  0
   27.3206   12.6732   56.9664 C   0  0  0  0  0  0  0  0  0  0  0  0
   26.1020   13.2908   57.0339 C   0  0  0  0  0  0  0  0  0  0  0  0
   25.0116   12.5675   56.6309 C   0  0  0  0  0  0  0  0  0  0  0  0
   25.1003   11.2712   56.1721 C   0  0  0  0  0  0  0  0  0  0  0  0
   24.1746   10.3725   55.7100 C   0  0  0  0  0  0  0  0  0  0  0  0
   22.8067   10.4561   55.5535 C   0  0  0  0  0  0  0  0  0  0  0  0
   21.8607   11.5621   55.8419 C   0  0  0  0  0  0  0  0  0  0  0  0
   20.5783   11.0582   55.4801 N   0  0  0  0  0  0  0  0  0  0  0  0
   20.6933    9.7109   54.9839 C   0  0  0  0  0  0  0  0  0  0  0  0
   19.7013    9.0742   54.6076 O   0  0  0  0  0  0  0  0  0  0  0  0
   22.0969    9.3633   55.0421 C   0  0  0  0  0  0  0  0  0  0  0  0
   22.8133    8.2159   54.7036 C   0  0  0  0  0  0  0  0  0  0  0  0
   22.4647    6.9835   54.1550 C   0  0  0  0  0  0  0  0  0  0  0  0
   21.2830    6.4434   53.7753 C   0  0  0  0  0  0  0  0  0  0  0  0
   21.2723    5.1415   53.2435 C   0  0  0  0  0  0  0  0  0  0  0  0
   22.4361    4.4353   53.1132 C   0  0  0  0  0  0  0  0  0  0  0  0
   23.6470    4.9658   53.4930 C   0  0  0  0  0  0  0  0  0  0  0  0
   23.6436    6.2479   54.0147 C   0  0  0  0  0  0  0  0  0  0  0  0
   24.6652    6.9931   54.4574 N   0  0  0  0  0  0  0  0  0  0  0  0
   24.1884    8.1680   54.8752 C   0  0  0  0  0  0  0  0  0  0  0  0
   24.8472    9.2540   55.3823 C   0  0  0  0  0  0  0  0  0  0  0  0
   19.6963   11.6015   55.5691 H   0  0  0  0  0  0  0  0  0  0  0  0
   28.2621   10.0175   51.5684 C   0  0  0  0  0  0  0  0  0  0  0  0
   27.6710    8.7630   51.7940 N   0  0  0  0  0  0  0  0  0  0  0  0
   27.0905    8.4833   50.9753 H   0  0  0  0  0  0  0  0  0  0  0  0
   28.9112    7.3922   54.2429 O   0  0  0  0  0  0  0  0  0  0  0  0
   29.0326    6.6612   53.1104 C   0  0  0  0  0  0  0  0  0  0  0  0
 33 34  1  0  0  0
 34  1  1  0  0  0
  1  2  1  0  0  0
  2  3  1  0  0  0
  3  4  1  0  0  0
  4  5  1  0  0  0
  5  6  1  0  0  0
  5  7  1  0  0  0
  7 36  1  0  0  0
 36 37  1  0  0  0
  5  8  1  0  0  0
  8  9  1  0  0  0
  9 10  2  0  0  0
 10 11  1  0  0  0
 11 12  2  0  0  0
 12 13  1  0  0  0
 13 14  2  0  0  0
 14 15  1  0  0  0
 15 16  2  0  0  0
 16 17  1  0  0  0
 17 18  1  0  0  0
 18 19  1  0  0  0
 19 20  2  0  0  0
 19 21  1  0  0  0
 21 22  2  0  0  0
 22 23  1  0  0  0
 23 24  2  0  0  0
 24 25  1  0  0  0
 25 26  2  0  0  0
 26 27  1  0  0  0
 27 28  2  0  0  0
 28 29  1  0  0  0
 29 30  1  0  0  0
 30 31  2  0  0  0
  7  1  1  0  0  0
 31  8  1  0  0  0
 29  3  1  0  0  0
 14  9  1  0  0  0
 31 15  1  0  0  0
 21 16  1  0  0  0
 30 22  1  0  0  0
 28 23  1  0  0  0
 34 35  1  0  0  0
 18 32  1  0  0  0
M  END
> <minimizedAffinity>
83.90450

> <CNNscore>
0.1963936985

> <CNNaffinity>
5.8815078735

> <CNN_VS>
1.1550910473

> <CNNaffinity_variance>
0.5672052503

$$$$
[H]c1c([H])c([H])c2c(c1[H])c1c3c(c4c5c([H])c([H])c([H])c([H])c5n5c4c1n2[C@@]1(C([H])([H])[H])O[C@]5([H])C([H])([H])[C@]([H])(N([H])C([H])([H])[H])[C@]1([H])OC([H])([H])[H])C(=O)N([H])C3([H])[H]


 37 44  0  0  0  0  0  0  0  0999 V2000
   21.6515    8.8990   55.7001 C   0  0  0  0  0  0  0  0  0  0  0  0
   20.3021    8.4957   55.1388 C   0  0  0  0  0  0  0  0  0  0  0  0
   20.3545    8.2611   53.6555 C   0  0  0  0  0  0  0  0  0  0  0  0
   21.1909    9.0016   52.9327 O   0  0  0  0  0  0  0  0  0  0  0  0
   22.4615    9.3147   53.4263 C   0  0  0  0  0  0  0  0  0  0  0  0
   22.9197   10.4062   52.4761 C   0  0  0  0  0  0  0  0  0  0  0  0
   22.2168    9.9328   54.7867 C   0  0  0  0  0  0  0  0  0  0  0  0
   23.3271    8.1583   53.4200 N   0  0  0  0  0  0  0  0  0  0  0  0
   24.6813    8.2069   53.3782 C   0  0  0  0  0  0  0  0  0  0  0  0
   25.5874    9.2232   53.4189 C   0  0  0  0  0  0  0  0  0  0  0  0
   26.9676    9.0133   53.3699 C   0  0  0  0  0  0  0  0  0  0  0  0
   27.4719    7.7452   53.2775 C   0  0  0  0  0  0  0  0  0  0  0  0
   26.5704    6.7156   53.2372 C   0  0  0  0  0  0  0  0  0  0  0  0
   25.2072    6.9109   53.2849 C   0  0  0  0  0  0  0  0  0  0  0  0
   24.1347    6.0577   53.2757 C   0  0  0  0  0  0  0  0  0  0  0  0
   24.0510    4.6829   53.2024 C   0  0  0  0  0  0  0  0  0  0  0  0
   25.1095    3.6481   53.1020 C   0  0  0  0  0  0  0  0  0  0  0  0
   24.4125    2.4065   53.0560 N   0  0  0  0  0  0  0  0  0  0  0  0
   22.9912    2.6292   53.1279 C   0  0  0  0  0  0  0  0  0  0  0  0
   22.1881    1.6882   53.1067 O   0  0  0  0  0  0  0  0  0  0  0  0
   22.7973    4.0604   53.2186 C   0  0  0  0  0  0  0  0  0  0  0  0
   21.6647    4.8684   53.3119 C   0  0  0  0  0  0  0  0  0  0  0  0
   20.2968    4.6136   53.3849 C   0  0  0  0  0  0  0  0  0  0  0  0
   19.5681    3.4730   53.3626 C   0  0  0  0  0  0  0  0  0  0  0  0
   18.1678    3.5612   53.4590 C   0  0  0  0  0  0  0  0  0  0  0  0
   17.5551    4.7785   53.5731 C   0  0  0  0  0  0  0  0  0  0  0  0
   18.2773    5.9489   53.5976 C   0  0  0  0  0  0  0  0  0  0  0  0
   19.6544    5.8481   53.5020 C   0  0  0  0  0  0  0  0  0  0  0  0
   20.5838    6.8131   53.4996 N   0  0  0  0  0  0  0  0  0  0  0  0
   21.7875    6.2478   53.3834 C   0  0  0  0  0  0  0  0  0  0  0  0
   23.0294    6.8205   53.3600 C   0  0  0  0  0  0  0  0  0  0  0  0
   24.8813    1.4816   52.9811 H   0  0  0  0  0  0  0  0  0  0  0  0
   22.7686    9.6012   57.7566 C   0  0  0  0  0  0  0  0  0  0  0  0
   21.6332    9.1386   57.0705 N   0  0  0  0  0  0  0  0  0  0  0  0
   21.1128    8.4498   57.6539 H   0  0  0  0  0  0  0  0  0  0  0  0
   21.2373   10.8914   54.5835 O   0  0  0  0  0  0  0  0  0  0  0  0
   21.4044   11.7934   53.5884 C   0  0  0  0  0  0  0  0  0  0  0  0
 33 34  1  0  0  0
 34  1  1  0  0  0
  1  2  1  0  0  0
  2  3  1  0  0  0
  3  4  1  0  0  0
  4  5  1  0  0  0
  5  6  1  0  0  0
  5  7  1  0  0  0
  7 36  1  0  0  0
 36 37  1  0  0  0
  5  8  1  0  0  0
  8  9  1  0  0  0
  9 10  2  0  0  0
 10 11  1  0  0  0
 11 12  2  0  0  0
 12 13  1  0  0  0
 13 14  2  0  0  0
 14 15  1  0  0  0
 15 16  2  0  0  0
 16 17  1  0  0  0
 17 18  1  0  0  0
 18 19  1  0  0  0
 19 20  2  0  0  0
 19 21  1  0  0  0
 21 22  2  0  0  0
 22 23  1  0  0  0
 23 24  2  0  0  0
 24 25  1  0  0  0
 25 26  2  0  0  0
 26 27  1  0  0  0
 27 28  2  0  0  0
 28 29  1  0  0  0
 29 30  1  0  0  0
 30 31  2  0  0  0
  7  1  1  0  0  0
 31  8  1  0  0  0
 29  3  1  0  0  0
 14  9  1  0  0  0
 31 15  1  0  0  0
 21 16  1  0  0  0
 30 22  1  0  0  0
 28 23  1  0  0  0
 34 35  1  0  0  0
 18 32  1  0  0  0
M  END
> <minimizedAffinity>
83.07900

> <CNNscore>
0.1843734235

> <CNNaffinity>
5.7986006737

> <CNN_VS>
1.0691078901

> <CNNaffinity_variance>
0.3392225206

$$$$
[H]c1c([H])c([H])c2c(c1[H])c1c3c(c4c5c([H])c([H])c([H])c([H])c5n5c4c1n2[C@@]1(C([H])([H])[H])O[C@]5([H])C([H])([H])[C@]([H])(N([H])C([H])([H])[H])[C@]1([H])OC([H])([H])[H])C(=O)N([H])C3([H])[H]


 37 44  0  0  0  0  0  0  0  0999 V2000
   22.5710    9.2711   55.2739 C   0  0  0  0  0  0  0  0  0  0  0  0
   23.1525   10.3848   54.4252 C   0  0  0  0  0  0  0  0  0  0  0  0
   23.4865    9.9207   53.0357 C   0  0  0  0  0  0  0  0  0  0  0  0
   23.8996    8.6660   52.8759 O   0  0  0  0  0  0  0  0  0  0  0  0
   23.3130    7.6316   53.6123 C   0  0  0  0  0  0  0  0  0  0  0  0
   24.2757    6.4810   53.3807 C   0  0  0  0  0  0  0  0  0  0  0  0
   23.4206    8.0649   55.0591 C   0  0  0  0  0  0  0  0  0  0  0  0
   21.9737    7.3514   53.1494 N   0  0  0  0  0  0  0  0  0  0  0  0
   21.3348    6.1658   53.3044 C   0  0  0  0  0  0  0  0  0  0  0  0
   21.6471    5.0063   53.9476 C   0  0  0  0  0  0  0  0  0  0  0  0
   20.7966    3.8985   53.9734 C   0  0  0  0  0  0  0  0  0  0  0  0
   19.5865    3.9402   53.3370 C   0  0  0  0  0  0  0  0  0  0  0  0
   19.2612    5.1011   52.6883 C   0  0  0  0  0  0  0  0  0  0  0  0
   20.0923    6.1998   52.6563 C   0  0  0  0  0  0  0  0  0  0  0  0
   19.9803    7.4470   52.0994 C   0  0  0  0  0  0  0  0  0  0  0  0
   18.9807    8.0376   51.3547 C   0  0  0  0  0  0  0  0  0  0  0  0
   17.6719    7.5126   50.8937 C   0  0  0  0  0  0  0  0  0  0  0  0
   17.0794    8.5816   50.1619 N   0  0  0  0  0  0  0  0  0  0  0  0
   17.9525    9.7272   50.1570 C   0  0  0  0  0  0  0  0  0  0  0  0
   17.6389   10.7759   49.5801 O   0  0  0  0  0  0  0  0  0  0  0  0
   19.1314    9.3564   50.9099 C   0  0  0  0  0  0  0  0  0  0  0  0
   20.3044   10.0319   51.2449 C   0  0  0  0  0  0  0  0  0  0  0  0
   20.7785   11.3216   51.0145 C   0  0  0  0  0  0  0  0  0  0  0  0
   20.2720   12.3857   50.3485 C   0  0  0  0  0  0  0  0  0  0  0  0
   21.0209   13.5752   50.3017 C   0  0  0  0  0  0  0  0  0  0  0  0
   22.2389   13.6535   50.9187 C   0  0  0  0  0  0  0  0  0  0  0  0
   22.7711   12.5838   51.6004 C   0  0  0  0  0  0  0  0  0  0  0  0
   22.0240   11.4193   51.6388 C   0  0  0  0  0  0  0  0  0  0  0  0
   22.3003   10.2455   52.2226 N   0  0  0  0  0  0  0  0  0  0  0  0
   21.2881    9.4054   51.9950 C   0  0  0  0  0  0  0  0  0  0  0  0
   21.1075    8.1141   52.4079 C   0  0  0  0  0  0  0  0  0  0  0  0
   16.1479    8.5235   49.7037 H   0  0  0  0  0  0  0  0  0  0  0  0
   21.2227   10.5666   56.8468 C   0  0  0  0  0  0  0  0  0  0  0  0
   22.2649    9.6652   56.5726 N   0  0  0  0  0  0  0  0  0  0  0  0
   23.0736    9.8429   57.2051 H   0  0  0  0  0  0  0  0  0  0  0  0
   24.7410    8.4481   55.2303 O   0  0  0  0  0  0  0  0  0  0  0  0
   25.7125    7.7298   54.6204 C   0  0  0  0  0  0  0  0  0  0  0  0
 33 34  1  0  0  0
 34  1  1  0  0  0
  1  2  1  0  0  0
  2  3  1  0  0  0
  3  4  1  0  0  0
  4  5  1  0  0  0
  5  6  1  0  0  0
  5  7  1  0  0  0
  7 36  1  0  0  0
 36 37  1  0  0  0
  5  8  1  0  0  0
  8  9  1  0  0  0
  9 10  2  0  0  0
 10 11  1  0  0  0
 11 12  2  0  0  0
 12 13  1  0  0  0
 13 14  2  0  0  0
 14 15  1  0  0  0
 15 16  2  0  0  0
 16 17  1  0  0  0
 17 18  1  0  0  0
 18 19  1  0  0  0
 19 20  2  0  0  0
 19 21  1  0  0  0
 21 22  2  0  0  0
 22 23  1  0  0  0
 23 24  2  0  0  0
 24 25  1  0  0  0
 25 26  2  0  0  0
 26 27  1  0  0  0
 27 28  2  0  0  0
 28 29  1  0  0  0
 29 30  1  0  0  0
 30 31  2  0  0  0
  7  1  1  0  0  0
 31  8  1  0  0  0
 29  3  1  0  0  0
 14  9  1  0  0  0
 31 15  1  0  0  0
 21 16  1  0  0  0
 30 22  1  0  0  0
 28 23  1  0  0  0
 34 35  1  0  0  0
 18 32  1  0  0  0
M  END
> <minimizedAffinity>
85.64034

> <CNNscore>
0.1407697648

> <CNNaffinity>
5.8052306175

> <CNN_VS>
0.8172009587

> <CNNaffinity_variance>
0.9810919762

$$$$
[H]c1c([H])c([H])c2c(c1[H])c1c3c(c4c5c([H])c([H])c([H])c([H])c5n5c4c1n2[C@@]1(C([H])([H])[H])O[C@]5([H])C([H])([H])[C@]([H])(N([H])C([H])([H])[H])[C@]1([H])OC([H])([H])[H])C(=O)N([H])C3([H])[H]


 37 44  0  0  0  0  0  0  0  0999 V2000
   26.1446    8.3198   52.8282 C   0  0  0  0  0  0  0  0  0  0  0  0
   26.6226    6.9077   53.1044 C   0  0  0  0  0  0  0  0  0  0  0  0
   26.0740    6.3679   54.3949 C   0  0  0  0  0  0  0  0  0  0  0  0
   25.8754    7.2201   55.3972 O   0  0  0  0  0  0  0  0  0  0  0  0
   25.3697    8.4995   55.1448 C   0  0  0  0  0  0  0  0  0  0  0  0
   25.6184    9.2131   56.4614 C   0  0  0  0  0  0  0  0  0  0  0  0
   26.2897    9.0895   54.0969 C   0  0  0  0  0  0  0  0  0  0  0  0
   23.9723    8.4500   54.7826 N   0  0  0  0  0  0  0  0  0  0  0  0
   23.0980    9.4750   54.9339 C   0  0  0  0  0  0  0  0  0  0  0  0
   23.2278   10.7701   55.3361 C   0  0  0  0  0  0  0  0  0  0  0  0
   22.1510   11.6576   55.4003 C   0  0  0  0  0  0  0  0  0  0  0  0
   20.8939   11.2468   55.0510 C   0  0  0  0  0  0  0  0  0  0  0  0
   20.7516    9.9474   54.6438 C   0  0  0  0  0  0  0  0  0  0  0  0
   21.8066    9.0634   54.5768 C   0  0  0  0  0  0  0  0  0  0  0  0
   21.9105    7.7515   54.1942 C   0  0  0  0  0  0  0  0  0  0  0  0
   20.9723    6.8447   53.7467 C   0  0  0  0  0  0  0  0  0  0  0  0
   19.5112    6.9837   53.5302 C   0  0  0  0  0  0  0  0  0  0  0  0
   19.0814    5.7081   53.0640 N   0  0  0  0  0  0  0  0  0  0  0  0
   20.1999    4.8044   52.9807 C   0  0  0  0  0  0  0  0  0  0  0  0
   20.0597    3.6369   52.5954 O   0  0  0  0  0  0  0  0  0  0  0  0
   21.3664    5.5434   53.4135 C   0  0  0  0  0  0  0  0  0  0  0  0
   22.7140    5.2113   53.5474 C   0  0  0  0  0  0  0  0  0  0  0  0
   23.4582    4.0619   53.2898 C   0  0  0  0  0  0  0  0  0  0  0  0
   23.1266    2.8301   52.8369 C   0  0  0  0  0  0  0  0  0  0  0  0
   24.1415    1.8687   52.6824 C   0  0  0  0  0  0  0  0  0  0  0  0
   25.4395    2.1748   52.9850 C   0  0  0  0  0  0  0  0  0  0  0  0
   25.7972    3.4203   53.4465 C   0  0  0  0  0  0  0  0  0  0  0  0
   24.7889    4.3571   53.5940 C   0  0  0  0  0  0  0  0  0  0  0  0
   24.8567    5.6259   54.0187 N   0  0  0  0  0  0  0  0  0  0  0  0
   23.6289    6.1494   54.0009 C   0  0  0  0  0  0  0  0  0  0  0  0
   23.2058    7.4100   54.3216 C   0  0  0  0  0  0  0  0  0  0  0  0
   18.0956    5.4814   52.8234 H   0  0  0  0  0  0  0  0  0  0  0  0
   27.9047    9.4801   51.5929 C   0  0  0  0  0  0  0  0  0  0  0  0
   26.6477    8.8548   51.6465 N   0  0  0  0  0  0  0  0  0  0  0  0
   25.9666    9.3577   51.0393 H   0  0  0  0  0  0  0  0  0  0  0  0
   27.5732    8.8738   54.5718 O   0  0  0  0  0  0  0  0  0  0  0  0
   27.9418    9.4508   55.7393 C   0  0  0  0  0  0  0  0  0  0  0  0
 33 34  1  0  0  0
 34  1  1  0  0  0
  1  2  1  0  0  0
  2  3  1  0  0  0
  3  4  1  0  0  0
  4  5  1  0  0  0
  5  6  1  0  0  0
  5  7  1  0  0  0
  7 36  1  0  0  0
 36 37  1  0  0  0
  5  8  1  0  0  0
  8  9  1  0  0  0
  9 10  2  0  0  0
 10 11  1  0  0  0
 11 12  2  0  0  0
 12 13  1  0  0  0
 13 14  2  0  0  0
 14 15  1  0  0  0
 15 16  2  0  0  0
 16 17  1  0  0  0
 17 18  1  0  0  0
 18 19  1  0  0  0
 19 20  2  0  0  0
 19 21  1  0  0  0
 21 22  2  0  0  0
 22 23  1  0  0  0
 23 24  2  0  0  0
 24 25  1  0  0  0
 25 26  2  0  0  0
 26 27  1  0  0  0
 27 28  2  0  0  0
 28 29  1  0  0  0
 29 30  1  0  0  0
 30 31  2  0  0  0
  7  1  1  0  0  0
 31  8  1  0  0  0
 29  3  1  0  0  0
 14  9  1  0  0  0
 31 15  1  0  0  0
 21 16  1  0  0  0
 30 22  1  0  0  0
 28 23  1  0  0  0
 34 35  1  0  0  0
 18 32  1  0  0  0
M  END
> <minimizedAffinity>
82.79390

> <CNNscore>
0.1066833436

> <CNNaffinity>
6.0301780701

> <CNN_VS>
0.6433195472

> <CNNaffinity_variance>
0.9505432844

$$$$
[H]c1c([H])c([H])c2c(c1[H])c1c3c(c4c5c([H])c([H])c([H])c([H])c5n5c4c1n2[C@@]1(C([H])([H])[H])O[C@]5([H])C([H])([H])[C@]([H])(N([H])C([H])([H])[H])[C@]1([H])OC([H])([H])[H])C(=O)N([H])C3([H])[H]


 37 44  0  0  0  0  0  0  0  0999 V2000
   21.1441    9.4274   53.7358 C   0  0  0  0  0  0  0  0  0  0  0  0
   20.0306    8.5077   53.2744 C   0  0  0  0  0  0  0  0  0  0  0  0
   20.5537    7.3333   52.4967 C   0  0  0  0  0  0  0  0  0  0  0  0
   21.6359    7.5117   51.7434 O   0  0  0  0  0  0  0  0  0  0  0  0
   22.6910    8.3068   52.2025 C   0  0  0  0  0  0  0  0  0  0  0  0
   23.5193    8.5053   50.9461 C   0  0  0  0  0  0  0  0  0  0  0  0
   22.0567    9.6305   52.5744 C   0  0  0  0  0  0  0  0  0  0  0  0
   23.4196    7.6513   53.2636 N   0  0  0  0  0  0  0  0  0  0  0  0
   24.7107    7.9083   53.5877 C   0  0  0  0  0  0  0  0  0  0  0  0
   25.6262    8.8182   53.1525 C   0  0  0  0  0  0  0  0  0  0  0  0
   26.9246    8.8935   53.6623 C   0  0  0  0  0  0  0  0  0  0  0  0
   27.3336    8.0333   54.6440 C   0  0  0  0  0  0  0  0  0  0  0  0
   26.4212    7.1152   55.0903 C   0  0  0  0  0  0  0  0  0  0  0  0
   25.1382    7.0319   54.5947 C   0  0  0  0  0  0  0  0  0  0  0  0
   24.0680    6.2273   54.8875 C   0  0  0  0  0  0  0  0  0  0  0  0
   23.9097    5.1960   55.7897 C   0  0  0  0  0  0  0  0  0  0  0  0
   24.8601    4.5970   56.7587 C   0  0  0  0  0  0  0  0  0  0  0  0
   24.1259    3.5641   57.4096 N   0  0  0  0  0  0  0  0  0  0  0  0
   22.7823    3.5059   56.8937 C   0  0  0  0  0  0  0  0  0  0  0  0
   21.9629    2.6814   57.3177 O   0  0  0  0  0  0  0  0  0  0  0  0
   22.6781    4.5371   55.8839 C   0  0  0  0  0  0  0  0  0  0  0  0
   21.6432    4.9583   55.0497 C   0  0  0  0  0  0  0  0  0  0  0  0
   20.3133    4.5754   54.8878 C   0  0  0  0  0  0  0  0  0  0  0  0
   19.5491    3.6238   55.4735 C   0  0  0  0  0  0  0  0  0  0  0  0
   18.2069    3.4919   55.0747 C   0  0  0  0  0  0  0  0  0  0  0  0
   17.6849    4.3112   54.1122 C   0  0  0  0  0  0  0  0  0  0  0  0
   18.4445    5.2841   53.5049 C   0  0  0  0  0  0  0  0  0  0  0  0
   19.7637    5.4034   53.9066 C   0  0  0  0  0  0  0  0  0  0  0  0
   20.7116    6.2519   53.4864 N   0  0  0  0  0  0  0  0  0  0  0  0
   21.8394    5.9987   54.1543 C   0  0  0  0  0  0  0  0  0  0  0  0
   23.0583    6.6155   54.0872 C   0  0  0  0  0  0  0  0  0  0  0  0
   24.5217    2.9503   58.1495 H   0  0  0  0  0  0  0  0  0  0  0  0
   21.0350   10.7415   55.7929 C   0  0  0  0  0  0  0  0  0  0  0  0
   20.6909   10.5343   54.4466 N   0  0  0  0  0  0  0  0  0  0  0  0
   19.7038   10.8211   54.2765 H   0  0  0  0  0  0  0  0  0  0  0  0
   21.2754    9.9820   51.4856 O   0  0  0  0  0  0  0  0  0  0  0  0
   21.2083   11.2847   51.1248 C   0  0  0  0  0  0  0  0  0  0  0  0
 33 34  1  0  0  0
 34  1  1  0  0  0
  1  2  1  0  0  0
  2  3  1  0  0  0
  3  4  1  0  0  0
  4  5  1  0  0  0
  5  6  1  0  0  0
  5  7  1  0  0  0
  7 36  1  0  0  0
 36 37  1  0  0  0
  5  8  1  0  0  0
  8  9  1  0  0  0
  9 10  2  0  0  0
 10 11  1  0  0  0
 11 12  2  0  0  0
 12 13  1  0  0  0
 13 14  2  0  0  0
 14 15  1  0  0  0
 15 16  2  0  0  0
 16 17  1  0  0  0
 17 18  1  0  0  0
 18 19  1  0  0  0
 19 20  2  0  0  0
 19 21  1  0  0  0
 21 22  2  0  0  0
 22 23  1  0  0  0
 23 24  2  0  0  0
 24 25  1  0  0  0
 25 26  2  0  0  0
 26 27  1  0  0  0
 27 28  2  0  0  0
 28 29  1  0  0  0
 29 30  1  0  0  0
 30 31  2  0  0  0
  7  1  1  0  0  0
 31  8  1  0  0  0
 29  3  1  0  0  0
 14  9  1  0  0  0
 31 15  1  0  0  0
 21 16  1  0  0  0
 30 22  1  0  0  0
 28 23  1  0  0  0
 34 35  1  0  0  0
 18 32  1  0  0  0
M  END
> <minimizedAffinity>
78.74661

> <CNNscore>
0.1065461785

> <CNNaffinity>
5.6720685959

> <CNN_VS>
0.6043372154

> <CNNaffinity_variance>
0.7818316817

$$$$
[H]c1c([H])c([H])c2c(c1[H])c1c3c(c4c5c([H])c([H])c([H])c([H])c5n5c4c1n2[C@@]1(C([H])([H])[H])O[C@]5([H])C([H])([H])[C@]([H])(N([H])C([H])([H])[H])[C@]1([H])OC([H])([H])[H])C(=O)N([H])C3([H])[H]


 37 44  0  0  0  0  0  0  0  0999 V2000
   25.5570    7.8401   54.0624 C   0  0  0  0  0  0  0  0  0  0  0  0
   25.6161    7.1143   55.3922 C   0  0  0  0  0  0  0  0  0  0  0  0
   24.4351    7.4354   56.2639 C   0  0  0  0  0  0  0  0  0  0  0  0
   23.9108    8.6558   56.1851 O   0  0  0  0  0  0  0  0  0  0  0  0
   23.7958    9.2948   54.9463 C   0  0  0  0  0  0  0  0  0  0  0  0
   23.4830   10.7254   55.3460 C   0  0  0  0  0  0  0  0  0  0  0  0
   25.1869    9.2555   54.3496 C   0  0  0  0  0  0  0  0  0  0  0  0
   22.7602    8.6930   54.1389 N   0  0  0  0  0  0  0  0  0  0  0  0
   22.0929    9.3243   53.1418 C   0  0  0  0  0  0  0  0  0  0  0  0
   22.2106   10.5509   52.5611 C   0  0  0  0  0  0  0  0  0  0  0  0
   21.3898   10.9783   51.5147 C   0  0  0  0  0  0  0  0  0  0  0  0
   20.4128   10.1576   51.0220 C   0  0  0  0  0  0  0  0  0  0  0  0
   20.2861    8.9216   51.5971 C   0  0  0  0  0  0  0  0  0  0  0  0
   21.0900    8.4896   52.6296 C   0  0  0  0  0  0  0  0  0  0  0  0
   21.1615    7.3188   53.3383 C   0  0  0  0  0  0  0  0  0  0  0  0
   20.4298    6.1517   53.2666 C   0  0  0  0  0  0  0  0  0  0  0  0
   19.2980    5.7657   52.3884 C   0  0  0  0  0  0  0  0  0  0  0  0
   18.9560    4.4405   52.7836 N   0  0  0  0  0  0  0  0  0  0  0  0
   19.8195    3.9987   53.8485 C   0  0  0  0  0  0  0  0  0  0  0  0
   19.7044    2.8727   54.3483 O   0  0  0  0  0  0  0  0  0  0  0  0
   20.7289    5.0892   54.1277 C   0  0  0  0  0  0  0  0  0  0  0  0
   21.7731    5.2553   55.0368 C   0  0  0  0  0  0  0  0  0  0  0  0
   22.3605    4.4344   55.9972 C   0  0  0  0  0  0  0  0  0  0  0  0
   22.1034    3.1727   56.4147 C   0  0  0  0  0  0  0  0  0  0  0  0
   22.9031    2.6186   57.4303 C   0  0  0  0  0  0  0  0  0  0  0  0
   23.9218    3.3431   57.9849 C   0  0  0  0  0  0  0  0  0  0  0  0
   24.1993    4.6265   57.5748 C   0  0  0  0  0  0  0  0  0  0  0  0
   23.4048    5.1599   56.5748 C   0  0  0  0  0  0  0  0  0  0  0  0
   23.4541    6.3677   55.9970 N   0  0  0  0  0  0  0  0  0  0  0  0
   22.4865    6.4435   55.0804 C   0  0  0  0  0  0  0  0  0  0  0  0
   22.1622    7.4615   54.2264 C   0  0  0  0  0  0  0  0  0  0  0  0
   18.1886    3.8873   52.3522 H   0  0  0  0  0  0  0  0  0  0  0  0
   27.3261    8.6000   52.5579 C   0  0  0  0  0  0  0  0  0  0  0  0
   26.6454    7.5756   53.2370 N   0  0  0  0  0  0  0  0  0  0  0  0
   26.5754    6.7269   52.6366 H   0  0  0  0  0  0  0  0  0  0  0  0
   26.0287    9.7125   55.3507 O   0  0  0  0  0  0  0  0  0  0  0  0
   27.2638    9.1703   55.4617 C   0  0  0  0  0  0  0  0  0  0  0  0
 33 34  1  0  0  0
 34  1  1  0  0  0
  1  2  1  0  0  0
  2  3  1  0  0  0
  3  4  1  0  0  0
  4  5  1  0  0  0
  5  6  1  0  0  0
  5  7  1  0  0  0
  7 36  1  0  0  0
 36 37  1  0  0  0
  5  8  1  0  0  0
  8  9  1  0  0  0
  9 10  2  0  0  0
 10 11  1  0  0  0
 11 12  2  0  0  0
 12 13  1  0  0  0
 13 14  2  0  0  0
 14 15  1  0  0  0
 15 16  2  0  0  0
 16 17  1  0  0  0
 17 18  1  0  0  0
 18 19  1  0  0  0
 19 20  2  0  0  0
 19 21  1  0  0  0
 21 22  2  0  0  0
 22 23  1  0  0  0
 23 24  2  0  0  0
 24 25  1  0  0  0
 25 26  2  0  0  0
 26 27  1  0  0  0
 27 28  2  0  0  0
 28 29  1  0  0  0
 29 30  1  0  0  0
 30 31  2  0  0  0
  7  1  1  0  0  0
 31  8  1  0  0  0
 29  3  1  0  0  0
 14  9  1  0  0  0
 31 15  1  0  0  0
 21 16  1  0  0  0
 30 22  1  0  0  0
 28 23  1  0  0  0
 34 35  1  0  0  0
 18 32  1  0  0  0
M  END
> <minimizedAffinity>
85.38256

> <CNNscore>
0.1033324748

> <CNNaffinity>
5.8244848251

> <CNN_VS>
0.6018584371

> <CNNaffinity_variance>
0.8287404180

$$$$
[H]C1=C2C([H])([H])C([H])([H])[C@]3([H])[C@]4([H])C([H])([H])C([H])([H])C(=O)[C@@]4(C([H])([H])[H])C([H])([H])C([H])([H])[C@]3([H])[C@@]2(C([H])([H])[H])C([H])([H])C([H])([H])C1=O


 21 24  0  0  0  0  0  0  0  0999 V2000
   26.5275    7.3724   56.3256 C   0  0  0  0  0  0  0  0  0  0  0  0
   26.3379    8.7117   55.6782 C   0  0  0  0  0  0  0  0  0  0  0  0
   25.1476    9.4650   56.1631 C   0  0  0  0  0  0  0  0  0  0  0  0
   24.0804    9.7442   55.1878 C   0  0  0  0  0  0  0  0  0  0  0  0
   23.8846    8.8374   54.0313 C   0  0  0  0  0  0  0  0  0  0  0  0
   25.1048    8.1130   53.5497 C   0  0  0  0  0  0  0  0  0  0  0  0
   24.9673    6.6107   53.6306 C   0  0  0  0  0  0  0  0  0  0  0  0
   23.8460    6.2204   52.6906 C   0  0  0  0  0  0  0  0  0  0  0  0
   22.6329    7.0836   52.9401 C   0  0  0  0  0  0  0  0  0  0  0  0
   21.6616    6.9488   52.0691 C   0  0  0  0  0  0  0  0  0  0  0  0
   20.4453    7.7384   52.2223 C   0  0  0  0  0  0  0  0  0  0  0  0
   19.6468    7.9643   51.3038 O   0  0  0  0  0  0  0  0  0  0  0  0
   20.1886    8.2829   53.5711 C   0  0  0  0  0  0  0  0  0  0  0  0
   21.4555    8.9329   54.0802 C   0  0  0  0  0  0  0  0  0  0  0  0
   22.6359    7.9852   54.1147 C   0  0  0  0  0  0  0  0  0  0  0  0
   22.5088    7.1867   55.3667 C   0  0  0  0  0  0  0  0  0  0  0  0
   26.3008    8.6875   54.1825 C   0  0  0  0  0  0  0  0  0  0  0  0
   27.6285    8.1432   53.8316 C   0  0  0  0  0  0  0  0  0  0  0  0
   28.5447    8.8429   54.8467 C   0  0  0  0  0  0  0  0  0  0  0  0
   27.6320    9.4346   55.8596 C   0  0  0  0  0  0  0  0  0  0  0  0
   27.8198   10.3040   56.6777 O   0  0  0  0  0  0  0  0  0  0  0  0
  2  1  1  0  0  0
  2  3  1  0  0  0
  3  4  1  0  0  0
  4  5  1  0  0  0
  5  6  1  0  0  0
  6  7  1  0  0  0
  7  8  1  0  0  0
  8  9  1  0  0  0
  9 10  2  0  0  0
 10 11  1  0  0  0
 11 12  2  0  0  0
 11 13  1  0  0  0
 13 14  1  0  0  0
 14 15  1  0  0  0
 15 16  1  0  0  0
  6 17  1  0  0  0
 17 18  1  0  0  0
 18 19  1  0  0  0
 19 20  1  0  0  0
 20 21  2  0  0  0
 17  2  1  0  0  0
 20  2  1  0  0  0
 15  5  1  0  0  0
 15  9  1  0  0  0
M  END
> <minimizedAffinity>
13.57391

> <CNNscore>
0.6599110365

> <CNNaffinity>
6.0632677078

> <CNN_VS>
4.0012173653

> <CNNaffinity_variance>
0.4593686163

$$$$
[H]C1=C2C([H])([H])C([H])([H])[C@]3([H])[C@]4([H])C([H])([H])C([H])([H])C(=O)[C@@]4(C([H])([H])[H])C([H])([H])C([H])([H])[C@]3([H])[C@@]2(C([H])([H])[H])C([H])([H])C([H])([H])C1=O


 21 24  0  0  0  0  0  0  0  0999 V2000
   21.4019    6.7939   54.6463 C   0  0  0  0  0  0  0  0  0  0  0  0
   21.8511    7.4579   53.3789 C   0  0  0  0  0  0  0  0  0  0  0  0
   22.9262    6.7274   52.6508 C   0  0  0  0  0  0  0  0  0  0  0  0
   24.2279    7.4017   52.5125 C   0  0  0  0  0  0  0  0  0  0  0  0
   24.6507    8.4001   53.5236 C   0  0  0  0  0  0  0  0  0  0  0  0
   23.5481    9.1373   54.2210 C   0  0  0  0  0  0  0  0  0  0  0  0
   23.5493    8.9204   55.7161 C   0  0  0  0  0  0  0  0  0  0  0  0
   24.8447    9.5005   56.2437 C   0  0  0  0  0  0  0  0  0  0  0  0
   26.0111    8.9980   55.4275 C   0  0  0  0  0  0  0  0  0  0  0  0
   27.1629    9.5690   55.6871 C   0  0  0  0  0  0  0  0  0  0  0  0
   28.3520    9.1533   54.9526 C   0  0  0  0  0  0  0  0  0  0  0  0
   29.3764    9.8404   54.8483 O   0  0  0  0  0  0  0  0  0  0  0  0
   28.2883    7.8251   54.3094 C   0  0  0  0  0  0  0  0  0  0  0  0
   26.9837    7.7158   53.5525 C   0  0  0  0  0  0  0  0  0  0  0  0
   25.7688    7.9307   54.4302 C   0  0  0  0  0  0  0  0  0  0  0  0
   25.5069    6.6382   55.1247 C   0  0  0  0  0  0  0  0  0  0  0  0
   22.2741    8.8849   53.5324 C   0  0  0  0  0  0  0  0  0  0  0  0
   21.0472    9.5372   54.0339 C   0  0  0  0  0  0  0  0  0  0  0  0
   19.9523    8.8515   53.2029 C   0  0  0  0  0  0  0  0  0  0  0  0
   20.6109    7.6757   52.5760 C   0  0  0  0  0  0  0  0  0  0  0  0
   20.2811    6.9982   51.6313 O   0  0  0  0  0  0  0  0  0  0  0  0
  2  1  1  0  0  0
  2  3  1  0  0  0
  3  4  1  0  0  0
  4  5  1  0  0  0
  5  6  1  0  0  0
  6  7  1  0  0  0
  7  8  1  0  0  0
  8  9  1  0  0  0
  9 10  2  0  0  0
 10 11  1  0  0  0
 11 12  2  0  0  0
 11 13  1  0  0  0
 13 14  1  0  0  0
 14 15  1  0  0  0
 15 16  1  0  0  0
  6 17  1  0  0  0
 17 18  1  0  0  0
 18 19  1  0  0  0
 19 20  1  0  0  0
 20 21  2  0  0  0
 17  2  1  0  0  0
 20  2  1  0  0  0
 15  5  1  0  0  0
 15  9  1  0  0  0
M  END
> <minimizedAffinity>
14.39462

> <CNNscore>
0.6428829432

> <CNNaffinity>
6.2192506790

> <CNN_VS>
3.9982502460

> <CNNaffinity_variance>
0.4939688146

$$$$
[H]C1=C2C([H])([H])C([H])([H])[C@]3([H])[C@]4([H])C([H])([H])C([H])([H])C(=O)[C@@]4(C([H])([H])[H])C([H])([H])C([H])([H])[C@]3([H])[C@@]2(C([H])([H])[H])C([H])([H])C([H])([H])C1=O


 21 24  0  0  0  0  0  0  0  0999 V2000
   21.5696    9.1347   52.4521 C   0  0  0  0  0  0  0  0  0  0  0  0
   21.4660    8.1998   53.6200 C   0  0  0  0  0  0  0  0  0  0  0  0
   21.4815    8.8733   54.9488 C   0  0  0  0  0  0  0  0  0  0  0  0
   22.6114    8.5757   55.8448 C   0  0  0  0  0  0  0  0  0  0  0  0
   23.9187    8.1741   55.2723 C   0  0  0  0  0  0  0  0  0  0  0  0
   23.8698    7.4759   53.9473 C   0  0  0  0  0  0  0  0  0  0  0  0
   24.6143    8.2191   52.8629 C   0  0  0  0  0  0  0  0  0  0  0  0
   26.0722    8.2484   53.2712 C   0  0  0  0  0  0  0  0  0  0  0  0
   26.2033    8.7115   54.7021 C   0  0  0  0  0  0  0  0  0  0  0  0
   27.4064    8.6114   55.2146 C   0  0  0  0  0  0  0  0  0  0  0  0
   27.6378    9.0335   56.5910 C   0  0  0  0  0  0  0  0  0  0  0  0
   28.5992    8.6617   57.2765 O   0  0  0  0  0  0  0  0  0  0  0  0
   26.6409    9.9611   57.1635 C   0  0  0  0  0  0  0  0  0  0  0  0
   25.2572    9.4261   56.8700 C   0  0  0  0  0  0  0  0  0  0  0  0
   24.9989    9.2283   55.3913 C   0  0  0  0  0  0  0  0  0  0  0  0
   24.6315   10.5624   54.8375 C   0  0  0  0  0  0  0  0  0  0  0  0
   22.4822    7.1016   53.6384 C   0  0  0  0  0  0  0  0  0  0  0  0
   22.1987    6.3732   52.3849 C   0  0  0  0  0  0  0  0  0  0  0  0
   20.6632    6.3806   52.3455 C   0  0  0  0  0  0  0  0  0  0  0  0
   20.2470    7.3744   53.3694 C   0  0  0  0  0  0  0  0  0  0  0  0
   19.1846    7.5402   53.9209 O   0  0  0  0  0  0  0  0  0  0  0  0
  2  1  1  0  0  0
  2  3  1  0  0  0
  3  4  1  0  0  0
  4  5  1  0  0  0
  5  6  1  0  0  0
  6  7  1  0  0  0
  7  8  1  0  0  0
  8  9  1  0  0  0
  9 10  2  0  0  0
 10 11  1  0  0  0
 11 12  2  0  0  0
 11 13  1  0  0  0
 13 14  1  0  0  0
 14 15  1  0  0  0
 15 16  1  0  0  0
  6 17  1  0  0  0
 17 18  1  0  0  0
 18 19  1  0  0  0
 19 20  1  0  0  0
 20 21  2  0  0  0
 17  2  1  0  0  0
 20  2  1  0  0  0
 15  5  1  0  0  0
 15  9  1  0  0  0
M  END
> <minimizedAffinity>
19.65895

> <CNNscore>
0.5979765654

> <CNNaffinity>
6.0890007019

> <CNN_VS>
3.6410796642

> <CNNaffinity_variance>
0.4159054756

$$$$
[H]C1=C2C([H])([H])C([H])([H])[C@]3([H])[C@]4([H])C([H])([H])C([H])([H])C(=O)[C@@]4(C([H])([H])[H])C([H])([H])C([H])([H])[C@]3([H])[C@@]2(C([H])([H])[H])C([H])([H])C([H])([H])C1=O


 21 24  0  0  0  0  0  0  0  0999 V2000
   26.3593    9.3246   53.1118 C   0  0  0  0  0  0  0  0  0  0  0  0
   26.1888    8.0924   53.9493 C   0  0  0  0  0  0  0  0  0  0  0  0
   25.7090    6.8998   53.1963 C   0  0  0  0  0  0  0  0  0  0  0  0
   24.3928    6.3520   53.5645 C   0  0  0  0  0  0  0  0  0  0  0  0
   23.3636    7.2422   54.1530 C   0  0  0  0  0  0  0  0  0  0  0  0
   23.8762    8.4190   54.9263 C   0  0  0  0  0  0  0  0  0  0  0  0
   23.4310    9.7419   54.3483 C   0  0  0  0  0  0  0  0  0  0  0  0
   21.9217    9.7863   54.4630 C   0  0  0  0  0  0  0  0  0  0  0  0
   21.3206    8.5101   53.9253 C   0  0  0  0  0  0  0  0  0  0  0  0
   20.0333    8.3678   54.1315 C   0  0  0  0  0  0  0  0  0  0  0  0
   19.3573    7.1690   53.6498 C   0  0  0  0  0  0  0  0  0  0  0  0
   18.2716    6.7644   54.0856 O   0  0  0  0  0  0  0  0  0  0  0  0
   20.0438    6.4218   52.5763 C   0  0  0  0  0  0  0  0  0  0  0  0
   21.4942    6.2406   52.9638 C   0  0  0  0  0  0  0  0  0  0  0  0
   22.2062    7.5507   53.2269 C   0  0  0  0  0  0  0  0  0  0  0  0
   22.6002    8.0993   51.8983 C   0  0  0  0  0  0  0  0  0  0  0  0
   25.3203    8.2669   55.1552 C   0  0  0  0  0  0  0  0  0  0  0  0
   26.0365    9.3036   55.9263 C   0  0  0  0  0  0  0  0  0  0  0  0
   27.5041    8.8892   55.7420 C   0  0  0  0  0  0  0  0  0  0  0  0
   27.4968    7.8906   54.6411 C   0  0  0  0  0  0  0  0  0  0  0  0
   28.3217    7.0694   54.3163 O   0  0  0  0  0  0  0  0  0  0  0  0
  2  1  1  0  0  0
  2  3  1  0  0  0
  3  4  1  0  0  0
  4  5  1  0  0  0
  5  6  1  0  0  0
  6  7  1  0  0  0
  7  8  1  0  0  0
  8  9  1  0  0  0
  9 10  2  0  0  0
 10 11  1  0  0  0
 11 12  2  0  0  0
 11 13  1  0  0  0
 13 14  1  0  0  0
 14 15  1  0  0  0
 15 16  1  0  0  0
  6 17  1  0  0  0
 17 18  1  0  0  0
 18 19  1  0  0  0
 19 20  1  0  0  0
 20 21  2  0  0  0
 17  2  1  0  0  0
 20  2  1  0  0  0
 15  5  1  0  0  0
 15  9  1  0  0  0
M  END
> <minimizedAffinity>
18.22622

> <CNNscore>
0.5711273551

> <CNNaffinity>
6.0760312080

> <CNN_VS>
3.4701876640

> <CNNaffinity_variance>
0.4024941325

$$$$
[H]C1=C2C([H])([H])C([H])([H])[C@]3([H])[C@]4([H])C([H])([H])C([H])([H])C(=O)[C@@]4(C([H])([H])[H])C([H])([H])C([H])([H])[C@]3([H])[C@@]2(C([H])([H])[H])C([H])([H])C([H])([H])C1=O


 21 24  0  0  0  0  0  0  0  0999 V2000
   21.4322    9.3872   52.9753 C   0  0  0  0  0  0  0  0  0  0  0  0
   21.6533    9.0935   54.4291 C   0  0  0  0  0  0  0  0  0  0  0  0
   22.5547   10.0576   55.1201 C   0  0  0  0  0  0  0  0  0  0  0  0
   23.8242    9.5347   55.6521 C   0  0  0  0  0  0  0  0  0  0  0  0
   24.4535    8.3493   55.0222 C   0  0  0  0  0  0  0  0  0  0  0  0
   23.5196    7.3843   54.3572 C   0  0  0  0  0  0  0  0  0  0  0  0
   23.7946    7.2220   52.8806 C   0  0  0  0  0  0  0  0  0  0  0  0
   25.1800    6.6239   52.7544 C   0  0  0  0  0  0  0  0  0  0  0  0
   26.1603    7.3964   53.6038 C   0  0  0  0  0  0  0  0  0  0  0  0
   27.3544    6.8634   53.7049 C   0  0  0  0  0  0  0  0  0  0  0  0
   28.3744    7.5334   54.5029 C   0  0  0  0  0  0  0  0  0  0  0  0
   29.3782    6.9695   54.9576 O   0  0  0  0  0  0  0  0  0  0  0  0
   28.1581    8.9717   54.7608 C   0  0  0  0  0  0  0  0  0  0  0  0
   26.7328    9.1714   55.2247 C   0  0  0  0  0  0  0  0  0  0  0  0
   25.7091    8.6579   54.2343 C   0  0  0  0  0  0  0  0  0  0  0  0
   25.5491    9.7147   53.1956 C   0  0  0  0  0  0  0  0  0  0  0  0
   22.1334    7.7074   54.7247 C   0  0  0  0  0  0  0  0  0  0  0  0
   21.0386    6.8642   54.2025 C   0  0  0  0  0  0  0  0  0  0  0  0
   19.7908    7.6542   54.6248 C   0  0  0  0  0  0  0  0  0  0  0  0
   20.2909    8.9933   55.0323 C   0  0  0  0  0  0  0  0  0  0  0  0
   19.7733    9.8589   55.6980 O   0  0  0  0  0  0  0  0  0  0  0  0
  2  1  1  0  0  0
  2  3  1  0  0  0
  3  4  1  0  0  0
  4  5  1  0  0  0
  5  6  1  0  0  0
  6  7  1  0  0  0
  7  8  1  0  0  0
  8  9  1  0  0  0
  9 10  2  0  0  0
 10 11  1  0  0  0
 11 12  2  0  0  0
 11 13  1  0  0  0
 13 14  1  0  0  0
 14 15  1  0  0  0
 15 16  1  0  0  0
  6 17  1  0  0  0
 17 18  1  0  0  0
 18 19  1  0  0  0
 19 20  1  0  0  0
 20 21  2  0  0  0
 17  2  1  0  0  0
 20  2  1  0  0  0
 15  5  1  0  0  0
 15  9  1  0  0  0
M  END
> <minimizedAffinity>
28.90395

> <CNNscore>
0.5572308898

> <CNNaffinity>
5.9036512375

> <CNN_VS>
3.2896969318

> <CNNaffinity_variance>
0.3837242424

$$$$
[H]C1=C2C([H])([H])C([H])([H])[C@]3([H])[C@]4([H])C([H])([H])C([H])([H])C(=O)[C@@]4(C([H])([H])[H])C([H])([H])C([H])([H])[C@]3([H])[C@@]2(C([H])([H])[H])C([H])([H])C([H])([H])C1=O


 21 24  0  0  0  0  0  0  0  0999 V2000
   21.3538    5.5976   54.3882 C   0  0  0  0  0  0  0  0  0  0  0  0
   22.6528    6.2911   54.6715 C   0  0  0  0  0  0  0  0  0  0  0  0
   22.5456    7.4295   55.6265 C   0  0  0  0  0  0  0  0  0  0  0  0
   22.8694    8.7725   55.1172 C   0  0  0  0  0  0  0  0  0  0  0  0
   22.6917    9.0760   53.6769 C   0  0  0  0  0  0  0  0  0  0  0  0
   22.8307    7.9161   52.7384 C   0  0  0  0  0  0  0  0  0  0  0  0
   21.5764    7.6533   51.9382 C   0  0  0  0  0  0  0  0  0  0  0  0
   21.3444    8.8728   51.0710 C   0  0  0  0  0  0  0  0  0  0  0  0
   21.4350   10.1289   51.9034 C   0  0  0  0  0  0  0  0  0  0  0  0
   21.4204   11.2516   51.2256 C   0  0  0  0  0  0  0  0  0  0  0  0
   21.5025   12.5213   51.9378 C   0  0  0  0  0  0  0  0  0  0  0  0
   21.8552   13.5865   51.4149 O   0  0  0  0  0  0  0  0  0  0  0  0
   21.1338   12.4903   53.3678 C   0  0  0  0  0  0  0  0  0  0  0  0
   21.8425   11.3275   54.0254 C   0  0  0  0  0  0  0  0  0  0  0  0
   21.5282    9.9967   53.3753 C   0  0  0  0  0  0  0  0  0  0  0  0
   20.2187    9.5478   53.9277 C   0  0  0  0  0  0  0  0  0  0  0  0
   23.3910    6.7637   53.4588 C   0  0  0  0  0  0  0  0  0  0  0  0
   23.6416    5.5095   52.7195 C   0  0  0  0  0  0  0  0  0  0  0  0
   23.9983    4.5324   53.8497 C   0  0  0  0  0  0  0  0  0  0  0  0
   23.5967    5.2183   55.1057 C   0  0  0  0  0  0  0  0  0  0  0  0
   23.9170    5.0135   56.2528 O   0  0  0  0  0  0  0  0  0  0  0  0
  2  1  1  0  0  0
  2  3  1  0  0  0
  3  4  1  0  0  0
  4  5  1  0  0  0
  5  6  1  0  0  0
  6  7  1  0  0  0
  7  8  1  0  0  0
  8  9  1  0  0  0
  9 10  2  0  0  0
 10 11  1  0  0  0
 11 12  2  0  0  0
 11 13  1  0  0  0
 13 14  1  0  0  0
 14 15  1  0  0  0
 15 16  1  0  0  0
  6 17  1  0  0  0
 17 18  1  0  0  0
 18 19  1  0  0  0
 19 20  1  0  0  0
 20 21  2  0  0  0
 17  2  1  0  0  0
 20  2  1  0  0  0
 15  5  1  0  0  0
 15  9  1  0  0  0
M  END
> <minimizedAffinity>
18.36757

> <CNNscore>
0.5535789132

> <CNNaffinity>
6.1062860489

> <CNN_VS>
3.3803112507

> <CNNaffinity_variance>
0.4261398911

$$$$
[H]C1=C2C([H])([H])C([H])([H])[C@]3([H])[C@]4([H])C([H])([H])C([H])([H])C(=O)[C@@]4(C([H])([H])[H])C([H])([H])C([H])([H])[C@]3([H])[C@@]2(C([H])([H])[H])C([H])([H])C([H])([H])C1=O


 21 24  0  0  0  0  0  0  0  0999 V2000
   21.0828    7.3930   51.8907 C   0  0  0  0  0  0  0  0  0  0  0  0
   20.8310    7.1813   53.3537 C   0  0  0  0  0  0  0  0  0  0  0  0
   20.8313    8.4314   54.1640 C   0  0  0  0  0  0  0  0  0  0  0  0
   21.8779    8.5723   55.1899 C   0  0  0  0  0  0  0  0  0  0  0  0
   23.1746    7.8741   55.0192 C   0  0  0  0  0  0  0  0  0  0  0  0
   23.1388    6.6061   54.2214 C   0  0  0  0  0  0  0  0  0  0  0  0
   24.0063    6.6638   52.9858 C   0  0  0  0  0  0  0  0  0  0  0  0
   25.4357    6.8246   53.4592 C   0  0  0  0  0  0  0  0  0  0  0  0
   25.5264    7.9394   54.4731 C   0  0  0  0  0  0  0  0  0  0  0  0
   26.6850    8.0535   55.0770 C   0  0  0  0  0  0  0  0  0  0  0  0
   26.8750    9.1006   56.0739 C   0  0  0  0  0  0  0  0  0  0  0  0
   27.7594    9.0794   56.9397 O   0  0  0  0  0  0  0  0  0  0  0  0
   25.9336   10.2372   56.0112 C   0  0  0  0  0  0  0  0  0  0  0  0
   24.5268    9.6948   55.8960 C   0  0  0  0  0  0  0  0  0  0  0  0
   24.3357    8.7908   54.6965 C   0  0  0  0  0  0  0  0  0  0  0  0
   24.1200    9.6792   53.5195 C   0  0  0  0  0  0  0  0  0  0  0  0
   21.7431    6.1947   54.0125 C   0  0  0  0  0  0  0  0  0  0  0  0
   21.4672    4.9481   53.2695 C   0  0  0  0  0  0  0  0  0  0  0  0
   19.9431    5.0088   53.0884 C   0  0  0  0  0  0  0  0  0  0  0  0
   19.5596    6.4021   53.4358 C   0  0  0  0  0  0  0  0  0  0  0  0
   18.4868    6.8746   53.7290 O   0  0  0  0  0  0  0  0  0  0  0  0
  2  1  1  0  0  0
  2  3  1  0  0  0
  3  4  1  0  0  0
  4  5  1  0  0  0
  5  6  1  0  0  0
  6  7  1  0  0  0
  7  8  1  0  0  0
  8  9  1  0  0  0
  9 10  2  0  0  0
 10 11  1  0  0  0
 11 12  2  0  0  0
 11 13  1  0  0  0
 13 14  1  0  0  0
 14 15  1  0  0  0
 15 16  1  0  0  0
  6 17  1  0  0  0
 17 18  1  0  0  0
 18 19  1  0  0  0
 19 20  1  0  0  0
 20 21  2  0  0  0
 17  2  1  0  0  0
 20  2  1  0  0  0
 15  5  1  0  0  0
 15  9  1  0  0  0
M  END
> <minimizedAffinity>
19.78813

> <CNNscore>
0.5341125727

> <CNNaffinity>
6.0730195045

> <CNN_VS>
3.2436761856

> <CNNaffinity_variance>
0.4789635241

$$$$
[H]C1=C2C([H])([H])C([H])([H])[C@]3([H])[C@]4([H])C([H])([H])C([H])([H])C(=O)[C@@]4(C([H])([H])[H])C([H])([H])C([H])([H])[C@]3([H])[C@@]2(C([H])([H])[H])C([H])([H])C([H])([H])C1=O


 21 24  0  0  0  0  0  0  0  0999 V2000
   20.6165    8.6644   54.0062 C   0  0  0  0  0  0  0  0  0  0  0  0
   21.0870    7.2655   53.7410 C   0  0  0  0  0  0  0  0  0  0  0  0
   21.7447    6.6079   54.9048 C   0  0  0  0  0  0  0  0  0  0  0  0
   23.1659    6.2491   54.7647 C   0  0  0  0  0  0  0  0  0  0  0  0
   24.0326    7.0217   53.8428 C   0  0  0  0  0  0  0  0  0  0  0  0
   23.3473    7.6501   52.6675 C   0  0  0  0  0  0  0  0  0  0  0  0
   23.4778    9.1551   52.6460 C   0  0  0  0  0  0  0  0  0  0  0  0
   24.9516    9.4666   52.4916 C   0  0  0  0  0  0  0  0  0  0  0  0
   25.7592    8.6735   53.4905 C   0  0  0  0  0  0  0  0  0  0  0  0
   27.0598    8.7350   53.3335 C   0  0  0  0  0  0  0  0  0  0  0  0
   27.9288    8.0039   54.2482 C   0  0  0  0  0  0  0  0  0  0  0  0
   29.1004    7.6968   53.9927 O   0  0  0  0  0  0  0  0  0  0  0  0
   27.3356    7.6263   55.5472 C   0  0  0  0  0  0  0  0  0  0  0  0
   25.9806    7.0030   55.2978 C   0  0  0  0  0  0  0  0  0  0  0  0
   25.0393    7.9137   54.5380 C   0  0  0  0  0  0  0  0  0  0  0  0
   24.4545    8.8546   55.5350 C   0  0  0  0  0  0  0  0  0  0  0  0
   21.9820    7.1180   52.5509 C   0  0  0  0  0  0  0  0  0  0  0  0
   21.1258    7.5795   51.4391 C   0  0  0  0  0  0  0  0  0  0  0  0
   19.7623    6.9754   51.8071 C   0  0  0  0  0  0  0  0  0  0  0  0
   19.8958    6.5312   53.2192 C   0  0  0  0  0  0  0  0  0  0  0  0
   19.2327    5.7568   53.8680 O   0  0  0  0  0  0  0  0  0  0  0  0
  2  1  1  0  0  0
  2  3  1  0  0  0
  3  4  1  0  0  0
  4  5  1  0  0  0
  5  6  1  0  0  0
  6  7  1  0  0  0
  7  8  1  0  0  0
  8  9  1  0  0  0
  9 10  2  0  0  0
 10 11  1  0  0  0
 11 12  2  0  0  0
 11 13  1  0  0  0
 13 14  1  0  0  0
 14 15  1  0  0  0
 15 16  1  0  0  0
  6 17  1  0  0  0
 17 18  1  0  0  0
 18 19  1  0  0  0
 19 20  1  0  0  0
 20 21  2  0  0  0
 17  2  1  0  0  0
 20  2  1  0  0  0
 15  5  1  0  0  0
 15  9  1  0  0  0
M  END
> <minimizedAffinity>
25.34310

> <CNNscore>
0.5340806842

> <CNNaffinity>
5.8764181137

> <CNN_VS>
3.1384813786

> <CNNaffinity_variance>
0.4164484143

$$$$
[H]C1=C2C([H])([H])C([H])([H])[C@]3([H])[C@]4([H])C([H])([H])C([H])([H])C(=O)[C@@]4(C([H])([H])[H])C([H])([H])C([H])([H])[C@]3([H])[C@@]2(C([H])([H])[H])C([H])([H])C([H])([H])C1=O


 21 24  0  0  0  0  0  0  0  0999 V2000
   23.0016   10.6992   55.5152 C   0  0  0  0  0  0  0  0  0  0  0  0
   21.7987    9.9590   55.0112 C   0  0  0  0  0  0  0  0  0  0  0  0
   21.4337    8.7601   55.8167 C   0  0  0  0  0  0  0  0  0  0  0  0
   21.5150    7.4486   55.1523 C   0  0  0  0  0  0  0  0  0  0  0  0
   22.4638    7.2493   54.0306 C   0  0  0  0  0  0  0  0  0  0  0  0
   22.7921    8.4679   53.2226 C   0  0  0  0  0  0  0  0  0  0  0  0
   24.2626    8.8133   53.2501 C   0  0  0  0  0  0  0  0  0  0  0  0
   24.9971    7.6622   52.5955 C   0  0  0  0  0  0  0  0  0  0  0  0
   24.5396    6.3498   53.1849 C   0  0  0  0  0  0  0  0  0  0  0  0
   24.9835    5.2772   52.5745 C   0  0  0  0  0  0  0  0  0  0  0  0
   24.5993    3.9598   53.0674 C   0  0  0  0  0  0  0  0  0  0  0  0
   24.6482    2.9257   52.3887 O   0  0  0  0  0  0  0  0  0  0  0  0
   24.1291    3.9002   54.4664 C   0  0  0  0  0  0  0  0  0  0  0  0
   23.1126    4.9986   54.6828 C   0  0  0  0  0  0  0  0  0  0  0  0
   23.6541    6.3779   54.3714 C   0  0  0  0  0  0  0  0  0  0  0  0
   24.4253    6.8167   55.5690 C   0  0  0  0  0  0  0  0  0  0  0  0
   21.8663    9.5550   53.5721 C   0  0  0  0  0  0  0  0  0  0  0  0
   21.9875   10.8513   52.8742 C   0  0  0  0  0  0  0  0  0  0  0  0
   21.0194   11.7398   53.6696 C   0  0  0  0  0  0  0  0  0  0  0  0
   20.7118   10.9780   54.9082 C   0  0  0  0  0  0  0  0  0  0  0  0
   19.8085   11.0957   55.7023 O   0  0  0  0  0  0  0  0  0  0  0  0
  2  1  1  0  0  0
  2  3  1  0  0  0
  3  4  1  0  0  0
  4  5  1  0  0  0
  5  6  1  0  0  0
  6  7  1  0  0  0
  7  8  1  0  0  0
  8  9  1  0  0  0
  9 10  2  0  0  0
 10 11  1  0  0  0
 11 12  2  0  0  0
 11 13  1  0  0  0
 13 14  1  0  0  0
 14 15  1  0  0  0
 15 16  1  0  0  0
  6 17  1  0  0  0
 17 18  1  0  0  0
 18 19  1  0  0  0
 19 20  1  0  0  0
 20 21  2  0  0  0
 17  2  1  0  0  0
 20  2  1  0  0  0
 15  5  1  0  0  0
 15  9  1  0  0  0
M  END
> <minimizedAffinity>
38.01566

> <CNNscore>
0.5139232874

> <CNNaffinity>
5.8387475014

> <CNN_VS>
3.0006682873

> <CNNaffinity_variance>
0.4969104826

$$$$
[H]c1nc2c([H])c(C(=O)N([H])C([H])([H])C([H])([H])C([H])([H])N3C(=O)C([H])([H])C([H])([H])C3([H])[H])sc2c(Oc2c([H])c([H])c(N([H])C(=O)N([H])c3c([H])c(C([H])([H])[H])c([H])c([H])c3F)c([H])c2[H])c1[H]


 43 47  0  0  0  0  0  0  0  0999 V2000
   24.1179    6.9683   54.1160 C   0  0  0  0  0  0  0  0  0  0  0  0
   23.6358    5.9802   54.9423 C   0  0  0  0  0  0  0  0  0  0  0  0
   22.2681    5.9738   55.1114 C   0  0  0  0  0  0  0  0  0  0  0  0
   21.4421    6.8295   54.5448 N   0  0  0  0  0  0  0  0  0  0  0  0
   21.8806    7.8298   53.7142 C   0  0  0  0  0  0  0  0  0  0  0  0
   21.1275    8.7595   53.0813 C   0  0  0  0  0  0  0  0  0  0  0  0
   21.7888    9.6652   52.2977 C   0  0  0  0  0  0  0  0  0  0  0  0
   23.4238    9.1955   52.4670 S   0  0  0  0  0  0  0  0  0  0  0  0
   23.2265    7.8733   53.5190 C   0  0  0  0  0  0  0  0  0  0  0  0
   21.2117   10.7712   51.5065 C   0  0  0  0  0  0  0  0  0  0  0  0
   20.3089   10.5314   50.6719 O   0  0  0  0  0  0  0  0  0  0  0  0
   21.6749   12.0867   51.6907 N   0  0  0  0  0  0  0  0  0  0  0  0
   22.4435   12.2400   52.4140 H   0  0  0  0  0  0  0  0  0  0  0  0
   21.1608   13.2246   50.9521 C   0  0  0  0  0  0  0  0  0  0  0  0
   21.8929   14.5102   51.2608 C   0  0  0  0  0  0  0  0  0  0  0  0
   21.0524   15.7162   50.8240 C   0  0  0  0  0  0  0  0  0  0  0  0
   21.9219   16.8577   50.6283 N   0  0  0  0  0  0  0  0  0  0  0  0
   22.5198   17.6413   51.6750 C   0  0  0  0  0  0  0  0  0  0  0  0
   22.9844   18.9085   50.9756 C   0  0  0  0  0  0  0  0  0  0  0  0
   23.2304   18.4961   49.5395 C   0  0  0  0  0  0  0  0  0  0  0  0
   22.3016   17.3570   49.3551 C   0  0  0  0  0  0  0  0  0  0  0  0
   21.9335   16.9322   48.2292 O   0  0  0  0  0  0  0  0  0  0  0  0
   25.4566    7.1514   53.8131 O   0  0  0  0  0  0  0  0  0  0  0  0
   27.5766    9.8692   56.2755 C   0  0  0  0  0  0  0  0  0  0  0  0
   26.1854    9.6773   56.3903 C   0  0  0  0  0  0  0  0  0  0  0  0
   25.5221    8.7941   55.5842 C   0  0  0  0  0  0  0  0  0  0  0  0
   26.1553    8.0402   54.6177 C   0  0  0  0  0  0  0  0  0  0  0  0
   27.5132    8.2323   54.5116 C   0  0  0  0  0  0  0  0  0  0  0  0
   28.2190    9.1324   55.3265 C   0  0  0  0  0  0  0  0  0  0  0  0
   29.2495   11.5082   59.1798 N   0  0  0  0  0  0  0  0  0  0  0  0
   28.6099   10.4846   58.4507 C   0  0  0  0  0  0  0  0  0  0  0  0
   28.4027    9.3778   58.9776 O   0  0  0  0  0  0  0  0  0  0  0  0
   28.2215   10.7573   57.1273 N   0  0  0  0  0  0  0  0  0  0  0  0
   29.3745   12.4125   58.6293 H   0  0  0  0  0  0  0  0  0  0  0  0
   28.4304   11.7239   56.7304 H   0  0  0  0  0  0  0  0  0  0  0  0
   32.3779    9.9742   62.7013 C   0  0  0  0  0  0  0  0  0  0  0  0
   31.1686   10.7460   62.2661 C   0  0  0  0  0  0  0  0  0  0  0  0
   30.4419   11.4366   63.1806 C   0  0  0  0  0  0  0  0  0  0  0  0
   29.3372   12.1340   62.7446 C   0  0  0  0  0  0  0  0  0  0  0  0
   28.9392   12.1638   61.4395 C   0  0  0  0  0  0  0  0  0  0  0  0
   27.8400   12.8673   61.0553 F   0  0  0  0  0  0  0  0  0  0  0  0
   29.7097   11.4373   60.4993 C   0  0  0  0  0  0  0  0  0  0  0  0
   30.7990   10.7519   60.9416 C   0  0  0  0  0  0  0  0  0  0  0  0
 36 37  1  0  0  0
 37 38  2  0  0  0
 38 39  1  0  0  0
 39 40  2  0  0  0
 40 41  1  0  0  0
 40 42  1  0  0  0
 42 30  1  0  0  0
 30 31  1  0  0  0
 31 32  2  0  0  0
 31 33  1  0  0  0
 33 24  1  0  0  0
 24 25  2  0  0  0
 25 26  1  0  0  0
 26 27  2  0  0  0
 27 23  1  0  0  0
 23  1  1  0  0  0
  1  2  2  0  0  0
  2  3  1  0  0  0
  3  4  2  0  0  0
  4  5  1  0  0  0
  5  6  1  0  0  0
  6  7  2  0  0  0
  7  8  1  0  0  0
  8  9  1  0  0  0
  7 10  1  0  0  0
 10 11  2  0  0  0
 10 12  1  0  0  0
 12 14  1  0  0  0
 14 15  1  0  0  0
 15 16  1  0  0  0
 16 17  1  0  0  0
 17 18  1  0  0  0
 18 19  1  0  0  0
 19 20  1  0  0  0
 20 21  1  0  0  0
 21 22  2  0  0  0
 27 28  1  0  0  0
 28 29  2  0  0  0
 42 43  2  0  0  0
 43 37  1  0  0  0
 29 24  1  0  0  0
  9  1  1  0  0  0
 21 17  1  0  0  0
  9  5  2  0  0  0
 30 34  1  0  0  0
 33 35  1  0  0  0
 12 13  1  0  0  0
M  END
> <minimizedAffinity>
7.55184

> <CNNscore>
0.6856418848

> <CNNaffinity>
6.9159650803

> <CNN_VS>
4.7418751717

> <CNNaffinity_variance>
0.3311749995

$$$$
[H]c1nc2c([H])c(C(=O)N([H])C([H])([H])C([H])([H])C([H])([H])N3C(=O)C([H])([H])C([H])([H])C3([H])[H])sc2c(Oc2c([H])c([H])c(N([H])C(=O)N([H])c3c([H])c(C([H])([H])[H])c([H])c([H])c3F)c([H])c2[H])c1[H]


 43 47  0  0  0  0  0  0  0  0999 V2000
   22.5340    7.9076   53.8346 C   0  0  0  0  0  0  0  0  0  0  0  0
   22.2167    6.8000   53.0833 C   0  0  0  0  0  0  0  0  0  0  0  0
   23.2698    5.9519   52.8170 C   0  0  0  0  0  0  0  0  0  0  0  0
   24.5061    6.1447   53.2294 N   0  0  0  0  0  0  0  0  0  0  0  0
   24.8655    7.2353   53.9804 C   0  0  0  0  0  0  0  0  0  0  0  0
   26.0971    7.5338   54.4560 C   0  0  0  0  0  0  0  0  0  0  0  0
   26.2181    8.6842   55.1865 C   0  0  0  0  0  0  0  0  0  0  0  0
   24.6259    9.3065   55.1866 S   0  0  0  0  0  0  0  0  0  0  0  0
   23.8552    8.1005   54.2672 C   0  0  0  0  0  0  0  0  0  0  0  0
   27.4367    9.2357   55.8136 C   0  0  0  0  0  0  0  0  0  0  0  0
   28.5001    9.2971   55.1542 O   0  0  0  0  0  0  0  0  0  0  0  0
   27.4015    9.6892   57.1448 N   0  0  0  0  0  0  0  0  0  0  0  0
   26.4724    9.6174   57.6636 H   0  0  0  0  0  0  0  0  0  0  0  0
   28.5546   10.2411   57.8308 C   0  0  0  0  0  0  0  0  0  0  0  0
   28.6652    9.7815   59.2662 C   0  0  0  0  0  0  0  0  0  0  0  0
   29.6175   10.6981   60.0438 C   0  0  0  0  0  0  0  0  0  0  0  0
   28.8661   11.8028   60.6025 N   0  0  0  0  0  0  0  0  0  0  0  0
   28.9621   13.1749   60.1837 C   0  0  0  0  0  0  0  0  0  0  0  0
   28.3040   13.9570   61.3088 C   0  0  0  0  0  0  0  0  0  0  0  0
   27.3168   12.9923   61.9316 C   0  0  0  0  0  0  0  0  0  0  0  0
   27.9217   11.6691   61.6536 C   0  0  0  0  0  0  0  0  0  0  0  0
   27.6173   10.6182   62.2754 O   0  0  0  0  0  0  0  0  0  0  0  0
   21.6268    8.8828   54.2131 O   0  0  0  0  0  0  0  0  0  0  0  0
   21.1635   12.1643   51.5747 C   0  0  0  0  0  0  0  0  0  0  0  0
   21.3373   12.3333   52.9628 C   0  0  0  0  0  0  0  0  0  0  0  0
   21.4851   11.2587   53.7953 C   0  0  0  0  0  0  0  0  0  0  0  0
   21.4750    9.9546   53.3450 C   0  0  0  0  0  0  0  0  0  0  0  0
   21.3053    9.7973   51.9890 C   0  0  0  0  0  0  0  0  0  0  0  0
   21.1516   10.8831   51.1117 C   0  0  0  0  0  0  0  0  0  0  0  0
   21.4174   15.5556   50.0401 N   0  0  0  0  0  0  0  0  0  0  0  0
   21.6586   14.5240   50.9708 C   0  0  0  0  0  0  0  0  0  0  0  0
   22.3996   14.7251   51.9486 O   0  0  0  0  0  0  0  0  0  0  0  0
   21.0404   13.2798   50.7557 N   0  0  0  0  0  0  0  0  0  0  0  0
   20.7682   15.2711   49.2439 H   0  0  0  0  0  0  0  0  0  0  0  0
   20.4194   13.1680   49.8969 H   0  0  0  0  0  0  0  0  0  0  0  0
   23.3271   19.5005   52.3493 C   0  0  0  0  0  0  0  0  0  0  0  0
   22.8616   18.8069   51.1044 C   0  0  0  0  0  0  0  0  0  0  0  0
   22.9279   19.4459   49.9091 C   0  0  0  0  0  0  0  0  0  0  0  0
   22.4912   18.7778   48.7867 C   0  0  0  0  0  0  0  0  0  0  0  0
   21.9960   17.5065   48.8188 C   0  0  0  0  0  0  0  0  0  0  0  0
   21.5761   16.8864   47.6832 F   0  0  0  0  0  0  0  0  0  0  0  0
   21.9343   16.8554   50.0749 C   0  0  0  0  0  0  0  0  0  0  0  0
   22.3685   17.5252   51.1771 C   0  0  0  0  0  0  0  0  0  0  0  0
 36 37  1  0  0  0
 37 38  2  0  0  0
 38 39  1  0  0  0
 39 40  2  0  0  0
 40 41  1  0  0  0
 40 42  1  0  0  0
 42 30  1  0  0  0
 30 31  1  0  0  0
 31 32  2  0  0  0
 31 33  1  0  0  0
 33 24  1  0  0  0
 24 25  2  0  0  0
 25 26  1  0  0  0
 26 27  2  0  0  0
 27 23  1  0  0  0
 23  1  1  0  0  0
  1  2  2  0  0  0
  2  3  1  0  0  0
  3  4  2  0  0  0
  4  5  1  0  0  0
  5  6  1  0  0  0
  6  7  2  0  0  0
  7  8  1  0  0  0
  8  9  1  0  0  0
  7 10  1  0  0  0
 10 11  2  0  0  0
 10 12  1  0  0  0
 12 14  1  0  0  0
 14 15  1  0  0  0
 15 16  1  0  0  0
 16 17  1  0  0  0
 17 18  1  0  0  0
 18 19  1  0  0  0
 19 20  1  0  0  0
 20 21  1  0  0  0
 21 22  2  0  0  0
 27 28  1  0  0  0
 28 29  2  0  0  0
 42 43  2  0  0  0
 43 37  1  0  0  0
 29 24  1  0  0  0
  9  1  1  0  0  0
 21 17  1  0  0  0
  9  5  2  0  0  0
 30 34  1  0  0  0
 33 35  1  0  0  0
 12 13  1  0  0  0
M  END
> <minimizedAffinity>
8.60742

> <CNNscore>
0.6782692671

> <CNNaffinity>
6.8125243187

> <CNN_VS>
4.6207261086

> <CNNaffinity_variance>
0.1918615401

$$$$
[H]c1nc2c([H])c(C(=O)N([H])C([H])([H])C([H])([H])C([H])([H])N3C(=O)C([H])([H])C([H])([H])C3([H])[H])sc2c(Oc2c([H])c([H])c(N([H])C(=O)N([H])c3c([H])c(C([H])([H])[H])c([H])c([H])c3F)c([H])c2[H])c1[H]


 43 47  0  0  0  0  0  0  0  0999 V2000
   24.8410    9.2456   55.5863 C   0  0  0  0  0  0  0  0  0  0  0  0
   24.5013   10.5440   55.8871 C   0  0  0  0  0  0  0  0  0  0  0  0
   23.1964   10.8876   55.6069 C   0  0  0  0  0  0  0  0  0  0  0  0
   22.3035   10.0687   55.0895 N   0  0  0  0  0  0  0  0  0  0  0  0
   22.6003    8.7665   54.7748 C   0  0  0  0  0  0  0  0  0  0  0  0
   21.7681    7.8413   54.2424 C   0  0  0  0  0  0  0  0  0  0  0  0
   22.2891    6.5974   54.0120 C   0  0  0  0  0  0  0  0  0  0  0  0
   23.9071    6.7567   54.5403 S   0  0  0  0  0  0  0  0  0  0  0  0
   23.8798    8.3840   55.0353 C   0  0  0  0  0  0  0  0  0  0  0  0
   21.6033    5.4184   53.4447 C   0  0  0  0  0  0  0  0  0  0  0  0
   22.2711    4.4104   53.1172 O   0  0  0  0  0  0  0  0  0  0  0  0
   20.2070    5.4291   53.2736 N   0  0  0  0  0  0  0  0  0  0  0  0
   19.6828    6.3098   53.5690 H   0  0  0  0  0  0  0  0  0  0  0  0
   19.4618    4.3131   52.7224 C   0  0  0  0  0  0  0  0  0  0  0  0
   19.1362    3.2537   53.7499 C   0  0  0  0  0  0  0  0  0  0  0  0
   18.1277    3.7971   54.7694 C   0  0  0  0  0  0  0  0  0  0  0  0
   16.8055    3.7974   54.1786 N   0  0  0  0  0  0  0  0  0  0  0  0
   16.0745    2.6300   53.7664 C   0  0  0  0  0  0  0  0  0  0  0  0
   14.9697    3.1747   52.8758 C   0  0  0  0  0  0  0  0  0  0  0  0
   14.7335    4.5885   53.3644 C   0  0  0  0  0  0  0  0  0  0  0  0
   16.0490    4.9717   53.9272 C   0  0  0  0  0  0  0  0  0  0  0  0
   16.3994    6.1627   54.1333 O   0  0  0  0  0  0  0  0  0  0  0  0
   26.0967    8.6981   55.7887 O   0  0  0  0  0  0  0  0  0  0  0  0
   28.5991   10.7116   58.5506 C   0  0  0  0  0  0  0  0  0  0  0  0
   28.0186   11.3654   57.4455 C   0  0  0  0  0  0  0  0  0  0  0  0
   27.2137   10.6947   56.5668 C   0  0  0  0  0  0  0  0  0  0  0  0
   26.9166    9.3536   56.6961 C   0  0  0  0  0  0  0  0  0  0  0  0
   27.4863    8.7221   57.7773 C   0  0  0  0  0  0  0  0  0  0  0  0
   28.3162    9.3868   58.6947 C   0  0  0  0  0  0  0  0  0  0  0  0
   30.1832   13.3803   60.6215 N   0  0  0  0  0  0  0  0  0  0  0  0
   29.2876   12.8080   59.6947 C   0  0  0  0  0  0  0  0  0  0  0  0
   28.4353   13.5156   59.1306 O   0  0  0  0  0  0  0  0  0  0  0  0
   29.3924   11.4300   59.4364 N   0  0  0  0  0  0  0  0  0  0  0  0
   30.8690   12.6811   61.0424 H   0  0  0  0  0  0  0  0  0  0  0  0
   30.1411   10.8762   59.9546 H   0  0  0  0  0  0  0  0  0  0  0  0
   28.1485   17.7086   61.9126 C   0  0  0  0  0  0  0  0  0  0  0  0
   29.3486   16.8504   61.6470 C   0  0  0  0  0  0  0  0  0  0  0  0
   30.5949   17.3695   61.7837 C   0  0  0  0  0  0  0  0  0  0  0  0
   31.6739   16.5516   61.5312 C   0  0  0  0  0  0  0  0  0  0  0  0
   31.5501   15.2468   61.1509 C   0  0  0  0  0  0  0  0  0  0  0  0
   32.6458   14.4767   60.9123 F   0  0  0  0  0  0  0  0  0  0  0  0
   30.2418   14.7222   61.0135 C   0  0  0  0  0  0  0  0  0  0  0  0
   29.1833   15.5396   61.2655 C   0  0  0  0  0  0  0  0  0  0  0  0
 36 37  1  0  0  0
 37 38  2  0  0  0
 38 39  1  0  0  0
 39 40  2  0  0  0
 40 41  1  0  0  0
 40 42  1  0  0  0
 42 30  1  0  0  0
 30 31  1  0  0  0
 31 32  2  0  0  0
 31 33  1  0  0  0
 33 24  1  0  0  0
 24 25  2  0  0  0
 25 26  1  0  0  0
 26 27  2  0  0  0
 27 23  1  0  0  0
 23  1  1  0  0  0
  1  2  2  0  0  0
  2  3  1  0  0  0
  3  4  2  0  0  0
  4  5  1  0  0  0
  5  6  1  0  0  0
  6  7  2  0  0  0
  7  8  1  0  0  0
  8  9  1  0  0  0
  7 10  1  0  0  0
 10 11  2  0  0  0
 10 12  1  0  0  0
 12 14  1  0  0  0
 14 15  1  0  0  0
 15 16  1  0  0  0
 16 17  1  0  0  0
 17 18  1  0  0  0
 18 19  1  0  0  0
 19 20  1  0  0  0
 20 21  1  0  0  0
 21 22  2  0  0  0
 27 28  1  0  0  0
 28 29  2  0  0  0
 42 43  2  0  0  0
 43 37  1  0  0  0
 29 24  1  0  0  0
  9  1  1  0  0  0
 21 17  1  0  0  0
  9  5  2  0  0  0
 30 34  1  0  0  0
 33 35  1  0  0  0
 12 13  1  0  0  0
M  END
> <minimizedAffinity>
23.26654

> <CNNscore>
0.6723086834

> <CNNaffinity>
6.7377815247

> <CNN_VS>
4.5298690796

> <CNNaffinity_variance>
0.1487250030

$$$$
[H]c1nc2c([H])c(C(=O)N([H])C([H])([H])C([H])([H])C([H])([H])N3C(=O)C([H])([H])C([H])([H])C3([H])[H])sc2c(Oc2c([H])c([H])c(N([H])C(=O)N([H])c3c([H])c(C([H])([H])[H])c([H])c([H])c3F)c([H])c2[H])c1[H]


 43 47  0  0  0  0  0  0  0  0999 V2000
   23.5115    7.6792   53.9635 C   0  0  0  0  0  0  0  0  0  0  0  0
   22.9111    6.8926   54.9188 C   0  0  0  0  0  0  0  0  0  0  0  0
   21.5919    7.1937   55.1806 C   0  0  0  0  0  0  0  0  0  0  0  0
   20.9134    8.1539   54.5862 N   0  0  0  0  0  0  0  0  0  0  0  0
   21.4735    8.9612   53.6285 C   0  0  0  0  0  0  0  0  0  0  0  0
   20.8755    9.9720   52.9556 C   0  0  0  0  0  0  0  0  0  0  0  0
   21.6374   10.6436   52.0391 C   0  0  0  0  0  0  0  0  0  0  0  0
   23.1487    9.8514   52.1440 S   0  0  0  0  0  0  0  0  0  0  0  0
   22.7767    8.6985   53.3384 C   0  0  0  0  0  0  0  0  0  0  0  0
   21.2332   11.7745   51.1789 C   0  0  0  0  0  0  0  0  0  0  0  0
   20.6743   11.5495   50.0805 O   0  0  0  0  0  0  0  0  0  0  0  0
   21.4754   13.0971   51.5926 N   0  0  0  0  0  0  0  0  0  0  0  0
   21.9523   13.2369   52.5362 H   0  0  0  0  0  0  0  0  0  0  0  0
   21.1105   14.2593   50.8047 C   0  0  0  0  0  0  0  0  0  0  0  0
   21.4925   15.5646   51.4636 C   0  0  0  0  0  0  0  0  0  0  0  0
   21.5542   16.6865   50.4199 C   0  0  0  0  0  0  0  0  0  0  0  0
   22.6186   17.6044   50.7688 N   0  0  0  0  0  0  0  0  0  0  0  0
   22.9112   18.0793   52.0939 C   0  0  0  0  0  0  0  0  0  0  0  0
   23.8156   19.2805   51.8703 C   0  0  0  0  0  0  0  0  0  0  0  0
   24.5021   19.0135   50.5472 C   0  0  0  0  0  0  0  0  0  0  0  0
   23.5252   18.1619   49.8297 C   0  0  0  0  0  0  0  0  0  0  0  0
   23.5342   17.9882   48.5834 O   0  0  0  0  0  0  0  0  0  0  0  0
   24.8269    7.5446   53.5526 O   0  0  0  0  0  0  0  0  0  0  0  0
   27.7890    9.1618   56.1129 C   0  0  0  0  0  0  0  0  0  0  0  0
   28.1070    8.5644   54.8769 C   0  0  0  0  0  0  0  0  0  0  0  0
   27.1336    8.0490   54.0667 C   0  0  0  0  0  0  0  0  0  0  0  0
   25.7937    8.0760   54.3943 C   0  0  0  0  0  0  0  0  0  0  0  0
   25.4906    8.6609   55.6019 C   0  0  0  0  0  0  0  0  0  0  0  0
   26.4702    9.1980   56.4528 C   0  0  0  0  0  0  0  0  0  0  0  0
   29.7762   10.7465   58.8441 N   0  0  0  0  0  0  0  0  0  0  0  0
   28.6375   10.2359   58.1876 C   0  0  0  0  0  0  0  0  0  0  0  0
   27.5270   10.2689   58.7456 O   0  0  0  0  0  0  0  0  0  0  0  0
   28.8015    9.6967   56.8996 N   0  0  0  0  0  0  0  0  0  0  0  0
   30.6724   10.6662   58.2725 H   0  0  0  0  0  0  0  0  0  0  0  0
   29.7794    9.6932   56.4761 H   0  0  0  0  0  0  0  0  0  0  0  0
   31.8540   11.5329   63.2719 C   0  0  0  0  0  0  0  0  0  0  0  0
   30.7518   11.7587   62.2812 C   0  0  0  0  0  0  0  0  0  0  0  0
   29.7098   12.5668   62.6013 C   0  0  0  0  0  0  0  0  0  0  0  0
   28.7153   12.7508   61.6663 C   0  0  0  0  0  0  0  0  0  0  0  0
   28.7277   12.1606   60.4358 C   0  0  0  0  0  0  0  0  0  0  0  0
   27.7222   12.3721   59.5442 F   0  0  0  0  0  0  0  0  0  0  0  0
   29.8231   11.3206   60.1193 C   0  0  0  0  0  0  0  0  0  0  0  0
   30.7996   11.1462   61.0509 C   0  0  0  0  0  0  0  0  0  0  0  0
 36 37  1  0  0  0
 37 38  2  0  0  0
 38 39  1  0  0  0
 39 40  2  0  0  0
 40 41  1  0  0  0
 40 42  1  0  0  0
 42 30  1  0  0  0
 30 31  1  0  0  0
 31 32  2  0  0  0
 31 33  1  0  0  0
 33 24  1  0  0  0
 24 25  2  0  0  0
 25 26  1  0  0  0
 26 27  2  0  0  0
 27 23  1  0  0  0
 23  1  1  0  0  0
  1  2  2  0  0  0
  2  3  1  0  0  0
  3  4  2  0  0  0
  4  5  1  0  0  0
  5  6  1  0  0  0
  6  7  2  0  0  0
  7  8  1  0  0  0
  8  9  1  0  0  0
  7 10  1  0  0  0
 10 11  2  0  0  0
 10 12  1  0  0  0
 12 14  1  0  0  0
 14 15  1  0  0  0
 15 16  1  0  0  0
 16 17  1  0  0  0
 17 18  1  0  0  0
 18 19  1  0  0  0
 19 20  1  0  0  0
 20 21  1  0  0  0
 21 22  2  0  0  0
 27 28  1  0  0  0
 28 29  2  0  0  0
 42 43  2  0  0  0
 43 37  1  0  0  0
 29 24  1  0  0  0
  9  1  1  0  0  0
 21 17  1  0  0  0
  9  5  2  0  0  0
 30 34  1  0  0  0
 33 35  1  0  0  0
 12 13  1  0  0  0
M  END
> <minimizedAffinity>
10.86616

> <CNNscore>
0.6409273744

> <CNNaffinity>
6.9213118553

> <CNN_VS>
4.4360580444

> <CNNaffinity_variance>
0.2519957423

$$$$
[H]c1nc2c([H])c(C(=O)N([H])C([H])([H])C([H])([H])C([H])([H])N3C(=O)C([H])([H])C([H])([H])C3([H])[H])sc2c(Oc2c([H])c([H])c(N([H])C(=O)N([H])c3c([H])c(C([H])([H])[H])c([H])c([H])c3F)c([H])c2[H])c1[H]


 43 47  0  0  0  0  0  0  0  0999 V2000
   22.4462    7.8149   53.9144 C   0  0  0  0  0  0  0  0  0  0  0  0
   22.1378    6.6967   53.1753 C   0  0  0  0  0  0  0  0  0  0  0  0
   23.1946    5.8465   52.9310 C   0  0  0  0  0  0  0  0  0  0  0  0
   24.4265    6.0468   53.3529 N   0  0  0  0  0  0  0  0  0  0  0  0
   24.7770    7.1481   54.0924 C   0  0  0  0  0  0  0  0  0  0  0  0
   26.0034    7.4549   54.5761 C   0  0  0  0  0  0  0  0  0  0  0  0
   26.1157    8.6153   55.2919 C   0  0  0  0  0  0  0  0  0  0  0  0
   24.5228    9.2352   55.2677 S   0  0  0  0  0  0  0  0  0  0  0  0
   23.7628    8.0156   54.3573 C   0  0  0  0  0  0  0  0  0  0  0  0
   27.3273    9.1771   55.9234 C   0  0  0  0  0  0  0  0  0  0  0  0
   28.3763    9.3024   55.2502 O   0  0  0  0  0  0  0  0  0  0  0  0
   27.3016    9.5689   57.2742 N   0  0  0  0  0  0  0  0  0  0  0  0
   26.3846    9.4439   57.8044 H   0  0  0  0  0  0  0  0  0  0  0  0
   28.4487   10.1264   57.9656 C   0  0  0  0  0  0  0  0  0  0  0  0
   28.8264    9.3505   59.2063 C   0  0  0  0  0  0  0  0  0  0  0  0
   29.3659   10.3014   60.2817 C   0  0  0  0  0  0  0  0  0  0  0  0
   30.4648    9.6624   60.9755 N   0  0  0  0  0  0  0  0  0  0  0  0
   30.6073    8.2480   61.1906 C   0  0  0  0  0  0  0  0  0  0  0  0
   31.6682    8.1387   62.2737 C   0  0  0  0  0  0  0  0  0  0  0  0
   32.5107    9.3882   62.1249 C   0  0  0  0  0  0  0  0  0  0  0  0
   31.5611   10.3640   61.5416 C   0  0  0  0  0  0  0  0  0  0  0  0
   31.7376   11.6097   61.5665 O   0  0  0  0  0  0  0  0  0  0  0  0
   21.5339    8.7938   54.2705 O   0  0  0  0  0  0  0  0  0  0  0  0
   21.2500   12.1264   51.6711 C   0  0  0  0  0  0  0  0  0  0  0  0
   21.1432   10.7997   51.2084 C   0  0  0  0  0  0  0  0  0  0  0  0
   21.2379    9.7393   52.0665 C   0  0  0  0  0  0  0  0  0  0  0  0
   21.4412    9.8885   53.4229 C   0  0  0  0  0  0  0  0  0  0  0  0
   21.5442   11.1862   53.8675 C   0  0  0  0  0  0  0  0  0  0  0  0
   21.4503   12.2931   53.0083 C   0  0  0  0  0  0  0  0  0  0  0  0
   21.4294   15.4252   49.9374 N   0  0  0  0  0  0  0  0  0  0  0  0
   21.6601   14.4687   50.9475 C   0  0  0  0  0  0  0  0  0  0  0  0
   22.3200   14.7720   51.9565 O   0  0  0  0  0  0  0  0  0  0  0  0
   21.1249   13.1802   50.7744 N   0  0  0  0  0  0  0  0  0  0  0  0
   20.8527   15.0554   49.1207 H   0  0  0  0  0  0  0  0  0  0  0  0
   20.5715   12.9801   49.8860 H   0  0  0  0  0  0  0  0  0  0  0  0
   23.2969   19.4961   52.0544 C   0  0  0  0  0  0  0  0  0  0  0  0
   22.7704   18.7638   50.8570 C   0  0  0  0  0  0  0  0  0  0  0  0
   22.7017   19.3921   49.6562 C   0  0  0  0  0  0  0  0  0  0  0  0
   22.2125   18.6881   48.5782 C   0  0  0  0  0  0  0  0  0  0  0  0
   21.7942   17.3916   48.6596 C   0  0  0  0  0  0  0  0  0  0  0  0
   21.3179   16.7363   47.5668 F   0  0  0  0  0  0  0  0  0  0  0  0
   21.8731   16.7521   49.9207 C   0  0  0  0  0  0  0  0  0  0  0  0
   22.3582   17.4575   50.9786 C   0  0  0  0  0  0  0  0  0  0  0  0
 36 37  1  0  0  0
 37 38  2  0  0  0
 38 39  1  0  0  0
 39 40  2  0  0  0
 40 41  1  0  0  0
 40 42  1  0  0  0
 42 30  1  0  0  0
 30 31  1  0  0  0
 31 32  2  0  0  0
 31 33  1  0  0  0
 33 24  1  0  0  0
 24 25  2  0  0  0
 25 26  1  0  0  0
 26 27  2  0  0  0
 27 23  1  0  0  0
 23  1  1  0  0  0
  1  2  2  0  0  0
  2  3  1  0  0  0
  3  4  2  0  0  0
  4  5  1  0  0  0
  5  6  1  0  0  0
  6  7  2  0  0  0
  7  8  1  0  0  0
  8  9  1  0  0  0
  7 10  1  0  0  0
 10 11  2  0  0  0
 10 12  1  0  0  0
 12 14  1  0  0  0
 14 15  1  0  0  0
 15 16  1  0  0  0
 16 17  1  0  0  0
 17 18  1  0  0  0
 18 19  1  0  0  0
 19 20  1  0  0  0
 20 21  1  0  0  0
 21 22  2  0  0  0
 27 28  1  0  0  0
 28 29  2  0  0  0
 42 43  2  0  0  0
 43 37  1  0  0  0
 29 24  1  0  0  0
  9  1  1  0  0  0
 21 17  1  0  0  0
  9  5  2  0  0  0
 30 34  1  0  0  0
 33 35  1  0  0  0
 12 13  1  0  0  0
M  END
> <minimizedAffinity>
8.42497

> <CNNscore>
0.6384967566

> <CNNaffinity>
6.5901136398

> <CNN_VS>
4.2077660561

> <CNNaffinity_variance>
0.2833699584

$$$$
[H]c1nc2c([H])c(C(=O)N([H])C([H])([H])C([H])([H])C([H])([H])N3C(=O)C([H])([H])C([H])([H])C3([H])[H])sc2c(Oc2c([H])c([H])c(N([H])C(=O)N([H])c3c([H])c(C([H])([H])[H])c([H])c([H])c3F)c([H])c2[H])c1[H]


 43 47  0  0  0  0  0  0  0  0999 V2000
   24.9700    9.4272   55.5297 C   0  0  0  0  0  0  0  0  0  0  0  0
   24.6037   10.6446   56.0546 C   0  0  0  0  0  0  0  0  0  0  0  0
   23.2515   10.9095   56.0305 C   0  0  0  0  0  0  0  0  0  0  0  0
   22.3387   10.0894   55.5510 N   0  0  0  0  0  0  0  0  0  0  0  0
   22.6606    8.8665   55.0187 C   0  0  0  0  0  0  0  0  0  0  0  0
   21.8117    7.9483   54.5007 C   0  0  0  0  0  0  0  0  0  0  0  0
   22.3646    6.7912   54.0240 C   0  0  0  0  0  0  0  0  0  0  0  0
   24.0345    7.0188   54.3109 S   0  0  0  0  0  0  0  0  0  0  0  0
   23.9871    8.5634   55.0222 C   0  0  0  0  0  0  0  0  0  0  0  0
   21.6701    5.6389   53.4142 C   0  0  0  0  0  0  0  0  0  0  0  0
   22.3389    4.6956   52.9323 O   0  0  0  0  0  0  0  0  0  0  0  0
   20.2643    5.6024   53.3756 N   0  0  0  0  0  0  0  0  0  0  0  0
   19.7398    6.4283   53.8002 H   0  0  0  0  0  0  0  0  0  0  0  0
   19.5099    4.5086   52.7933 C   0  0  0  0  0  0  0  0  0  0  0  0
   19.2485    3.3845   53.7690 C   0  0  0  0  0  0  0  0  0  0  0  0
   18.1664    3.7968   54.7744 C   0  0  0  0  0  0  0  0  0  0  0  0
   16.8898    3.8762   54.0952 N   0  0  0  0  0  0  0  0  0  0  0  0
   15.9283    4.9345   54.2452 C   0  0  0  0  0  0  0  0  0  0  0  0
   14.6470    4.3623   53.6608 C   0  0  0  0  0  0  0  0  0  0  0  0
   15.1034    3.3340   52.6472 C   0  0  0  0  0  0  0  0  0  0  0  0
   16.4170    2.9016   53.1781 C   0  0  0  0  0  0  0  0  0  0  0  0
   16.9873    1.8314   52.8419 O   0  0  0  0  0  0  0  0  0  0  0  0
   26.2738    8.9664   55.4575 O   0  0  0  0  0  0  0  0  0  0  0  0
   28.6498    9.4843   58.9260 C   0  0  0  0  0  0  0  0  0  0  0  0
   27.9762    8.2782   58.6483 C   0  0  0  0  0  0  0  0  0  0  0  0
   27.2146    8.1340   57.5218 C   0  0  0  0  0  0  0  0  0  0  0  0
   27.0535    9.1404   56.5920 C   0  0  0  0  0  0  0  0  0  0  0  0
   27.7142   10.3147   56.8694 C   0  0  0  0  0  0  0  0  0  0  0  0
   28.5027   10.4895   58.0183 C   0  0  0  0  0  0  0  0  0  0  0  0
   30.8851   10.6659   61.6695 N   0  0  0  0  0  0  0  0  0  0  0  0
   30.1250   10.7389   60.4840 C   0  0  0  0  0  0  0  0  0  0  0  0
   30.0773   11.7991   59.8365 O   0  0  0  0  0  0  0  0  0  0  0  0
   29.4342    9.5873   60.0680 N   0  0  0  0  0  0  0  0  0  0  0  0
   30.8535    9.7102   62.1405 H   0  0  0  0  0  0  0  0  0  0  0  0
   29.5112    8.7099   60.6679 H   0  0  0  0  0  0  0  0  0  0  0  0
   32.6480   15.2913   61.8688 C   0  0  0  0  0  0  0  0  0  0  0  0
   32.5377   13.9042   62.4264 C   0  0  0  0  0  0  0  0  0  0  0  0
   33.1969   13.5794   63.5672 C   0  0  0  0  0  0  0  0  0  0  0  0
   33.0725   12.2956   64.0500 C   0  0  0  0  0  0  0  0  0  0  0  0
   32.3196   11.3362   63.4374 C   0  0  0  0  0  0  0  0  0  0  0  0
   32.2265   10.0803   63.9518 F   0  0  0  0  0  0  0  0  0  0  0  0
   31.6388   11.6932   62.2480 C   0  0  0  0  0  0  0  0  0  0  0  0
   31.7691   12.9645   61.7804 C   0  0  0  0  0  0  0  0  0  0  0  0
 36 37  1  0  0  0
 37 38  2  0  0  0
 38 39  1  0  0  0
 39 40  2  0  0  0
 40 41  1  0  0  0
 40 42  1  0  0  0
 42 30  1  0  0  0
 30 31  1  0  0  0
 31 32  2  0  0  0
 31 33  1  0  0  0
 33 24  1  0  0  0
 24 25  2  0  0  0
 25 26  1  0  0  0
 26 27  2  0  0  0
 27 23  1  0  0  0
 23  1  1  0  0  0
  1  2  2  0  0  0
  2  3  1  0  0  0
  3  4  2  0  0  0
  4  5  1  0  0  0
  5  6  1  0  0  0
  6  7  2  0  0  0
  7  8  1  0  0  0
  8  9  1  0  0  0
  7 10  1  0  0  0
 10 11  2  0  0  0
 10 12  1  0  0  0
 12 14  1  0  0  0
 14 15  1  0  0  0
 15 16  1  0  0  0
 16 17  1  0  0  0
 17 18  1  0  0  0
 18 19  1  0  0  0
 19 20  1  0  0  0
 20 21  1  0  0  0
 21 22  2  0  0  0
 27 28  1  0  0  0
 28 29  2  0  0  0
 42 43  2  0  0  0
 43 37  1  0  0  0
 29 24  1  0  0  0
  9  1  1  0  0  0
 21 17  1  0  0  0
  9  5  2  0  0  0
 30 34  1  0  0  0
 33 35  1  0  0  0
 12 13  1  0  0  0
M  END
> <minimizedAffinity>
28.02771

> <CNNscore>
0.6146348119

> <CNNaffinity>
6.5126810074

> <CNN_VS>
4.0029206276

> <CNNaffinity_variance>
0.0922414660

$$$$
[H]c1nc2c([H])c(C(=O)N([H])C([H])([H])C([H])([H])C([H])([H])N3C(=O)C([H])([H])C([H])([H])C3([H])[H])sc2c(Oc2c([H])c([H])c(N([H])C(=O)N([H])c3c([H])c(C([H])([H])[H])c([H])c([H])c3F)c([H])c2[H])c1[H]


 43 47  0  0  0  0  0  0  0  0999 V2000
   23.5740    7.4474   53.9053 C   0  0  0  0  0  0  0  0  0  0  0  0
   22.9625    6.5774   54.7775 C   0  0  0  0  0  0  0  0  0  0  0  0
   21.6385    6.8506   55.0450 C   0  0  0  0  0  0  0  0  0  0  0  0
   20.9652    7.8582   54.5282 N   0  0  0  0  0  0  0  0  0  0  0  0
   21.5364    8.7490   53.6548 C   0  0  0  0  0  0  0  0  0  0  0  0
   20.9445    9.8142   53.0656 C   0  0  0  0  0  0  0  0  0  0  0  0
   21.7174   10.5668   52.2242 C   0  0  0  0  0  0  0  0  0  0  0  0
   23.2300    9.7722   52.2811 S   0  0  0  0  0  0  0  0  0  0  0  0
   22.8447    8.5166   53.3623 C   0  0  0  0  0  0  0  0  0  0  0  0
   21.3217   11.7688   51.4620 C   0  0  0  0  0  0  0  0  0  0  0  0
   21.1361   11.6861   50.2259 O   0  0  0  0  0  0  0  0  0  0  0  0
   21.1544   12.9994   52.1227 N   0  0  0  0  0  0  0  0  0  0  0  0
   21.3224   13.0183   53.1757 H   0  0  0  0  0  0  0  0  0  0  0  0
   20.7697   14.2232   51.4452 C   0  0  0  0  0  0  0  0  0  0  0  0
   21.9509   15.0872   51.0680 C   0  0  0  0  0  0  0  0  0  0  0  0
   21.4837   16.5123   50.7475 C   0  0  0  0  0  0  0  0  0  0  0  0
   22.6137   17.2926   50.2879 N   0  0  0  0  0  0  0  0  0  0  0  0
   23.2140   17.2058   48.9843 C   0  0  0  0  0  0  0  0  0  0  0  0
   24.5559   17.9022   49.1425 C   0  0  0  0  0  0  0  0  0  0  0  0
   24.3539   18.8906   50.2719 C   0  0  0  0  0  0  0  0  0  0  0  0
   23.2846   18.2604   51.0803 C   0  0  0  0  0  0  0  0  0  0  0  0
   23.0435   18.5651   52.2773 O   0  0  0  0  0  0  0  0  0  0  0  0
   24.8960    7.3533   53.5041 O   0  0  0  0  0  0  0  0  0  0  0  0
   27.7237    9.4286   55.8792 C   0  0  0  0  0  0  0  0  0  0  0  0
   26.3452    9.4364   56.1711 C   0  0  0  0  0  0  0  0  0  0  0  0
   25.4506    8.7588   55.3899 C   0  0  0  0  0  0  0  0  0  0  0  0
   25.8259    8.0312   54.2794 C   0  0  0  0  0  0  0  0  0  0  0  0
   27.1729    8.0277   54.0006 C   0  0  0  0  0  0  0  0  0  0  0  0
   28.1129    8.7146   54.7861 C   0  0  0  0  0  0  0  0  0  0  0  0
   29.4709   10.9716   58.7923 N   0  0  0  0  0  0  0  0  0  0  0  0
   28.4846   10.2360   58.1033 C   0  0  0  0  0  0  0  0  0  0  0  0
   27.5402    9.7209   58.7263 O   0  0  0  0  0  0  0  0  0  0  0  0
   28.6067   10.1087   56.7085 N   0  0  0  0  0  0  0  0  0  0  0  0
   30.2314   11.3670   58.1584 H   0  0  0  0  0  0  0  0  0  0  0  0
   29.4410   10.5698   56.2320 H   0  0  0  0  0  0  0  0  0  0  0  0
   27.5313   12.3831   63.1267 C   0  0  0  0  0  0  0  0  0  0  0  0
   28.6785   11.8758   62.3057 C   0  0  0  0  0  0  0  0  0  0  0  0
   29.8726   11.6198   62.8974 C   0  0  0  0  0  0  0  0  0  0  0  0
   30.9040   11.1550   62.1119 C   0  0  0  0  0  0  0  0  0  0  0  0
   30.7830   10.9398   60.7696 C   0  0  0  0  0  0  0  0  0  0  0  0
   31.8304   10.4794   60.0339 F   0  0  0  0  0  0  0  0  0  0  0  0
   29.5296   11.2124   60.1694 C   0  0  0  0  0  0  0  0  0  0  0  0
   28.5178   11.6714   60.9553 C   0  0  0  0  0  0  0  0  0  0  0  0
 36 37  1  0  0  0
 37 38  2  0  0  0
 38 39  1  0  0  0
 39 40  2  0  0  0
 40 41  1  0  0  0
 40 42  1  0  0  0
 42 30  1  0  0  0
 30 31  1  0  0  0
 31 32  2  0  0  0
 31 33  1  0  0  0
 33 24  1  0  0  0
 24 25  2  0  0  0
 25 26  1  0  0  0
 26 27  2  0  0  0
 27 23  1  0  0  0
 23  1  1  0  0  0
  1  2  2  0  0  0
  2  3  1  0  0  0
  3  4  2  0  0  0
  4  5  1  0  0  0
  5  6  1  0  0  0
  6  7  2  0  0  0
  7  8  1  0  0  0
  8  9  1  0  0  0
  7 10  1  0  0  0
 10 11  2  0  0  0
 10 12  1  0  0  0
 12 14  1  0  0  0
 14 15  1  0  0  0
 15 16  1  0  0  0
 16 17  1  0  0  0
 17 18  1  0  0  0
 18 19  1  0  0  0
 19 20  1  0  0  0
 20 21  1  0  0  0
 21 22  2  0  0  0
 27 28  1  0  0  0
 28 29  2  0  0  0
 42 43  2  0  0  0
 43 37  1  0  0  0
 29 24  1  0  0  0
  9  1  1  0  0  0
 21 17  1  0  0  0
  9  5  2  0  0  0
 30 34  1  0  0  0
 33 35  1  0  0  0
 12 13  1  0  0  0
M  END
> <minimizedAffinity>
8.68453

> <CNNscore>
0.5949223042

> <CNNaffinity>
6.9378137589

> <CNN_VS>
4.1274600029

> <CNNaffinity_variance>
0.2775193155

$$$$
[H]c1nc2c([H])c(C(=O)N([H])C([H])([H])C([H])([H])C([H])([H])N3C(=O)C([H])([H])C([H])([H])C3([H])[H])sc2c(Oc2c([H])c([H])c(N([H])C(=O)N([H])c3c([H])c(C([H])([H])[H])c([H])c([H])c3F)c([H])c2[H])c1[H]


 43 47  0  0  0  0  0  0  0  0999 V2000
   24.0581    7.1784   53.8690 C   0  0  0  0  0  0  0  0  0  0  0  0
   23.5580    6.1274   54.6019 C   0  0  0  0  0  0  0  0  0  0  0  0
   22.1851    6.0956   54.7183 C   0  0  0  0  0  0  0  0  0  0  0  0
   21.3702    6.9831   54.1852 N   0  0  0  0  0  0  0  0  0  0  0  0
   21.8268    8.0460   53.4475 C   0  0  0  0  0  0  0  0  0  0  0  0
   21.0864    9.0127   52.8566 C   0  0  0  0  0  0  0  0  0  0  0  0
   21.7651    9.9800   52.1671 C   0  0  0  0  0  0  0  0  0  0  0  0
   23.3983    9.5145   52.3630 S   0  0  0  0  0  0  0  0  0  0  0  0
   23.1784    8.1164   53.3069 C   0  0  0  0  0  0  0  0  0  0  0  0
   21.2042   11.1359   51.4380 C   0  0  0  0  0  0  0  0  0  0  0  0
   20.4306   10.9436   50.4716 O   0  0  0  0  0  0  0  0  0  0  0  0
   21.5380   12.4455   51.8284 N   0  0  0  0  0  0  0  0  0  0  0  0
   22.1990   12.5573   52.6579 H   0  0  0  0  0  0  0  0  0  0  0  0
   21.0307   13.6306   51.1629 C   0  0  0  0  0  0  0  0  0  0  0  0
   22.0183   14.7744   51.1566 C   0  0  0  0  0  0  0  0  0  0  0  0
   21.3086   16.0850   50.7956 C   0  0  0  0  0  0  0  0  0  0  0  0
   22.2821   17.0316   50.2921 N   0  0  0  0  0  0  0  0  0  0  0  0
   22.6537   17.1935   48.9127 C   0  0  0  0  0  0  0  0  0  0  0  0
   23.9478   17.9893   48.9642 C   0  0  0  0  0  0  0  0  0  0  0  0
   23.8710   18.7796   50.2537 C   0  0  0  0  0  0  0  0  0  0  0  0
   23.0062   17.9366   51.1114 C   0  0  0  0  0  0  0  0  0  0  0  0
   22.9530   18.0400   52.3644 O   0  0  0  0  0  0  0  0  0  0  0  0
   25.4048    7.3959   53.6312 O   0  0  0  0  0  0  0  0  0  0  0  0
   27.4731    9.7666   56.4677 C   0  0  0  0  0  0  0  0  0  0  0  0
   28.1353    9.1015   55.4167 C   0  0  0  0  0  0  0  0  0  0  0  0
   27.4465    8.3415   54.5124 C   0  0  0  0  0  0  0  0  0  0  0  0
   26.0780    8.1738   54.5623 C   0  0  0  0  0  0  0  0  0  0  0  0
   25.4382    8.8262   55.5905 C   0  0  0  0  0  0  0  0  0  0  0  0
   26.1209    9.6130   56.5324 C   0  0  0  0  0  0  0  0  0  0  0  0
   29.5342   11.0245   59.3118 N   0  0  0  0  0  0  0  0  0  0  0  0
   28.8419   10.0875   58.5173 C   0  0  0  0  0  0  0  0  0  0  0  0
   28.8080    8.8901   58.8499 O   0  0  0  0  0  0  0  0  0  0  0  0
   28.2019   10.5497   57.3541 N   0  0  0  0  0  0  0  0  0  0  0  0
   29.4967   12.0196   58.9314 H   0  0  0  0  0  0  0  0  0  0  0  0
   28.2704   11.5872   57.1202 H   0  0  0  0  0  0  0  0  0  0  0  0
   31.9783    8.0857   62.4634 C   0  0  0  0  0  0  0  0  0  0  0  0
   31.4228    9.4243   62.0800 C   0  0  0  0  0  0  0  0  0  0  0  0
   31.5832   10.4859   62.9099 C   0  0  0  0  0  0  0  0  0  0  0  0
   31.0595   11.7003   62.5250 C   0  0  0  0  0  0  0  0  0  0  0  0
   30.3883   11.8867   61.3513 C   0  0  0  0  0  0  0  0  0  0  0  0
   29.8882   13.1057   61.0132 F   0  0  0  0  0  0  0  0  0  0  0  0
   30.2306   10.7676   60.4980 C   0  0  0  0  0  0  0  0  0  0  0  0
   30.7522    9.5729   60.8886 C   0  0  0  0  0  0  0  0  0  0  0  0
 36 37  1  0  0  0
 37 38  2  0  0  0
 38 39  1  0  0  0
 39 40  2  0  0  0
 40 41  1  0  0  0
 40 42  1  0  0  0
 42 30  1  0  0  0
 30 31  1  0  0  0
 31 32  2  0  0  0
 31 33  1  0  0  0
 33 24  1  0  0  0
 24 25  2  0  0  0
 25 26  1  0  0  0
 26 27  2  0  0  0
 27 23  1  0  0  0
 23  1  1  0  0  0
  1  2  2  0  0  0
  2  3  1  0  0  0
  3  4  2  0  0  0
  4  5  1  0  0  0
  5  6  1  0  0  0
  6  7  2  0  0  0
  7  8  1  0  0  0
  8  9  1  0  0  0
  7 10  1  0  0  0
 10 11  2  0  0  0
 10 12  1  0  0  0
 12 14  1  0  0  0
 14 15  1  0  0  0
 15 16  1  0  0  0
 16 17  1  0  0  0
 17 18  1  0  0  0
 18 19  1  0  0  0
 19 20  1  0  0  0
 20 21  1  0  0  0
 21 22  2  0  0  0
 27 28  1  0  0  0
 28 29  2  0  0  0
 42 43  2  0  0  0
 43 37  1  0  0  0
 29 24  1  0  0  0
  9  1  1  0  0  0
 21 17  1  0  0  0
  9  5  2  0  0  0
 30 34  1  0  0  0
 33 35  1  0  0  0
 12 13  1  0  0  0
M  END
> <minimizedAffinity>
7.67243

> <CNNscore>
0.5796103477

> <CNNaffinity>
6.7278571129

> <CNN_VS>
3.8995356560

> <CNNaffinity_variance>
0.2404674739

$$$$
[H]c1nc2c([H])c(C(=O)N([H])C([H])([H])C([H])([H])C([H])([H])N3C(=O)C([H])([H])C([H])([H])C3([H])[H])sc2c(Oc2c([H])c([H])c(N([H])C(=O)N([H])c3c([H])c(C([H])([H])[H])c([H])c([H])c3F)c([H])c2[H])c1[H]


 43 47  0  0  0  0  0  0  0  0999 V2000
   24.9817    9.3391   55.6655 C   0  0  0  0  0  0  0  0  0  0  0  0
   24.6609   10.6276   56.0241 C   0  0  0  0  0  0  0  0  0  0  0  0
   23.3481   10.9862   55.8067 C   0  0  0  0  0  0  0  0  0  0  0  0
   22.4315   10.1894   55.2960 N   0  0  0  0  0  0  0  0  0  0  0  0
   22.7088    8.8979   54.9251 C   0  0  0  0  0  0  0  0  0  0  0  0
   21.8517    7.9952   54.3935 C   0  0  0  0  0  0  0  0  0  0  0  0
   22.3566    6.7580   54.1002 C   0  0  0  0  0  0  0  0  0  0  0  0
   23.9946    6.8920   54.5708 S   0  0  0  0  0  0  0  0  0  0  0  0
   23.9953    8.5012   55.1226 C   0  0  0  0  0  0  0  0  0  0  0  0
   21.6431    5.6023   53.5192 C   0  0  0  0  0  0  0  0  0  0  0  0
   22.2765    4.5575   53.2426 O   0  0  0  0  0  0  0  0  0  0  0  0
   20.2591    5.6762   53.2785 N   0  0  0  0  0  0  0  0  0  0  0  0
   19.7644    6.5864   53.5324 H   0  0  0  0  0  0  0  0  0  0  0  0
   19.4885    4.5866   52.7096 C   0  0  0  0  0  0  0  0  0  0  0  0
   19.2595    3.4528   53.6823 C   0  0  0  0  0  0  0  0  0  0  0  0
   18.2183    3.8584   54.7326 C   0  0  0  0  0  0  0  0  0  0  0  0
   16.8970    3.7958   54.1433 N   0  0  0  0  0  0  0  0  0  0  0  0
   16.2292    2.5966   53.7153 C   0  0  0  0  0  0  0  0  0  0  0  0
   15.0950    3.0935   52.8336 C   0  0  0  0  0  0  0  0  0  0  0  0
   14.7839    4.4854   53.3425 C   0  0  0  0  0  0  0  0  0  0  0  0
   16.0779    4.9311   53.9093 C   0  0  0  0  0  0  0  0  0  0  0  0
   16.3641    6.1361   54.1319 O   0  0  0  0  0  0  0  0  0  0  0  0
   26.2412    8.7797   55.8002 O   0  0  0  0  0  0  0  0  0  0  0  0
   28.8127   10.5761   58.6471 C   0  0  0  0  0  0  0  0  0  0  0  0
   28.4953    9.2036   58.6799 C   0  0  0  0  0  0  0  0  0  0  0  0
   27.6626    8.6455   57.7499 C   0  0  0  0  0  0  0  0  0  0  0  0
   27.0833    9.3724   56.7303 C   0  0  0  0  0  0  0  0  0  0  0  0
   27.3979   10.7113   56.7042 C   0  0  0  0  0  0  0  0  0  0  0  0
   28.2501   11.3098   57.6465 C   0  0  0  0  0  0  0  0  0  0  0  0
   31.2511   11.0612   61.4290 N   0  0  0  0  0  0  0  0  0  0  0  0
   30.4199   10.3606   60.5307 C   0  0  0  0  0  0  0  0  0  0  0  0
   30.3534    9.1201   60.5788 O   0  0  0  0  0  0  0  0  0  0  0  0
   29.6813   11.1044   59.5939 N   0  0  0  0  0  0  0  0  0  0  0  0
   31.2294   12.1187   61.2967 H   0  0  0  0  0  0  0  0  0  0  0  0
   29.7839   12.1651   59.5998 H   0  0  0  0  0  0  0  0  0  0  0  0
   33.0281    7.2928   64.1090 C   0  0  0  0  0  0  0  0  0  0  0  0
   32.9742    8.7526   63.7723 C   0  0  0  0  0  0  0  0  0  0  0  0
   33.7452    9.6338   64.4581 C   0  0  0  0  0  0  0  0  0  0  0  0
   33.6694   10.9672   64.1215 C   0  0  0  0  0  0  0  0  0  0  0  0
   32.8577   11.4438   63.1334 C   0  0  0  0  0  0  0  0  0  0  0  0
   32.8162   12.7706   62.8360 F   0  0  0  0  0  0  0  0  0  0  0  0
   32.0602   10.5096   62.4284 C   0  0  0  0  0  0  0  0  0  0  0  0
   32.1434    9.1948   62.7696 C   0  0  0  0  0  0  0  0  0  0  0  0
 36 37  1  0  0  0
 37 38  2  0  0  0
 38 39  1  0  0  0
 39 40  2  0  0  0
 40 41  1  0  0  0
 40 42  1  0  0  0
 42 30  1  0  0  0
 30 31  1  0  0  0
 31 32  2  0  0  0
 31 33  1  0  0  0
 33 24  1  0  0  0
 24 25  2  0  0  0
 25 26  1  0  0  0
 26 27  2  0  0  0
 27 23  1  0  0  0
 23  1  1  0  0  0
  1  2  2  0  0  0
  2  3  1  0  0  0
  3  4  2  0  0  0
  4  5  1  0  0  0
  5  6  1  0  0  0
  6  7  2  0  0  0
  7  8  1  0  0  0
  8  9  1  0  0  0
  7 10  1  0  0  0
 10 11  2  0  0  0
 10 12  1  0  0  0
 12 14  1  0  0  0
 14 15  1  0  0  0
 15 16  1  0  0  0
 16 17  1  0  0  0
 17 18  1  0  0  0
 18 19  1  0  0  0
 19 20  1  0  0  0
 20 21  1  0  0  0
 21 22  2  0  0  0
 27 28  1  0  0  0
 28 29  2  0  0  0
 42 43  2  0  0  0
 43 37  1  0  0  0
 29 24  1  0  0  0
  9  1  1  0  0  0
 21 17  1  0  0  0
  9  5  2  0  0  0
 30 34  1  0  0  0
 33 35  1  0  0  0
 12 13  1  0  0  0
M  END
> <minimizedAffinity>
20.70666

> <CNNscore>
0.5736107826

> <CNNaffinity>
6.5803670883

> <CNN_VS>
3.7745695114

> <CNNaffinity_variance>
0.0779563040

$$$$
[H]OC(=O)C([H])([H])[C@@]([H])(C(=O)C([H])([H])SC([H])([H])c1c([H])c([H])c([H])c([H])c1[H])N([H])C(=O)[C@@]([H])(N([H])C(=O)[C@@]([H])(N([H])C(=O)OC([H])([H])c1c([H])c([H])c([H])c([H])c1[H])C([H])(C([H])([H])[H])C([H])([H])[H])C([H])([H])[H]


 43 44  0  0  0  0  0  0  0  0999 V2000
   23.8122    9.5998   55.4257 C   0  0  0  0  0  0  0  0  0  0  0  0
   22.8652    9.3584   56.5435 C   0  0  0  0  0  0  0  0  0  0  0  0
   25.1395    8.9528   55.6490 C   0  0  0  0  0  0  0  0  0  0  0  0
   25.3307    7.7790   55.2145 O   0  0  0  0  0  0  0  0  0  0  0  0
   26.1297    9.6813   56.3361 N   0  0  0  0  0  0  0  0  0  0  0  0
   25.9479   10.6196   56.6894 H   0  0  0  0  0  0  0  0  0  0  0  0
   27.4433    9.0459   56.5259 C   0  0  0  0  0  0  0  0  0  0  0  0
   28.1283    9.5843   57.7015 C   0  0  0  0  0  0  0  0  0  0  0  0
   28.3892   10.8135   57.6629 O   0  0  0  0  0  0  0  0  0  0  0  0
   28.5517    8.9138   58.9326 C   0  0  0  0  0  0  0  0  0  0  0  0
   29.4787    9.8125   60.1146 S   0  0  0  0  0  0  0  0  0  0  0  0
   28.6997   10.9963   61.1595 C   0  0  0  0  0  0  0  0  0  0  0  0
   29.3835   12.3201   61.0828 C   0  0  0  0  0  0  0  0  0  0  0  0
   28.6209   13.3927   60.6666 C   0  0  0  0  0  0  0  0  0  0  0  0
   29.1383   14.6526   60.5421 C   0  0  0  0  0  0  0  0  0  0  0  0
   30.4634   14.8476   60.8443 C   0  0  0  0  0  0  0  0  0  0  0  0
   31.2417   13.7929   61.2617 C   0  0  0  0  0  0  0  0  0  0  0  0
   30.7002   12.5085   61.3846 C   0  0  0  0  0  0  0  0  0  0  0  0
   28.2446    9.2128   55.2560 C   0  0  0  0  0  0  0  0  0  0  0  0
   27.9095    8.2588   54.1992 C   0  0  0  0  0  0  0  0  0  0  0  0
   26.9580    8.6835   53.2420 O   0  0  0  0  0  0  0  0  0  0  0  0
   28.3500    7.1177   54.0304 O   0  0  0  0  0  0  0  0  0  0  0  0
   27.2205    9.4484   52.6472 H   0  0  0  0  0  0  0  0  0  0  0  0
   21.9296    8.6120   54.1798 C   0  0  0  0  0  0  0  0  0  0  0  0
   21.3607    8.6320   55.3576 O   0  0  0  0  0  0  0  0  0  0  0  0
   23.2230    9.1234   54.1725 N   0  0  0  0  0  0  0  0  0  0  0  0
   23.8494    9.2304   53.3524 H   0  0  0  0  0  0  0  0  0  0  0  0
   21.1432    8.0761   53.0610 C   0  0  0  0  0  0  0  0  0  0  0  0
   21.1485    9.0464   51.9609 N   0  0  0  0  0  0  0  0  0  0  0  0
   21.2662   10.4484   52.1414 C   0  0  0  0  0  0  0  0  0  0  0  0
   21.3780   10.8972   53.3100 O   0  0  0  0  0  0  0  0  0  0  0  0
   21.0594    8.6993   50.9827 H   0  0  0  0  0  0  0  0  0  0  0  0
   21.2634   11.3518   51.1182 O   0  0  0  0  0  0  0  0  0  0  0  0
   21.9097   12.5671   51.0126 C   0  0  0  0  0  0  0  0  0  0  0  0
   21.1358   13.7640   51.3501 C   0  0  0  0  0  0  0  0  0  0  0  0
   20.3973   13.6925   52.5345 C   0  0  0  0  0  0  0  0  0  0  0  0
   19.6439   14.7588   52.9376 C   0  0  0  0  0  0  0  0  0  0  0  0
   19.6190   15.9051   52.1645 C   0  0  0  0  0  0  0  0  0  0  0  0
   20.3448   15.9634   51.0088 C   0  0  0  0  0  0  0  0  0  0  0  0
   21.1228   14.8804   50.5816 C   0  0  0  0  0  0  0  0  0  0  0  0
   22.6682    6.1504   53.2113 C   0  0  0  0  0  0  0  0  0  0  0  0
   21.4153    6.6974   52.5888 C   0  0  0  0  0  0  0  0  0  0  0  0
   20.2510    5.8317   53.1265 C   0  0  0  0  0  0  0  0  0  0  0  0
 41 42  1  0  0  0
 42 43  1  0  0  0
 42 28  1  0  0  0
 28 29  1  0  0  0
 29 30  1  0  0  0
 30 31  2  0  0  0
 30 33  1  0  0  0
 33 34  1  0  0  0
 34 35  1  0  0  0
 35 36  2  0  0  0
 36 37  1  0  0  0
 37 38  2  0  0  0
 38 39  1  0  0  0
 39 40  2  0  0  0
 28 24  1  0  0  0
 24 25  2  0  0  0
 24 26  1  0  0  0
 26  1  1  0  0  0
  1  2  1  0  0  0
  1  3  1  0  0  0
  3  4  2  0  0  0
  3  5  1  0  0  0
  5  7  1  0  0  0
  7 19  1  0  0  0
 19 20  1  0  0  0
 20 21  1  0  0  0
 20 22  2  0  0  0
  7  8  1  0  0  0
  8  9  2  0  0  0
  8 10  1  0  0  0
 10 11  1  0  0  0
 11 12  1  0  0  0
 12 13  1  0  0  0
 13 14  2  0  0  0
 14 15  1  0  0  0
 15 16  2  0  0  0
 16 17  1  0  0  0
 17 18  2  0  0  0
 40 35  1  0  0  0
 18 13  1  0  0  0
 29 32  1  0  0  0
 26 27  1  0  0  0
  5  6  1  0  0  0
 21 23  1  0  0  0
M  END
> <minimizedAffinity>
8.49590

> <CNNscore>
0.6505912542

> <CNNaffinity>
6.3957023621

> <CNN_VS>
4.1609878540

> <CNNaffinity_variance>
0.3726243675

$$$$
[H]OC(=O)C([H])([H])[C@@]([H])(C(=O)C([H])([H])SC([H])([H])c1c([H])c([H])c([H])c([H])c1[H])N([H])C(=O)[C@@]([H])(N([H])C(=O)[C@@]([H])(N([H])C(=O)OC([H])([H])c1c([H])c([H])c([H])c([H])c1[H])C([H])(C([H])([H])[H])C([H])([H])[H])C([H])([H])[H]


 43 44  0  0  0  0  0  0  0  0999 V2000
   27.0695    8.6501   55.4322 C   0  0  0  0  0  0  0  0  0  0  0  0
   27.8757    8.9890   54.2323 C   0  0  0  0  0  0  0  0  0  0  0  0
   27.8405    8.8009   56.7022 C   0  0  0  0  0  0  0  0  0  0  0  0
   29.0140    8.3298   56.7671 O   0  0  0  0  0  0  0  0  0  0  0  0
   27.2267    9.4672   57.7804 N   0  0  0  0  0  0  0  0  0  0  0  0
   26.2754    9.8254   57.7095 H   0  0  0  0  0  0  0  0  0  0  0  0
   28.0053    9.6357   59.0176 C   0  0  0  0  0  0  0  0  0  0  0  0
   28.7292   10.9073   59.0199 C   0  0  0  0  0  0  0  0  0  0  0  0
   29.9570   10.8342   58.7598 O   0  0  0  0  0  0  0  0  0  0  0  0
   28.2428   12.2661   59.2682 C   0  0  0  0  0  0  0  0  0  0  0  0
   28.3152   12.9114   60.8938 S   0  0  0  0  0  0  0  0  0  0  0  0
   29.8334   13.5019   61.5618 C   0  0  0  0  0  0  0  0  0  0  0  0
   30.1987   14.8292   60.9866 C   0  0  0  0  0  0  0  0  0  0  0  0
   31.5439   15.1315   60.9210 C   0  0  0  0  0  0  0  0  0  0  0  0
   32.0021   16.3222   60.4282 C   0  0  0  0  0  0  0  0  0  0  0  0
   31.0845   17.2424   59.9850 C   0  0  0  0  0  0  0  0  0  0  0  0
   29.7389   16.9617   60.0405 C   0  0  0  0  0  0  0  0  0  0  0  0
   29.2830   15.7398   60.5475 C   0  0  0  0  0  0  0  0  0  0  0  0
   28.9196    8.4432   59.1748 C   0  0  0  0  0  0  0  0  0  0  0  0
   29.6683    8.4161   60.4310 C   0  0  0  0  0  0  0  0  0  0  0  0
   29.1656    9.2161   61.4843 O   0  0  0  0  0  0  0  0  0  0  0  0
   30.6939    7.7824   60.6971 O   0  0  0  0  0  0  0  0  0  0  0  0
   28.2707    8.9623   61.8617 H   0  0  0  0  0  0  0  0  0  0  0  0
   24.6617    8.9665   55.0138 C   0  0  0  0  0  0  0  0  0  0  0  0
   24.7432    7.7273   54.6025 O   0  0  0  0  0  0  0  0  0  0  0  0
   25.8685    9.4874   55.4684 N   0  0  0  0  0  0  0  0  0  0  0  0
   26.0335   10.4327   55.8630 H   0  0  0  0  0  0  0  0  0  0  0  0
   23.3444    9.6127   54.9481 C   0  0  0  0  0  0  0  0  0  0  0  0
   22.7162    9.2946   53.6612 N   0  0  0  0  0  0  0  0  0  0  0  0
   21.9147   10.2040   52.9245 C   0  0  0  0  0  0  0  0  0  0  0  0
   21.7288   11.3562   53.3906 O   0  0  0  0  0  0  0  0  0  0  0  0
   22.8570    8.3468   53.2526 H   0  0  0  0  0  0  0  0  0  0  0  0
   21.3239    9.9054   51.7309 O   0  0  0  0  0  0  0  0  0  0  0  0
   20.8625    8.6951   51.2531 C   0  0  0  0  0  0  0  0  0  0  0  0
   21.0587    7.5231   52.1095 C   0  0  0  0  0  0  0  0  0  0  0  0
   19.8956    6.9674   52.6495 C   0  0  0  0  0  0  0  0  0  0  0  0
   19.9730    5.8701   53.4600 C   0  0  0  0  0  0  0  0  0  0  0  0
   21.2092    5.3171   53.7402 C   0  0  0  0  0  0  0  0  0  0  0  0
   22.3390    5.8690   53.2068 C   0  0  0  0  0  0  0  0  0  0  0  0
   22.2777    6.9928   52.3736 C   0  0  0  0  0  0  0  0  0  0  0  0
   21.2350   10.3772   55.9590 C   0  0  0  0  0  0  0  0  0  0  0  0
   22.4055    9.4441   56.0829 C   0  0  0  0  0  0  0  0  0  0  0  0
   21.8345    8.0125   55.9466 C   0  0  0  0  0  0  0  0  0  0  0  0
 41 42  1  0  0  0
 42 43  1  0  0  0
 42 28  1  0  0  0
 28 29  1  0  0  0
 29 30  1  0  0  0
 30 31  2  0  0  0
 30 33  1  0  0  0
 33 34  1  0  0  0
 34 35  1  0  0  0
 35 36  2  0  0  0
 36 37  1  0  0  0
 37 38  2  0  0  0
 38 39  1  0  0  0
 39 40  2  0  0  0
 28 24  1  0  0  0
 24 25  2  0  0  0
 24 26  1  0  0  0
 26  1  1  0  0  0
  1  2  1  0  0  0
  1  3  1  0  0  0
  3  4  2  0  0  0
  3  5  1  0  0  0
  5  7  1  0  0  0
  7 19  1  0  0  0
 19 20  1  0  0  0
 20 21  1  0  0  0
 20 22  2  0  0  0
  7  8  1  0  0  0
  8  9  2  0  0  0
  8 10  1  0  0  0
 10 11  1  0  0  0
 11 12  1  0  0  0
 12 13  1  0  0  0
 13 14  2  0  0  0
 14 15  1  0  0  0
 15 16  2  0  0  0
 16 17  1  0  0  0
 17 18  2  0  0  0
 40 35  1  0  0  0
 18 13  1  0  0  0
 29 32  1  0  0  0
 26 27  1  0  0  0
  5  6  1  0  0  0
 21 23  1  0  0  0
M  END
> <minimizedAffinity>
5.75914

> <CNNscore>
0.5772914290

> <CNNaffinity>
6.4092497826

> <CNN_VS>
3.7000050545

> <CNNaffinity_variance>
0.6973637342

$$$$
[H]OC(=O)C([H])([H])[C@@]([H])(C(=O)C([H])([H])SC([H])([H])c1c([H])c([H])c([H])c([H])c1[H])N([H])C(=O)[C@@]([H])(N([H])C(=O)[C@@]([H])(N([H])C(=O)OC([H])([H])c1c([H])c([H])c([H])c([H])c1[H])C([H])(C([H])([H])[H])C([H])([H])[H])C([H])([H])[H]


 43 44  0  0  0  0  0  0  0  0999 V2000
   28.5614    9.9106   58.1444 C   0  0  0  0  0  0  0  0  0  0  0  0
   28.3356   11.2333   58.7800 C   0  0  0  0  0  0  0  0  0  0  0  0
   29.2415    8.9444   59.0577 C   0  0  0  0  0  0  0  0  0  0  0  0
   29.3224    7.7284   58.7143 O   0  0  0  0  0  0  0  0  0  0  0  0
   29.7699    9.4304   60.2693 N   0  0  0  0  0  0  0  0  0  0  0  0
   29.6799   10.4110   60.5311 H   0  0  0  0  0  0  0  0  0  0  0  0
   30.4632    8.4760   61.1489 C   0  0  0  0  0  0  0  0  0  0  0  0
   29.5115    7.6205   61.8585 C   0  0  0  0  0  0  0  0  0  0  0  0
   28.3854    8.1314   62.0849 O   0  0  0  0  0  0  0  0  0  0  0  0
   29.6608    6.2459   62.3410 C   0  0  0  0  0  0  0  0  0  0  0  0
   28.2424    5.2265   62.4564 S   0  0  0  0  0  0  0  0  0  0  0  0
   27.7187    4.2533   61.0859 C   0  0  0  0  0  0  0  0  0  0  0  0
   26.4724    3.4969   61.4031 C   0  0  0  0  0  0  0  0  0  0  0  0
   25.2986    3.9694   60.8514 C   0  0  0  0  0  0  0  0  0  0  0  0
   24.0905    3.3709   61.0807 C   0  0  0  0  0  0  0  0  0  0  0  0
   24.0539    2.2614   61.8888 C   0  0  0  0  0  0  0  0  0  0  0  0
   25.2118    1.7729   62.4485 C   0  0  0  0  0  0  0  0  0  0  0  0
   26.4416    2.3949   62.2063 C   0  0  0  0  0  0  0  0  0  0  0  0
   31.3611    9.2514   62.0844 C   0  0  0  0  0  0  0  0  0  0  0  0
   31.6820   10.6048   61.6320 C   0  0  0  0  0  0  0  0  0  0  0  0
   32.0021   10.7544   60.2619 O   0  0  0  0  0  0  0  0  0  0  0  0
   31.7134   11.6460   62.2948 O   0  0  0  0  0  0  0  0  0  0  0  0
   31.2708   10.5670   59.6002 H   0  0  0  0  0  0  0  0  0  0  0  0
   27.0833    9.1343   56.3319 C   0  0  0  0  0  0  0  0  0  0  0  0
   28.1156    9.4399   55.5888 O   0  0  0  0  0  0  0  0  0  0  0  0
   27.2825    9.3605   57.6897 N   0  0  0  0  0  0  0  0  0  0  0  0
   26.6163    9.1668   58.4611 H   0  0  0  0  0  0  0  0  0  0  0  0
   25.8962    8.6027   55.6498 C   0  0  0  0  0  0  0  0  0  0  0  0
   24.9251    9.6856   55.4597 N   0  0  0  0  0  0  0  0  0  0  0  0
   23.5291    9.5434   55.6666 C   0  0  0  0  0  0  0  0  0  0  0  0
   23.0867    8.4279   56.0399 O   0  0  0  0  0  0  0  0  0  0  0  0
   25.2670   10.6205   55.1527 H   0  0  0  0  0  0  0  0  0  0  0  0
   22.6247   10.5490   55.4823 O   0  0  0  0  0  0  0  0  0  0  0  0
   21.5436   10.6173   54.6265 C   0  0  0  0  0  0  0  0  0  0  0  0
   21.3645    9.5053   53.6902 C   0  0  0  0  0  0  0  0  0  0  0  0
   21.0480    8.2729   54.2685 C   0  0  0  0  0  0  0  0  0  0  0  0
   20.8591    7.1739   53.4788 C   0  0  0  0  0  0  0  0  0  0  0  0
   20.9842    7.2926   52.1067 C   0  0  0  0  0  0  0  0  0  0  0  0
   21.2940    8.5021   51.5529 C   0  0  0  0  0  0  0  0  0  0  0  0
   21.4900    9.6385   52.3472 C   0  0  0  0  0  0  0  0  0  0  0  0
   24.7615    7.5410   53.7414 C   0  0  0  0  0  0  0  0  0  0  0  0
   26.0774    7.7950   54.4198 C   0  0  0  0  0  0  0  0  0  0  0  0
   26.8993    8.6805   53.4531 C   0  0  0  0  0  0  0  0  0  0  0  0
 41 42  1  0  0  0
 42 43  1  0  0  0
 42 28  1  0  0  0
 28 29  1  0  0  0
 29 30  1  0  0  0
 30 31  2  0  0  0
 30 33  1  0  0  0
 33 34  1  0  0  0
 34 35  1  0  0  0
 35 36  2  0  0  0
 36 37  1  0  0  0
 37 38  2  0  0  0
 38 39  1  0  0  0
 39 40  2  0  0  0
 28 24  1  0  0  0
 24 25  2  0  0  0
 24 26  1  0  0  0
 26  1  1  0  0  0
  1  2  1  0  0  0
  1  3  1  0  0  0
  3  4  2  0  0  0
  3  5  1  0  0  0
  5  7  1  0  0  0
  7 19  1  0  0  0
 19 20  1  0  0  0
 20 21  1  0  0  0
 20 22  2  0  0  0
  7  8  1  0  0  0
  8  9  2  0  0  0
  8 10  1  0  0  0
 10 11  1  0  0  0
 11 12  1  0  0  0
 12 13  1  0  0  0
 13 14  2  0  0  0
 14 15  1  0  0  0
 15 16  2  0  0  0
 16 17  1  0  0  0
 17 18  2  0  0  0
 40 35  1  0  0  0
 18 13  1  0  0  0
 29 32  1  0  0  0
 26 27  1  0  0  0
  5  6  1  0  0  0
 21 23  1  0  0  0
M  END
> <minimizedAffinity>
1.18841

> <CNNscore>
0.5210340023

> <CNNaffinity>
6.5159339905

> <CNN_VS>
3.3950231075

> <CNNaffinity_variance>
0.6149737835

$$$$
[H]OC(=O)C([H])([H])[C@@]([H])(C(=O)C([H])([H])SC([H])([H])c1c([H])c([H])c([H])c([H])c1[H])N([H])C(=O)[C@@]([H])(N([H])C(=O)[C@@]([H])(N([H])C(=O)OC([H])([H])c1c([H])c([H])c([H])c([H])c1[H])C([H])(C([H])([H])[H])C([H])([H])[H])C([H])([H])[H]


 43 44  0  0  0  0  0  0  0  0999 V2000
   27.6527    8.8810   55.7831 C   0  0  0  0  0  0  0  0  0  0  0  0
   27.9203    9.6994   54.5734 C   0  0  0  0  0  0  0  0  0  0  0  0
   28.2587    9.4658   57.0163 C   0  0  0  0  0  0  0  0  0  0  0  0
   28.5040   10.7075   57.0499 O   0  0  0  0  0  0  0  0  0  0  0  0
   28.5313    8.6061   58.0980 N   0  0  0  0  0  0  0  0  0  0  0  0
   28.3385    7.6071   58.0425 H   0  0  0  0  0  0  0  0  0  0  0  0
   29.1018    9.1970   59.3189 C   0  0  0  0  0  0  0  0  0  0  0  0
   29.5538    8.1612   60.2485 C   0  0  0  0  0  0  0  0  0  0  0  0
   30.2990    8.5555   61.1810 O   0  0  0  0  0  0  0  0  0  0  0  0
   29.2631    6.7262   60.2713 C   0  0  0  0  0  0  0  0  0  0  0  0
   28.3818    6.0586   61.6285 S   0  0  0  0  0  0  0  0  0  0  0  0
   28.5076    4.3493   62.0313 C   0  0  0  0  0  0  0  0  0  0  0  0
   27.1785    3.6756   61.9568 C   0  0  0  0  0  0  0  0  0  0  0  0
   26.1537    4.3825   61.3605 C   0  0  0  0  0  0  0  0  0  0  0  0
   24.8877    3.8776   61.2461 C   0  0  0  0  0  0  0  0  0  0  0  0
   24.6372    2.6229   61.7444 C   0  0  0  0  0  0  0  0  0  0  0  0
   25.6439    1.9005   62.3420 C   0  0  0  0  0  0  0  0  0  0  0  0
   26.9349    2.4287   62.4530 C   0  0  0  0  0  0  0  0  0  0  0  0
   28.0744   10.1212   59.9295 C   0  0  0  0  0  0  0  0  0  0  0  0
   28.5912   11.4370   60.3050 C   0  0  0  0  0  0  0  0  0  0  0  0
   27.7842   12.5513   59.9747 O   0  0  0  0  0  0  0  0  0  0  0  0
   29.6515   11.7082   60.8764 O   0  0  0  0  0  0  0  0  0  0  0  0
   26.8966   12.6241   60.4380 H   0  0  0  0  0  0  0  0  0  0  0  0
   25.4303    8.3280   54.8733 C   0  0  0  0  0  0  0  0  0  0  0  0
   26.1169    8.1220   53.7789 O   0  0  0  0  0  0  0  0  0  0  0  0
   26.2074    8.7220   55.9575 N   0  0  0  0  0  0  0  0  0  0  0  0
   25.8826    8.9125   56.9243 H   0  0  0  0  0  0  0  0  0  0  0  0
   23.9789    8.1126   54.8084 C   0  0  0  0  0  0  0  0  0  0  0  0
   23.3542    9.2480   54.1210 N   0  0  0  0  0  0  0  0  0  0  0  0
   22.4710   10.1646   54.7468 C   0  0  0  0  0  0  0  0  0  0  0  0
   22.2042   10.0070   55.9648 O   0  0  0  0  0  0  0  0  0  0  0  0
   23.5613    9.4015   53.1117 H   0  0  0  0  0  0  0  0  0  0  0  0
   21.8838   11.2166   54.1053 O   0  0  0  0  0  0  0  0  0  0  0  0
   21.6024   11.3864   52.7644 C   0  0  0  0  0  0  0  0  0  0  0  0
   21.1647   12.7181   52.3397 C   0  0  0  0  0  0  0  0  0  0  0  0
   21.7822   13.2195   51.1905 C   0  0  0  0  0  0  0  0  0  0  0  0
   21.4410   14.4531   50.7122 C   0  0  0  0  0  0  0  0  0  0  0  0
   20.4823   15.1981   51.3743 C   0  0  0  0  0  0  0  0  0  0  0  0
   19.8857   14.6977   52.4965 C   0  0  0  0  0  0  0  0  0  0  0  0
   20.2229   13.4352   52.9997 C   0  0  0  0  0  0  0  0  0  0  0  0
   24.4247    5.6987   54.6327 C   0  0  0  0  0  0  0  0  0  0  0  0
   23.4685    6.8120   54.3126 C   0  0  0  0  0  0  0  0  0  0  0  0
   22.1838    6.5270   55.1265 C   0  0  0  0  0  0  0  0  0  0  0  0
 41 42  1  0  0  0
 42 43  1  0  0  0
 42 28  1  0  0  0
 28 29  1  0  0  0
 29 30  1  0  0  0
 30 31  2  0  0  0
 30 33  1  0  0  0
 33 34  1  0  0  0
 34 35  1  0  0  0
 35 36  2  0  0  0
 36 37  1  0  0  0
 37 38  2  0  0  0
 38 39  1  0  0  0
 39 40  2  0  0  0
 28 24  1  0  0  0
 24 25  2  0  0  0
 24 26  1  0  0  0
 26  1  1  0  0  0
  1  2  1  0  0  0
  1  3  1  0  0  0
  3  4  2  0  0  0
  3  5  1  0  0  0
  5  7  1  0  0  0
  7 19  1  0  0  0
 19 20  1  0  0  0
 20 21  1  0  0  0
 20 22  2  0  0  0
  7  8  1  0  0  0
  8  9  2  0  0  0
  8 10  1  0  0  0
 10 11  1  0  0  0
 11 12  1  0  0  0
 12 13  1  0  0  0
 13 14  2  0  0  0
 14 15  1  0  0  0
 15 16  2  0  0  0
 16 17  1  0  0  0
 17 18  2  0  0  0
 40 35  1  0  0  0
 18 13  1  0  0  0
 29 32  1  0  0  0
 26 27  1  0  0  0
  5  6  1  0  0  0
 21 23  1  0  0  0
M  END
> <minimizedAffinity>
12.11948

> <CNNscore>
0.5206298232

> <CNNaffinity>
6.2070150375

> <CNN_VS>
3.2315571308

> <CNNaffinity_variance>
0.3201489449

$$$$
[H]OC(=O)C([H])([H])[C@@]([H])(C(=O)C([H])([H])SC([H])([H])c1c([H])c([H])c([H])c([H])c1[H])N([H])C(=O)[C@@]([H])(N([H])C(=O)[C@@]([H])(N([H])C(=O)OC([H])([H])c1c([H])c([H])c([H])c([H])c1[H])C([H])(C([H])([H])[H])C([H])([H])[H])C([H])([H])[H]


 43 44  0  0  0  0  0  0  0  0999 V2000
   26.9172    8.2158   54.4462 C   0  0  0  0  0  0  0  0  0  0  0  0
   27.2183    8.5839   53.0396 C   0  0  0  0  0  0  0  0  0  0  0  0
   27.8723    8.8296   55.4163 C   0  0  0  0  0  0  0  0  0  0  0  0
   29.0916    8.9371   55.0924 O   0  0  0  0  0  0  0  0  0  0  0  0
   27.3727    9.2682   56.6578 N   0  0  0  0  0  0  0  0  0  0  0  0
   26.3896    9.1580   56.9022 H   0  0  0  0  0  0  0  0  0  0  0  0
   28.3164    9.8976   57.5952 C   0  0  0  0  0  0  0  0  0  0  0  0
   28.4472    9.1129   58.8233 C   0  0  0  0  0  0  0  0  0  0  0  0
   27.6508    8.1470   58.9385 O   0  0  0  0  0  0  0  0  0  0  0  0
   29.3759    9.2691   59.9448 C   0  0  0  0  0  0  0  0  0  0  0  0
   29.0386   10.4769   61.1661 S   0  0  0  0  0  0  0  0  0  0  0  0
   30.3474   11.3597   61.9457 C   0  0  0  0  0  0  0  0  0  0  0  0
   30.3973   12.7767   61.4814 C   0  0  0  0  0  0  0  0  0  0  0  0
   31.6490   13.3298   61.3002 C   0  0  0  0  0  0  0  0  0  0  0  0
   31.8241   14.6233   60.8920 C   0  0  0  0  0  0  0  0  0  0  0  0
   30.7101   15.3906   60.6562 C   0  0  0  0  0  0  0  0  0  0  0  0
   29.4530   14.8594   60.8296 C   0  0  0  0  0  0  0  0  0  0  0  0
   29.2875   13.5345   61.2481 C   0  0  0  0  0  0  0  0  0  0  0  0
   27.8616   11.3150   57.8538 C   0  0  0  0  0  0  0  0  0  0  0  0
   28.0955   12.2377   56.7434 C   0  0  0  0  0  0  0  0  0  0  0  0
   27.2945   13.4035   56.7103 O   0  0  0  0  0  0  0  0  0  0  0  0
   28.9070   12.1324   55.8188 O   0  0  0  0  0  0  0  0  0  0  0  0
   27.4204   14.0640   57.4558 H   0  0  0  0  0  0  0  0  0  0  0  0
   24.4845    7.9546   54.1530 C   0  0  0  0  0  0  0  0  0  0  0  0
   24.8565    7.0128   53.3248 O   0  0  0  0  0  0  0  0  0  0  0  0
   25.5445    8.6081   54.7725 N   0  0  0  0  0  0  0  0  0  0  0  0
   25.4861    9.3635   55.4813 H   0  0  0  0  0  0  0  0  0  0  0  0
   23.0419    8.1780   54.3147 C   0  0  0  0  0  0  0  0  0  0  0  0
   22.5952    9.1694   53.3301 N   0  0  0  0  0  0  0  0  0  0  0  0
   21.6372   10.1797   53.6013 C   0  0  0  0  0  0  0  0  0  0  0  0
   21.1377   10.2415   54.7530 O   0  0  0  0  0  0  0  0  0  0  0  0
   22.9960    9.1407   52.3690 H   0  0  0  0  0  0  0  0  0  0  0  0
   21.2160   11.0973   52.6829 O   0  0  0  0  0  0  0  0  0  0  0  0
   21.8934   12.1640   52.1270 C   0  0  0  0  0  0  0  0  0  0  0  0
   21.1611   13.4266   52.0046 C   0  0  0  0  0  0  0  0  0  0  0  0
   21.4547   14.1884   50.8702 C   0  0  0  0  0  0  0  0  0  0  0  0
   20.8224   15.3820   50.6639 C   0  0  0  0  0  0  0  0  0  0  0  0
   19.8927   15.8274   51.5857 C   0  0  0  0  0  0  0  0  0  0  0  0
   19.6140   15.0745   52.6907 C   0  0  0  0  0  0  0  0  0  0  0  0
   20.2520   13.8487   52.9170 C   0  0  0  0  0  0  0  0  0  0  0  0
   22.5628    5.9441   53.4002 C   0  0  0  0  0  0  0  0  0  0  0  0
   22.1368    7.0053   54.3742 C   0  0  0  0  0  0  0  0  0  0  0  0
   22.3265    6.3994   55.7852 C   0  0  0  0  0  0  0  0  0  0  0  0
 41 42  1  0  0  0
 42 43  1  0  0  0
 42 28  1  0  0  0
 28 29  1  0  0  0
 29 30  1  0  0  0
 30 31  2  0  0  0
 30 33  1  0  0  0
 33 34  1  0  0  0
 34 35  1  0  0  0
 35 36  2  0  0  0
 36 37  1  0  0  0
 37 38  2  0  0  0
 38 39  1  0  0  0
 39 40  2  0  0  0
 28 24  1  0  0  0
 24 25  2  0  0  0
 24 26  1  0  0  0
 26  1  1  0  0  0
  1  2  1  0  0  0
  1  3  1  0  0  0
  3  4  2  0  0  0
  3  5  1  0  0  0
  5  7  1  0  0  0
  7 19  1  0  0  0
 19 20  1  0  0  0
 20 21  1  0  0  0
 20 22  2  0  0  0
  7  8  1  0  0  0
  8  9  2  0  0  0
  8 10  1  0  0  0
 10 11  1  0  0  0
 11 12  1  0  0  0
 12 13  1  0  0  0
 13 14  2  0  0  0
 14 15  1  0  0  0
 15 16  2  0  0  0
 16 17  1  0  0  0
 17 18  2  0  0  0
 40 35  1  0  0  0
 18 13  1  0  0  0
 29 32  1  0  0  0
 26 27  1  0  0  0
  5  6  1  0  0  0
 21 23  1  0  0  0
M  END
> <minimizedAffinity>
10.67546

> <CNNscore>
0.5003743768

> <CNNaffinity>
6.0580525398

> <CNN_VS>
3.0312943459

> <CNNaffinity_variance>
0.5177272558

$$$$
[H]OC(=O)C([H])([H])[C@@]([H])(C(=O)C([H])([H])SC([H])([H])c1c([H])c([H])c([H])c([H])c1[H])N([H])C(=O)[C@@]([H])(N([H])C(=O)[C@@]([H])(N([H])C(=O)OC([H])([H])c1c([H])c([H])c([H])c([H])c1[H])C([H])(C([H])([H])[H])C([H])([H])[H])C([H])([H])[H]


 43 44  0  0  0  0  0  0  0  0999 V2000
   27.6420    8.5970   55.7403 C   0  0  0  0  0  0  0  0  0  0  0  0
   28.1016    9.5000   54.6549 C   0  0  0  0  0  0  0  0  0  0  0  0
   28.3561    8.8403   57.0292 C   0  0  0  0  0  0  0  0  0  0  0  0
   29.6222    8.8368   57.0393 O   0  0  0  0  0  0  0  0  0  0  0  0
   27.5859    9.0673   58.1862 N   0  0  0  0  0  0  0  0  0  0  0  0
   26.5675    9.0510   58.1564 H   0  0  0  0  0  0  0  0  0  0  0  0
   28.2989    9.3343   59.4454 C   0  0  0  0  0  0  0  0  0  0  0  0
   28.4839   10.7704   59.6561 C   0  0  0  0  0  0  0  0  0  0  0  0
   28.9304   11.4112   58.6710 O   0  0  0  0  0  0  0  0  0  0  0  0
   28.2176   11.5892   60.8407 C   0  0  0  0  0  0  0  0  0  0  0  0
   29.5674   12.2091   61.7669 S   0  0  0  0  0  0  0  0  0  0  0  0
   30.6382   13.4321   61.0903 C   0  0  0  0  0  0  0  0  0  0  0  0
   29.9259   14.7287   60.8963 C   0  0  0  0  0  0  0  0  0  0  0  0
   30.5208   15.6472   60.0550 C   0  0  0  0  0  0  0  0  0  0  0  0
   29.9722   16.8757   59.8095 C   0  0  0  0  0  0  0  0  0  0  0  0
   28.7880   17.1974   60.4254 C   0  0  0  0  0  0  0  0  0  0  0  0
   28.1773   16.2968   61.2672 C   0  0  0  0  0  0  0  0  0  0  0  0
   28.7493   15.0431   61.5104 C   0  0  0  0  0  0  0  0  0  0  0  0
   29.6044    8.5740   59.4275 C   0  0  0  0  0  0  0  0  0  0  0  0
   29.8469    7.7599   60.6182 C   0  0  0  0  0  0  0  0  0  0  0  0
   30.7470    8.2886   61.5733 O   0  0  0  0  0  0  0  0  0  0  0  0
   29.3667    6.6587   60.9031 O   0  0  0  0  0  0  0  0  0  0  0  0
   30.4677    9.1289   62.0461 H   0  0  0  0  0  0  0  0  0  0  0  0
   25.3267    8.0160   55.1288 C   0  0  0  0  0  0  0  0  0  0  0  0
   25.9293    7.2275   54.2766 O   0  0  0  0  0  0  0  0  0  0  0  0
   26.1976    8.7503   55.9269 N   0  0  0  0  0  0  0  0  0  0  0  0
   25.9449    9.4132   56.6840 H   0  0  0  0  0  0  0  0  0  0  0  0
   23.8579    8.0097   55.1298 C   0  0  0  0  0  0  0  0  0  0  0  0
   23.3714    9.1334   54.3221 N   0  0  0  0  0  0  0  0  0  0  0  0
   22.5051   10.1444   54.8113 C   0  0  0  0  0  0  0  0  0  0  0  0
   22.1290   10.0866   56.0091 O   0  0  0  0  0  0  0  0  0  0  0  0
   23.6707    9.2050   53.3268 H   0  0  0  0  0  0  0  0  0  0  0  0
   22.0463   11.1857   54.0575 O   0  0  0  0  0  0  0  0  0  0  0  0
   21.5172   11.1859   52.7823 C   0  0  0  0  0  0  0  0  0  0  0  0
   21.2568    9.8813   52.1696 C   0  0  0  0  0  0  0  0  0  0  0  0
   20.1597    9.8274   51.3054 C   0  0  0  0  0  0  0  0  0  0  0  0
   19.8353    8.6553   50.6824 C   0  0  0  0  0  0  0  0  0  0  0  0
   20.6002    7.5270   50.9149 C   0  0  0  0  0  0  0  0  0  0  0  0
   21.6701    7.5917   51.7616 C   0  0  0  0  0  0  0  0  0  0  0  0
   22.0170    8.7847   52.4075 C   0  0  0  0  0  0  0  0  0  0  0  0
   24.0965    5.5854   54.7801 C   0  0  0  0  0  0  0  0  0  0  0  0
   23.1460    6.7481   54.8148 C   0  0  0  0  0  0  0  0  0  0  0  0
   22.1939    6.4937   56.0076 C   0  0  0  0  0  0  0  0  0  0  0  0
 41 42  1  0  0  0
 42 43  1  0  0  0
 42 28  1  0  0  0
 28 29  1  0  0  0
 29 30  1  0  0  0
 30 31  2  0  0  0
 30 33  1  0  0  0
 33 34  1  0  0  0
 34 35  1  0  0  0
 35 36  2  0  0  0
 36 37  1  0  0  0
 37 38  2  0  0  0
 38 39  1  0  0  0
 39 40  2  0  0  0
 28 24  1  0  0  0
 24 25  2  0  0  0
 24 26  1  0  0  0
 26  1  1  0  0  0
  1  2  1  0  0  0
  1  3  1  0  0  0
  3  4  2  0  0  0
  3  5  1  0  0  0
  5  7  1  0  0  0
  7 19  1  0  0  0
 19 20  1  0  0  0
 20 21  1  0  0  0
 20 22  2  0  0  0
  7  8  1  0  0  0
  8  9  2  0  0  0
  8 10  1  0  0  0
 10 11  1  0  0  0
 11 12  1  0  0  0
 12 13  1  0  0  0
 13 14  2  0  0  0
 14 15  1  0  0  0
 15 16  2  0  0  0
 16 17  1  0  0  0
 17 18  2  0  0  0
 40 35  1  0  0  0
 18 13  1  0  0  0
 29 32  1  0  0  0
 26 27  1  0  0  0
  5  6  1  0  0  0
 21 23  1  0  0  0
M  END
> <minimizedAffinity>
10.63940

> <CNNscore>
0.4955994189

> <CNNaffinity>
6.4273581505

> <CNN_VS>
3.1853950024

> <CNNaffinity_variance>
0.6255532503

$$$$
[H]OC(=O)C([H])([H])[C@@]([H])(C(=O)C([H])([H])SC([H])([H])c1c([H])c([H])c([H])c([H])c1[H])N([H])C(=O)[C@@]([H])(N([H])C(=O)[C@@]([H])(N([H])C(=O)OC([H])([H])c1c([H])c([H])c([H])c([H])c1[H])C([H])(C([H])([H])[H])C([H])([H])[H])C([H])([H])[H]


 43 44  0  0  0  0  0  0  0  0999 V2000
   28.1834   10.0038   57.2946 C   0  0  0  0  0  0  0  0  0  0  0  0
   28.2757   11.4578   57.0083 C   0  0  0  0  0  0  0  0  0  0  0  0
   28.5366    9.6743   58.7077 C   0  0  0  0  0  0  0  0  0  0  0  0
   28.0418    8.6362   59.2376 O   0  0  0  0  0  0  0  0  0  0  0  0
   29.4126   10.5366   59.3949 N   0  0  0  0  0  0  0  0  0  0  0  0
   29.7870   11.3745   58.9522 H   0  0  0  0  0  0  0  0  0  0  0  0
   29.7769   10.1876   60.7773 C   0  0  0  0  0  0  0  0  0  0  0  0
   29.7526   11.3651   61.6457 C   0  0  0  0  0  0  0  0  0  0  0  0
   30.8418   11.9835   61.7534 O   0  0  0  0  0  0  0  0  0  0  0  0
   28.6467   11.9493   62.4073 C   0  0  0  0  0  0  0  0  0  0  0  0
   28.3019   13.6566   62.2318 S   0  0  0  0  0  0  0  0  0  0  0  0
   28.4302   14.4448   60.6627 C   0  0  0  0  0  0  0  0  0  0  0  0
   29.5676   15.4100   60.6324 C   0  0  0  0  0  0  0  0  0  0  0  0
   29.6375   16.2575   59.5451 C   0  0  0  0  0  0  0  0  0  0  0  0
   30.6409   17.1749   59.3971 C   0  0  0  0  0  0  0  0  0  0  0  0
   31.6077   17.2485   60.3693 C   0  0  0  0  0  0  0  0  0  0  0  0
   31.5571   16.4140   61.4618 C   0  0  0  0  0  0  0  0  0  0  0  0
   30.5252   15.4792   61.6012 C   0  0  0  0  0  0  0  0  0  0  0  0
   31.1235    9.5029   60.7599 C   0  0  0  0  0  0  0  0  0  0  0  0
   31.0788    8.0721   61.0600 C   0  0  0  0  0  0  0  0  0  0  0  0
   32.0035    7.5980   62.0203 O   0  0  0  0  0  0  0  0  0  0  0  0
   30.3343    7.2123   60.5795 O   0  0  0  0  0  0  0  0  0  0  0  0
   31.8940    7.9308   62.9611 H   0  0  0  0  0  0  0  0  0  0  0  0
   26.6021    8.8578   55.7916 C   0  0  0  0  0  0  0  0  0  0  0  0
   27.6727    8.7107   55.0544 O   0  0  0  0  0  0  0  0  0  0  0  0
   26.8325    9.5287   56.9881 N   0  0  0  0  0  0  0  0  0  0  0  0
   26.1414    9.7329   57.7345 H   0  0  0  0  0  0  0  0  0  0  0  0
   25.3453    8.3029   55.2724 C   0  0  0  0  0  0  0  0  0  0  0  0
   24.3691    9.3867   55.1162 N   0  0  0  0  0  0  0  0  0  0  0  0
   23.0815    9.3852   55.7112 C   0  0  0  0  0  0  0  0  0  0  0  0
   22.7480    8.4033   56.4212 O   0  0  0  0  0  0  0  0  0  0  0  0
   24.6225   10.2128   54.5344 H   0  0  0  0  0  0  0  0  0  0  0  0
   22.1704   10.3901   55.5596 O   0  0  0  0  0  0  0  0  0  0  0  0
   21.3886   10.7149   54.4691 C   0  0  0  0  0  0  0  0  0  0  0  0
   21.1886    9.6728   53.4594 C   0  0  0  0  0  0  0  0  0  0  0  0
   20.8100    8.4201   53.9501 C   0  0  0  0  0  0  0  0  0  0  0  0
   20.5971    7.3822   53.0874 C   0  0  0  0  0  0  0  0  0  0  0  0
   20.7598    7.5825   51.7288 C   0  0  0  0  0  0  0  0  0  0  0  0
   21.1302    8.8111   51.2608 C   0  0  0  0  0  0  0  0  0  0  0  0
   21.3516    9.8858   52.1308 C   0  0  0  0  0  0  0  0  0  0  0  0
   24.3024    6.3820   54.1415 C   0  0  0  0  0  0  0  0  0  0  0  0
   25.3892    7.4174   54.0842 C   0  0  0  0  0  0  0  0  0  0  0  0
   25.0613    8.3229   52.8731 C   0  0  0  0  0  0  0  0  0  0  0  0
 41 42  1  0  0  0
 42 43  1  0  0  0
 42 28  1  0  0  0
 28 29  1  0  0  0
 29 30  1  0  0  0
 30 31  2  0  0  0
 30 33  1  0  0  0
 33 34  1  0  0  0
 34 35  1  0  0  0
 35 36  2  0  0  0
 36 37  1  0  0  0
 37 38  2  0  0  0
 38 39  1  0  0  0
 39 40  2  0  0  0
 28 24  1  0  0  0
 24 25  2  0  0  0
 24 26  1  0  0  0
 26  1  1  0  0  0
  1  2  1  0  0  0
  1  3  1  0  0  0
  3  4  2  0  0  0
  3  5  1  0  0  0
  5  7  1  0  0  0
  7 19  1  0  0  0
 19 20  1  0  0  0
 20 21  1  0  0  0
 20 22  2  0  0  0
  7  8  1  0  0  0
  8  9  2  0  0  0
  8 10  1  0  0  0
 10 11  1  0  0  0
 11 12  1  0  0  0
 12 13  1  0  0  0
 13 14  2  0  0  0
 14 15  1  0  0  0
 15 16  2  0  0  0
 16 17  1  0  0  0
 17 18  2  0  0  0
 40 35  1  0  0  0
 18 13  1  0  0  0
 29 32  1  0  0  0
 26 27  1  0  0  0
  5  6  1  0  0  0
 21 23  1  0  0  0
M  END
> <minimizedAffinity>
-0.17168

> <CNNscore>
0.4881663322

> <CNNaffinity>
6.5097656250

> <CNN_VS>
3.1778483391

> <CNNaffinity_variance>
0.5843812823

$$$$
[H]OC(=O)C([H])([H])[C@@]([H])(C(=O)C([H])([H])SC([H])([H])c1c([H])c([H])c([H])c([H])c1[H])N([H])C(=O)[C@@]([H])(N([H])C(=O)[C@@]([H])(N([H])C(=O)OC([H])([H])c1c([H])c([H])c([H])c([H])c1[H])C([H])(C([H])([H])[H])C([H])([H])[H])C([H])([H])[H]


 43 44  0  0  0  0  0  0  0  0999 V2000
   26.9111    8.1903   54.6600 C   0  0  0  0  0  0  0  0  0  0  0  0
   27.5373    8.4530   53.3395 C   0  0  0  0  0  0  0  0  0  0  0  0
   27.7027    8.7567   55.7925 C   0  0  0  0  0  0  0  0  0  0  0  0
   28.9266    9.0259   55.6114 O   0  0  0  0  0  0  0  0  0  0  0  0
   27.0496    8.9710   57.0217 N   0  0  0  0  0  0  0  0  0  0  0  0
   26.0669    8.7330   57.1481 H   0  0  0  0  0  0  0  0  0  0  0  0
   27.8311    9.5560   58.1227 C   0  0  0  0  0  0  0  0  0  0  0  0
   28.0936   10.9767   57.8907 C   0  0  0  0  0  0  0  0  0  0  0  0
   29.0215   11.2329   57.0821 O   0  0  0  0  0  0  0  0  0  0  0  0
   27.4324   12.1586   58.4478 C   0  0  0  0  0  0  0  0  0  0  0  0
   27.4573   12.4095   60.1801 S   0  0  0  0  0  0  0  0  0  0  0  0
   28.8491   11.9205   61.1412 C   0  0  0  0  0  0  0  0  0  0  0  0
   29.8720   13.0048   61.2044 C   0  0  0  0  0  0  0  0  0  0  0  0
   31.0010   12.7539   61.9579 C   0  0  0  0  0  0  0  0  0  0  0  0
   32.0015   13.6748   62.1041 C   0  0  0  0  0  0  0  0  0  0  0  0
   31.8697   14.8882   61.4753 C   0  0  0  0  0  0  0  0  0  0  0  0
   30.7532   15.1593   60.7187 C   0  0  0  0  0  0  0  0  0  0  0  0
   29.7363   14.2085   60.5774 C   0  0  0  0  0  0  0  0  0  0  0  0
   29.0968    8.7489   58.2938 C   0  0  0  0  0  0  0  0  0  0  0  0
   29.2538    8.1426   59.6156 C   0  0  0  0  0  0  0  0  0  0  0  0
   29.9183    8.9201   60.5933 O   0  0  0  0  0  0  0  0  0  0  0  0
   28.8813    7.0285   59.9956 O   0  0  0  0  0  0  0  0  0  0  0  0
   29.4627    9.7635   60.8913 H   0  0  0  0  0  0  0  0  0  0  0  0
   24.4958    7.9353   54.2433 C   0  0  0  0  0  0  0  0  0  0  0  0
   24.8587    6.7341   53.8736 O   0  0  0  0  0  0  0  0  0  0  0  0
   25.5508    8.7327   54.6740 N   0  0  0  0  0  0  0  0  0  0  0  0
   25.4949    9.7036   55.0357 H   0  0  0  0  0  0  0  0  0  0  0  0
   23.0660    8.2617   54.1625 C   0  0  0  0  0  0  0  0  0  0  0  0
   22.3044    7.0312   53.9222 N   0  0  0  0  0  0  0  0  0  0  0  0
   21.1504    6.9614   53.1005 C   0  0  0  0  0  0  0  0  0  0  0  0
   20.7498    8.0101   52.5353 O   0  0  0  0  0  0  0  0  0  0  0  0
   22.6175    6.1481   54.3775 H   0  0  0  0  0  0  0  0  0  0  0  0
   20.4373    5.8181   52.8830 O   0  0  0  0  0  0  0  0  0  0  0  0
   20.1828    4.7617   53.7345 C   0  0  0  0  0  0  0  0  0  0  0  0
   18.9346    4.0243   53.5257 C   0  0  0  0  0  0  0  0  0  0  0  0
   17.8575    4.4205   54.3234 C   0  0  0  0  0  0  0  0  0  0  0  0
   16.6487    3.7951   54.2022 C   0  0  0  0  0  0  0  0  0  0  0  0
   16.5022    2.7696   53.2862 C   0  0  0  0  0  0  0  0  0  0  0  0
   17.5619    2.3909   52.5121 C   0  0  0  0  0  0  0  0  0  0  0  0
   18.8072    3.0216   52.6227 C   0  0  0  0  0  0  0  0  0  0  0  0
   21.7151   10.2608   54.6470 C   0  0  0  0  0  0  0  0  0  0  0  0
   22.4589    9.0930   55.2294 C   0  0  0  0  0  0  0  0  0  0  0  0
   21.3953    8.1962   55.9066 C   0  0  0  0  0  0  0  0  0  0  0  0
 41 42  1  0  0  0
 42 43  1  0  0  0
 42 28  1  0  0  0
 28 29  1  0  0  0
 29 30  1  0  0  0
 30 31  2  0  0  0
 30 33  1  0  0  0
 33 34  1  0  0  0
 34 35  1  0  0  0
 35 36  2  0  0  0
 36 37  1  0  0  0
 37 38  2  0  0  0
 38 39  1  0  0  0
 39 40  2  0  0  0
 28 24  1  0  0  0
 24 25  2  0  0  0
 24 26  1  0  0  0
 26  1  1  0  0  0
  1  2  1  0  0  0
  1  3  1  0  0  0
  3  4  2  0  0  0
  3  5  1  0  0  0
  5  7  1  0  0  0
  7 19  1  0  0  0
 19 20  1  0  0  0
 20 21  1  0  0  0
 20 22  2  0  0  0
  7  8  1  0  0  0
  8  9  2  0  0  0
  8 10  1  0  0  0
 10 11  1  0  0  0
 11 12  1  0  0  0
 12 13  1  0  0  0
 13 14  2  0  0  0
 14 15  1  0  0  0
 15 16  2  0  0  0
 16 17  1  0  0  0
 17 18  2  0  0  0
 40 35  1  0  0  0
 18 13  1  0  0  0
 29 32  1  0  0  0
 26 27  1  0  0  0
  5  6  1  0  0  0
 21 23  1  0  0  0
M  END
> <minimizedAffinity>
13.11104

> <CNNscore>
0.4875674844

> <CNNaffinity>
6.2762932777

> <CNN_VS>
3.0601165295

> <CNNaffinity_variance>
0.3648973703

$$$$
[H]OC(=O)C([H])([H])[C@@]([H])(C(=O)C([H])([H])SC([H])([H])c1c([H])c([H])c([H])c([H])c1[H])N([H])C(=O)[C@@]([H])(N([H])C(=O)[C@@]([H])(N([H])C(=O)OC([H])([H])c1c([H])c([H])c([H])c([H])c1[H])C([H])(C([H])([H])[H])C([H])([H])[H])C([H])([H])[H]


 43 44  0  0  0  0  0  0  0  0999 V2000
   24.4111    6.8888   54.2053 C   0  0  0  0  0  0  0  0  0  0  0  0
   23.8644    5.7630   55.0044 C   0  0  0  0  0  0  0  0  0  0  0  0
   23.3428    7.7892   53.6779 C   0  0  0  0  0  0  0  0  0  0  0  0
   23.6084    8.5495   52.7009 O   0  0  0  0  0  0  0  0  0  0  0  0
   22.0760    7.7526   54.2921 N   0  0  0  0  0  0  0  0  0  0  0  0
   21.8899    7.1426   55.0868 H   0  0  0  0  0  0  0  0  0  0  0  0
   21.0221    8.6228   53.7467 C   0  0  0  0  0  0  0  0  0  0  0  0
   20.8930    8.4562   52.2987 C   0  0  0  0  0  0  0  0  0  0  0  0
   20.2855    7.4219   51.9227 O   0  0  0  0  0  0  0  0  0  0  0  0
   21.3538    9.3180   51.2081 C   0  0  0  0  0  0  0  0  0  0  0  0
   20.8166   10.9832   51.1552 S   0  0  0  0  0  0  0  0  0  0  0  0
   21.8944   12.2929   51.6275 C   0  0  0  0  0  0  0  0  0  0  0  0
   21.1649   13.5916   51.7113 C   0  0  0  0  0  0  0  0  0  0  0  0
   21.4721   14.5421   50.7587 C   0  0  0  0  0  0  0  0  0  0  0  0
   20.8815   15.7755   50.7400 C   0  0  0  0  0  0  0  0  0  0  0  0
   19.9514   16.0693   51.7064 C   0  0  0  0  0  0  0  0  0  0  0  0
   19.6295   15.1367   52.6651 C   0  0  0  0  0  0  0  0  0  0  0  0
   20.2414   13.8783   52.6733 C   0  0  0  0  0  0  0  0  0  0  0  0
   21.3235   10.0485   54.1457 C   0  0  0  0  0  0  0  0  0  0  0  0
   21.8460   10.1994   55.5035 C   0  0  0  0  0  0  0  0  0  0  0  0
   20.9634   10.7487   56.4634 O   0  0  0  0  0  0  0  0  0  0  0  0
   22.9686    9.9099   55.9280 O   0  0  0  0  0  0  0  0  0  0  0  0
   20.1507   10.2077   56.6970 H   0  0  0  0  0  0  0  0  0  0  0  0
   26.4173    8.3068   54.3975 C   0  0  0  0  0  0  0  0  0  0  0  0
   26.4328    8.1676   53.0969 O   0  0  0  0  0  0  0  0  0  0  0  0
   25.3588    7.6529   55.0193 N   0  0  0  0  0  0  0  0  0  0  0  0
   25.1338    7.6483   56.0322 H   0  0  0  0  0  0  0  0  0  0  0  0
   27.4832    9.1173   55.0010 C   0  0  0  0  0  0  0  0  0  0  0  0
   27.6536    8.7211   56.4031 N   0  0  0  0  0  0  0  0  0  0  0  0
   27.9404    9.6297   57.4539 C   0  0  0  0  0  0  0  0  0  0  0  0
   28.0528   10.8510   57.1795 O   0  0  0  0  0  0  0  0  0  0  0  0
   27.5630    7.7148   56.6567 H   0  0  0  0  0  0  0  0  0  0  0  0
   28.1065    9.2601   58.7573 O   0  0  0  0  0  0  0  0  0  0  0  0
   29.0328    9.6918   59.6855 C   0  0  0  0  0  0  0  0  0  0  0  0
   28.6736   10.8622   60.4895 C   0  0  0  0  0  0  0  0  0  0  0  0
   28.9604   12.1027   59.9133 C   0  0  0  0  0  0  0  0  0  0  0  0
   28.6611   13.2551   60.5837 C   0  0  0  0  0  0  0  0  0  0  0  0
   28.0742   13.1821   61.8337 C   0  0  0  0  0  0  0  0  0  0  0  0
   27.7986   11.9640   62.3869 C   0  0  0  0  0  0  0  0  0  0  0  0
   28.0978   10.7734   61.7134 C   0  0  0  0  0  0  0  0  0  0  0  0
   29.4557   10.5383   54.6187 C   0  0  0  0  0  0  0  0  0  0  0  0
   28.7810    9.2361   54.2942 C   0  0  0  0  0  0  0  0  0  0  0  0
   29.6821    8.1234   54.8807 C   0  0  0  0  0  0  0  0  0  0  0  0
 41 42  1  0  0  0
 42 43  1  0  0  0
 42 28  1  0  0  0
 28 29  1  0  0  0
 29 30  1  0  0  0
 30 31  2  0  0  0
 30 33  1  0  0  0
 33 34  1  0  0  0
 34 35  1  0  0  0
 35 36  2  0  0  0
 36 37  1  0  0  0
 37 38  2  0  0  0
 38 39  1  0  0  0
 39 40  2  0  0  0
 28 24  1  0  0  0
 24 25  2  0  0  0
 24 26  1  0  0  0
 26  1  1  0  0  0
  1  2  1  0  0  0
  1  3  1  0  0  0
  3  4  2  0  0  0
  3  5  1  0  0  0
  5  7  1  0  0  0
  7 19  1  0  0  0
 19 20  1  0  0  0
 20 21  1  0  0  0
 20 22  2  0  0  0
  7  8  1  0  0  0
  8  9  2  0  0  0
  8 10  1  0  0  0
 10 11  1  0  0  0
 11 12  1  0  0  0
 12 13  1  0  0  0
 13 14  2  0  0  0
 14 15  1  0  0  0
 15 16  2  0  0  0
 16 17  1  0  0  0
 17 18  2  0  0  0
 40 35  1  0  0  0
 18 13  1  0  0  0
 29 32  1  0  0  0
 26 27  1  0  0  0
  5  6  1  0  0  0
 21 23  1  0  0  0
M  END
> <minimizedAffinity>
10.37562

> <CNNscore>
0.4767438769

> <CNNaffinity>
6.6493506432

> <CNN_VS>
3.1700372696

> <CNNaffinity_variance>
0.1672270000

$$$$
[H]c1nc([H])c(C([H])([H])C(=O)N([H])C(C(=O)C([H])([H])C(N2C([H])([H])C([H])([H])N(C(=O)C([H])([H])C([H])([H])c3c([H])c([H])c([H])c([H])c3[H])C([H])([H])C2([H])[H])(C([H])([H])[H])C([H])([H])[H])(C([H])([H])C([H])([H])[H])C([H])([H])C([H])([H])[H])nc1[H]


 38 40  0  0  0  0  0  0  0  0999 V2000
   20.2205    8.6017   53.1565 C   0  0  0  0  0  0  0  0  0  0  0  0
   20.7679    7.2767   52.7570 C   0  0  0  0  0  0  0  0  0  0  0  0
   19.6503    6.3250   52.3164 C   0  0  0  0  0  0  0  0  0  0  0  0
   21.4862    7.5613   51.3857 C   0  0  0  0  0  0  0  0  0  0  0  0
   21.6828    6.5913   53.5341 N   0  0  0  0  0  0  0  0  0  0  0  0
   22.6961    5.9375   52.7867 C   0  0  0  0  0  0  0  0  0  0  0  0
   24.0382    6.6389   52.7538 C   0  0  0  0  0  0  0  0  0  0  0  0
   24.3755    7.0145   54.1100 N   0  0  0  0  0  0  0  0  0  0  0  0
   23.4823    6.5623   55.1400 C   0  0  0  0  0  0  0  0  0  0  0  0
   22.0325    6.9027   54.8390 C   0  0  0  0  0  0  0  0  0  0  0  0
   25.5332    7.7846   54.3653 C   0  0  0  0  0  0  0  0  0  0  0  0
   25.8041    8.0224   55.5615 O   0  0  0  0  0  0  0  0  0  0  0  0
   26.3984    8.3079   53.2931 C   0  0  0  0  0  0  0  0  0  0  0  0
   27.7795    8.6687   53.7033 C   0  0  0  0  0  0  0  0  0  0  0  0
   27.8748    9.1695   55.1183 C   0  0  0  0  0  0  0  0  0  0  0  0
   28.7865   10.0838   55.5628 C   0  0  0  0  0  0  0  0  0  0  0  0
   28.8003   10.5163   56.8923 C   0  0  0  0  0  0  0  0  0  0  0  0
   27.8895   10.0205   57.7729 C   0  0  0  0  0  0  0  0  0  0  0  0
   26.9380    9.0843   57.3683 C   0  0  0  0  0  0  0  0  0  0  0  0
   26.9453    8.6768   56.0584 C   0  0  0  0  0  0  0  0  0  0  0  0
   21.0118    9.8100   52.9121 C   0  0  0  0  0  0  0  0  0  0  0  0
   21.3478    9.9989   51.7587 O   0  0  0  0  0  0  0  0  0  0  0  0
   21.4557   10.8345   53.8631 C   0  0  0  0  0  0  0  0  0  0  0  0
   20.9443   12.1060   53.4062 N   0  0  0  0  0  0  0  0  0  0  0  0
   21.1995   12.9699   52.3859 C   0  0  0  0  0  0  0  0  0  0  0  0
   22.0296   12.8665   51.4807 O   0  0  0  0  0  0  0  0  0  0  0  0
   20.1249   12.4488   54.0740 H   0  0  0  0  0  0  0  0  0  0  0  0
   20.3824   14.2542   52.3093 C   0  0  0  0  0  0  0  0  0  0  0  0
   20.8736   15.1539   51.2666 C   0  0  0  0  0  0  0  0  0  0  0  0
   20.3348   15.1707   50.0136 C   0  0  0  0  0  0  0  0  0  0  0  0
   20.8222   16.0279   49.0723 N   0  0  0  0  0  0  0  0  0  0  0  0
   21.8335   16.8616   49.3662 C   0  0  0  0  0  0  0  0  0  0  0  0
   22.3955   16.8542   50.6489 C   0  0  0  0  0  0  0  0  0  0  0  0
   21.8835   15.9977   51.5315 N   0  0  0  0  0  0  0  0  0  0  0  0
   23.6038   10.7101   55.2971 C   0  0  0  0  0  0  0  0  0  0  0  0
   22.9520   10.9831   54.0215 C   0  0  0  0  0  0  0  0  0  0  0  0
   20.8973   10.6925   55.2826 C   0  0  0  0  0  0  0  0  0  0  0  0
   20.8320    9.2835   55.7860 C   0  0  0  0  0  0  0  0  0  0  0  0
 35 36  1  0  0  0
 36 23  1  0  0  0
 23 37  1  0  0  0
 37 38  1  0  0  0
 23 24  1  0  0  0
 24 25  1  0  0  0
 25 26  2  0  0  0
 25 28  1  0  0  0
 28 29  1  0  0  0
 29 30  2  0  0  0
 30 31  1  0  0  0
 31 32  2  0  0  0
 32 33  1  0  0  0
 33 34  2  0  0  0
 23 21  1  0  0  0
 21 22  2  0  0  0
 21  1  1  0  0  0
  1  2  1  0  0  0
  2  3  1  0  0  0
  2  4  1  0  0  0
  2  5  1  0  0  0
  5  6  1  0  0  0
  6  7  1  0  0  0
  7  8  1  0  0  0
  8  9  1  0  0  0
  9 10  1  0  0  0
  8 11  1  0  0  0
 11 12  2  0  0  0
 11 13  1  0  0  0
 13 14  1  0  0  0
 14 15  1  0  0  0
 15 16  2  0  0  0
 16 17  1  0  0  0
 17 18  2  0  0  0
 18 19  1  0  0  0
 19 20  2  0  0  0
 34 29  1  0  0  0
 10  5  1  0  0  0
 20 15  1  0  0  0
 24 27  1  0  0  0
M  END
> <minimizedAffinity>
22.97661

> <CNNscore>
0.6161258221

> <CNNaffinity>
6.7839326859

> <CNN_VS>
4.1797561646

> <CNNaffinity_variance>
1.1845756769

$$$$
[H]c1nc([H])c(C([H])([H])C(=O)N([H])C(C(=O)C([H])([H])C(N2C([H])([H])C([H])([H])N(C(=O)C([H])([H])C([H])([H])c3c([H])c([H])c([H])c([H])c3[H])C([H])([H])C2([H])[H])(C([H])([H])[H])C([H])([H])[H])(C([H])([H])C([H])([H])[H])C([H])([H])C([H])([H])[H])nc1[H]


 38 40  0  0  0  0  0  0  0  0999 V2000
   24.9045    7.3574   53.2748 C   0  0  0  0  0  0  0  0  0  0  0  0
   23.7611    6.5952   53.8462 C   0  0  0  0  0  0  0  0  0  0  0  0
   23.8478    5.1091   53.4815 C   0  0  0  0  0  0  0  0  0  0  0  0
   24.0688    6.5504   55.3891 C   0  0  0  0  0  0  0  0  0  0  0  0
   22.4534    7.0273   53.7283 N   0  0  0  0  0  0  0  0  0  0  0  0
   22.1151    8.0831   54.6136 C   0  0  0  0  0  0  0  0  0  0  0  0
   22.0758    9.4656   53.9960 C   0  0  0  0  0  0  0  0  0  0  0  0
   21.3136    9.3814   52.7688 N   0  0  0  0  0  0  0  0  0  0  0  0
   20.6967    8.1157   52.4843 C   0  0  0  0  0  0  0  0  0  0  0  0
   21.6775    6.9594   52.5815 C   0  0  0  0  0  0  0  0  0  0  0  0
   21.2044   10.5091   51.9232 C   0  0  0  0  0  0  0  0  0  0  0  0
   20.4811   10.3916   50.9114 O   0  0  0  0  0  0  0  0  0  0  0  0
   21.9060   11.7778   52.1873 C   0  0  0  0  0  0  0  0  0  0  0  0
   21.9851   12.7170   51.0394 C   0  0  0  0  0  0  0  0  0  0  0  0
   21.3711   14.0611   51.3190 C   0  0  0  0  0  0  0  0  0  0  0  0
   21.8679   15.2535   50.8761 C   0  0  0  0  0  0  0  0  0  0  0  0
   21.2284   16.4636   51.1613 C   0  0  0  0  0  0  0  0  0  0  0  0
   20.0844   16.4655   51.8974 C   0  0  0  0  0  0  0  0  0  0  0  0
   19.5368   15.2741   52.3733 C   0  0  0  0  0  0  0  0  0  0  0  0
   20.1832   14.1004   52.0792 C   0  0  0  0  0  0  0  0  0  0  0  0
   25.6682    8.2624   54.1370 C   0  0  0  0  0  0  0  0  0  0  0  0
   25.0318    8.8321   55.0026 O   0  0  0  0  0  0  0  0  0  0  0  0
   27.1002    8.5786   54.1104 C   0  0  0  0  0  0  0  0  0  0  0  0
   27.3493    9.3783   52.9333 N   0  0  0  0  0  0  0  0  0  0  0  0
   27.7588    9.1607   51.6537 C   0  0  0  0  0  0  0  0  0  0  0  0
   28.0488    8.0928   51.1106 O   0  0  0  0  0  0  0  0  0  0  0  0
   27.1414   10.4484   53.1492 H   0  0  0  0  0  0  0  0  0  0  0  0
   27.8998   10.3639   50.7289 C   0  0  0  0  0  0  0  0  0  0  0  0
   28.2729    9.9698   49.3712 C   0  0  0  0  0  0  0  0  0  0  0  0
   28.4461   10.8850   48.3747 C   0  0  0  0  0  0  0  0  0  0  0  0
   28.7966   10.4735   47.1231 N   0  0  0  0  0  0  0  0  0  0  0  0
   28.9745    9.1688   46.8581 C   0  0  0  0  0  0  0  0  0  0  0  0
   28.7997    8.2191   47.8724 C   0  0  0  0  0  0  0  0  0  0  0  0
   28.4570    8.6730   49.0771 N   0  0  0  0  0  0  0  0  0  0  0  0
   29.3895    7.4769   54.5910 C   0  0  0  0  0  0  0  0  0  0  0  0
   28.0364    7.3927   54.0540 C   0  0  0  0  0  0  0  0  0  0  0  0
   27.5976    9.4489   55.2687 C   0  0  0  0  0  0  0  0  0  0  0  0
   27.1912    8.9662   56.6270 C   0  0  0  0  0  0  0  0  0  0  0  0
 35 36  1  0  0  0
 36 23  1  0  0  0
 23 37  1  0  0  0
 37 38  1  0  0  0
 23 24  1  0  0  0
 24 25  1  0  0  0
 25 26  2  0  0  0
 25 28  1  0  0  0
 28 29  1  0  0  0
 29 30  2  0  0  0
 30 31  1  0  0  0
 31 32  2  0  0  0
 32 33  1  0  0  0
 33 34  2  0  0  0
 23 21  1  0  0  0
 21 22  2  0  0  0
 21  1  1  0  0  0
  1  2  1  0  0  0
  2  3  1  0  0  0
  2  4  1  0  0  0
  2  5  1  0  0  0
  5  6  1  0  0  0
  6  7  1  0  0  0
  7  8  1  0  0  0
  8  9  1  0  0  0
  9 10  1  0  0  0
  8 11  1  0  0  0
 11 12  2  0  0  0
 11 13  1  0  0  0
 13 14  1  0  0  0
 14 15  1  0  0  0
 15 16  2  0  0  0
 16 17  1  0  0  0
 17 18  2  0  0  0
 18 19  1  0  0  0
 19 20  2  0  0  0
 34 29  1  0  0  0
 10  5  1  0  0  0
 20 15  1  0  0  0
 24 27  1  0  0  0
M  END
> <minimizedAffinity>
26.45432

> <CNNscore>
0.5888100266

> <CNNaffinity>
6.7813720703

> <CNN_VS>
3.9929399490

> <CNNaffinity_variance>
0.9474713206

$$$$
[H]c1nc([H])c(C([H])([H])C(=O)N([H])C(C(=O)C([H])([H])C(N2C([H])([H])C([H])([H])N(C(=O)C([H])([H])C([H])([H])c3c([H])c([H])c([H])c([H])c3[H])C([H])([H])C2([H])[H])(C([H])([H])[H])C([H])([H])[H])(C([H])([H])C([H])([H])[H])C([H])([H])C([H])([H])[H])nc1[H]


 38 40  0  0  0  0  0  0  0  0999 V2000
   26.2749    8.6038   56.2258 C   0  0  0  0  0  0  0  0  0  0  0  0
   27.4819    9.4526   56.4197 C   0  0  0  0  0  0  0  0  0  0  0  0
   28.3199    9.5260   55.1384 C   0  0  0  0  0  0  0  0  0  0  0  0
   26.9079   10.9162   56.4945 C   0  0  0  0  0  0  0  0  0  0  0  0
   28.3157    9.3113   57.5130 N   0  0  0  0  0  0  0  0  0  0  0  0
   29.2463   10.3711   57.6668 C   0  0  0  0  0  0  0  0  0  0  0  0
   28.8980   11.3973   58.7249 C   0  0  0  0  0  0  0  0  0  0  0  0
   28.5251   10.6847   59.9279 N   0  0  0  0  0  0  0  0  0  0  0  0
   28.6744    9.2564   59.8976 C   0  0  0  0  0  0  0  0  0  0  0  0
   28.0114    8.6310   58.6820 C   0  0  0  0  0  0  0  0  0  0  0  0
   28.0457   11.3944   61.0526 C   0  0  0  0  0  0  0  0  0  0  0  0
   27.8007   10.7291   62.0812 O   0  0  0  0  0  0  0  0  0  0  0  0
   27.8236   12.8513   61.0440 C   0  0  0  0  0  0  0  0  0  0  0  0
   28.6908   13.6368   61.9588 C   0  0  0  0  0  0  0  0  0  0  0  0
   29.4415   14.7444   61.2719 C   0  0  0  0  0  0  0  0  0  0  0  0
   28.8710   15.8773   60.7662 C   0  0  0  0  0  0  0  0  0  0  0  0
   29.6392   16.8740   60.1571 C   0  0  0  0  0  0  0  0  0  0  0  0
   30.9875   16.7219   60.0593 C   0  0  0  0  0  0  0  0  0  0  0  0
   31.6181   15.5828   60.5599 C   0  0  0  0  0  0  0  0  0  0  0  0
   30.8419   14.6200   61.1534 C   0  0  0  0  0  0  0  0  0  0  0  0
   25.8879    8.2026   54.8712 C   0  0  0  0  0  0  0  0  0  0  0  0
   26.6342    8.5591   53.9796 O   0  0  0  0  0  0  0  0  0  0  0  0
   24.7254    7.4233   54.4325 C   0  0  0  0  0  0  0  0  0  0  0  0
   23.6044    8.3291   54.3329 N   0  0  0  0  0  0  0  0  0  0  0  0
   23.1050    9.3732   55.0492 C   0  0  0  0  0  0  0  0  0  0  0  0
   23.5434    9.8726   56.0873 O   0  0  0  0  0  0  0  0  0  0  0  0
   23.0090    8.0992   53.4231 H   0  0  0  0  0  0  0  0  0  0  0  0
   21.8328   10.0464   54.5480 C   0  0  0  0  0  0  0  0  0  0  0  0
   21.2251    9.3115   53.4396 C   0  0  0  0  0  0  0  0  0  0  0  0
   20.5221    8.1591   53.6355 C   0  0  0  0  0  0  0  0  0  0  0  0
   19.9698    7.5073   52.5731 N   0  0  0  0  0  0  0  0  0  0  0  0
   20.1108    7.9897   51.3275 C   0  0  0  0  0  0  0  0  0  0  0  0
   20.8302    9.1719   51.1129 C   0  0  0  0  0  0  0  0  0  0  0  0
   21.3500    9.7697   52.1840 N   0  0  0  0  0  0  0  0  0  0  0  0
   22.9005    5.9749   55.5539 C   0  0  0  0  0  0  0  0  0  0  0  0
   24.3084    6.2913   55.3438 C   0  0  0  0  0  0  0  0  0  0  0  0
   24.8406    6.8120   53.0326 C   0  0  0  0  0  0  0  0  0  0  0  0
   23.5292    6.4748   52.3926 C   0  0  0  0  0  0  0  0  0  0  0  0
 35 36  1  0  0  0
 36 23  1  0  0  0
 23 37  1  0  0  0
 37 38  1  0  0  0
 23 24  1  0  0  0
 24 25  1  0  0  0
 25 26  2  0  0  0
 25 28  1  0  0  0
 28 29  1  0  0  0
 29 30  2  0  0  0
 30 31  1  0  0  0
 31 32  2  0  0  0
 32 33  1  0  0  0
 33 34  2  0  0  0
 23 21  1  0  0  0
 21 22  2  0  0  0
 21  1  1  0  0  0
  1  2  1  0  0  0
  2  3  1  0  0  0
  2  4  1  0  0  0
  2  5  1  0  0  0
  5  6  1  0  0  0
  6  7  1  0  0  0
  7  8  1  0  0  0
  8  9  1  0  0  0
  9 10  1  0  0  0
  8 11  1  0  0  0
 11 12  2  0  0  0
 11 13  1  0  0  0
 13 14  1  0  0  0
 14 15  1  0  0  0
 15 16  2  0  0  0
 16 17  1  0  0  0
 17 18  2  0  0  0
 18 19  1  0  0  0
 19 20  2  0  0  0
 34 29  1  0  0  0
 10  5  1  0  0  0
 20 15  1  0  0  0
 24 27  1  0  0  0
M  END
> <minimizedAffinity>
7.84451

> <CNNscore>
0.5871315598

> <CNNaffinity>
6.9552850723

> <CNN_VS>
4.0836672783

> <CNNaffinity_variance>
1.4092376232

$$$$
[H]c1nc([H])c(C([H])([H])C(=O)N([H])C(C(=O)C([H])([H])C(N2C([H])([H])C([H])([H])N(C(=O)C([H])([H])C([H])([H])c3c([H])c([H])c([H])c([H])c3[H])C([H])([H])C2([H])[H])(C([H])([H])[H])C([H])([H])[H])(C([H])([H])C([H])([H])[H])C([H])([H])C([H])([H])[H])nc1[H]


 38 40  0  0  0  0  0  0  0  0999 V2000
   24.5155    7.3962   54.9681 C   0  0  0  0  0  0  0  0  0  0  0  0
   23.5167    6.4604   54.3837 C   0  0  0  0  0  0  0  0  0  0  0  0
   24.1150    5.6699   53.2148 C   0  0  0  0  0  0  0  0  0  0  0  0
   23.3709    5.3334   55.4727 C   0  0  0  0  0  0  0  0  0  0  0  0
   22.2308    6.8566   54.0672 N   0  0  0  0  0  0  0  0  0  0  0  0
   21.7445    7.9224   54.8674 C   0  0  0  0  0  0  0  0  0  0  0  0
   21.7650    9.2897   54.2161 C   0  0  0  0  0  0  0  0  0  0  0  0
   21.1910    9.1596   52.8942 N   0  0  0  0  0  0  0  0  0  0  0  0
   20.6499    7.8728   52.5554 C   0  0  0  0  0  0  0  0  0  0  0  0
   21.6312    6.7441   52.8223 C   0  0  0  0  0  0  0  0  0  0  0  0
   21.1810   10.2655   52.0135 C   0  0  0  0  0  0  0  0  0  0  0  0
   20.6149   10.1078   50.9110 O   0  0  0  0  0  0  0  0  0  0  0  0
   21.8089   11.5571   52.3443 C   0  0  0  0  0  0  0  0  0  0  0  0
   21.8599   12.5465   51.2378 C   0  0  0  0  0  0  0  0  0  0  0  0
   21.0949   13.8092   51.5247 C   0  0  0  0  0  0  0  0  0  0  0  0
   21.1040   14.9236   50.7355 C   0  0  0  0  0  0  0  0  0  0  0  0
   20.3494   16.0552   51.0590 C   0  0  0  0  0  0  0  0  0  0  0  0
   19.5853   16.0579   52.1846 C   0  0  0  0  0  0  0  0  0  0  0  0
   19.5423   14.9446   53.0239 C   0  0  0  0  0  0  0  0  0  0  0  0
   20.2914   13.8469   52.6838 C   0  0  0  0  0  0  0  0  0  0  0  0
   25.5055    8.0293   54.0937 C   0  0  0  0  0  0  0  0  0  0  0  0
   25.1074    8.3559   52.9920 O   0  0  0  0  0  0  0  0  0  0  0  0
   26.9157    8.3331   54.3586 C   0  0  0  0  0  0  0  0  0  0  0  0
   26.9782    9.0720   55.5985 N   0  0  0  0  0  0  0  0  0  0  0  0
   27.8704    9.2344   56.6135 C   0  0  0  0  0  0  0  0  0  0  0  0
   28.9899    8.7344   56.7401 O   0  0  0  0  0  0  0  0  0  0  0  0
   26.0451    9.6589   55.7392 H   0  0  0  0  0  0  0  0  0  0  0  0
   27.4807   10.1401   57.7758 C   0  0  0  0  0  0  0  0  0  0  0  0
   28.4274   10.0435   58.8858 C   0  0  0  0  0  0  0  0  0  0  0  0
   28.7678    8.8462   59.4436 C   0  0  0  0  0  0  0  0  0  0  0  0
   29.6570    8.8020   60.4760 N   0  0  0  0  0  0  0  0  0  0  0  0
   30.2054    9.9313   60.9536 C   0  0  0  0  0  0  0  0  0  0  0  0
   29.8643   11.1670   60.3899 C   0  0  0  0  0  0  0  0  0  0  0  0
   28.9909   11.1555   59.3840 N   0  0  0  0  0  0  0  0  0  0  0  0
   27.2410    9.0719   51.9022 C   0  0  0  0  0  0  0  0  0  0  0  0
   27.6210    9.1596   53.3073 C   0  0  0  0  0  0  0  0  0  0  0  0
   27.8110    7.1140   54.6018 C   0  0  0  0  0  0  0  0  0  0  0  0
   29.0974    7.1257   53.8349 C   0  0  0  0  0  0  0  0  0  0  0  0
 35 36  1  0  0  0
 36 23  1  0  0  0
 23 37  1  0  0  0
 37 38  1  0  0  0
 23 24  1  0  0  0
 24 25  1  0  0  0
 25 26  2  0  0  0
 25 28  1  0  0  0
 28 29  1  0  0  0
 29 30  2  0  0  0
 30 31  1  0  0  0
 31 32  2  0  0  0
 32 33  1  0  0  0
 33 34  2  0  0  0
 23 21  1  0  0  0
 21 22  2  0  0  0
 21  1  1  0  0  0
  1  2  1  0  0  0
  2  3  1  0  0  0
  2  4  1  0  0  0
  2  5  1  0  0  0
  5  6  1  0  0  0
  6  7  1  0  0  0
  7  8  1  0  0  0
  8  9  1  0  0  0
  9 10  1  0  0  0
  8 11  1  0  0  0
 11 12  2  0  0  0
 11 13  1  0  0  0
 13 14  1  0  0  0
 14 15  1  0  0  0
 15 16  2  0  0  0
 16 17  1  0  0  0
 17 18  2  0  0  0
 18 19  1  0  0  0
 19 20  2  0  0  0
 34 29  1  0  0  0
 10  5  1  0  0  0
 20 15  1  0  0  0
 24 27  1  0  0  0
M  END
> <minimizedAffinity>
16.06979

> <CNNscore>
0.5807617903

> <CNNaffinity>
6.8967027664

> <CNN_VS>
4.0053415298

> <CNNaffinity_variance>
0.7168700099

$$$$
[H]c1nc([H])c(C([H])([H])C(=O)N([H])C(C(=O)C([H])([H])C(N2C([H])([H])C([H])([H])N(C(=O)C([H])([H])C([H])([H])c3c([H])c([H])c([H])c([H])c3[H])C([H])([H])C2([H])[H])(C([H])([H])[H])C([H])([H])[H])(C([H])([H])C([H])([H])[H])C([H])([H])C([H])([H])[H])nc1[H]


 38 40  0  0  0  0  0  0  0  0999 V2000
   25.4113    7.5604   55.4842 C   0  0  0  0  0  0  0  0  0  0  0  0
   24.7198    7.4171   54.1741 C   0  0  0  0  0  0  0  0  0  0  0  0
   25.3736    8.2969   53.1029 C   0  0  0  0  0  0  0  0  0  0  0  0
   25.1320    5.9796   53.6833 C   0  0  0  0  0  0  0  0  0  0  0  0
   23.3443    7.4835   54.0543 N   0  0  0  0  0  0  0  0  0  0  0  0
   22.7413    8.4600   54.8882 C   0  0  0  0  0  0  0  0  0  0  0  0
   22.3388    9.7477   54.1997 C   0  0  0  0  0  0  0  0  0  0  0  0
   21.6239    9.3993   52.9908 N   0  0  0  0  0  0  0  0  0  0  0  0
   21.3615    8.0025   52.7827 C   0  0  0  0  0  0  0  0  0  0  0  0
   22.6121    7.1514   52.9249 C   0  0  0  0  0  0  0  0  0  0  0  0
   21.2207   10.4107   52.0890 C   0  0  0  0  0  0  0  0  0  0  0  0
   20.5524   10.0522   51.0962 O   0  0  0  0  0  0  0  0  0  0  0  0
   21.5641   11.8317   52.2752 C   0  0  0  0  0  0  0  0  0  0  0  0
   21.5967   12.6504   51.0364 C   0  0  0  0  0  0  0  0  0  0  0  0
   21.1546   14.0728   51.2442 C   0  0  0  0  0  0  0  0  0  0  0  0
   20.0900   14.4554   52.0092 C   0  0  0  0  0  0  0  0  0  0  0  0
   19.7517   15.8023   52.1707 C   0  0  0  0  0  0  0  0  0  0  0  0
   20.4927   16.7629   51.5551 C   0  0  0  0  0  0  0  0  0  0  0  0
   21.5894   16.4237   50.7628 C   0  0  0  0  0  0  0  0  0  0  0  0
   21.9007   15.0953   50.6209 C   0  0  0  0  0  0  0  0  0  0  0  0
   26.2052    8.7621   55.7507 C   0  0  0  0  0  0  0  0  0  0  0  0
   25.5728    9.7699   56.0023 O   0  0  0  0  0  0  0  0  0  0  0  0
   27.6628    8.9254   55.7630 C   0  0  0  0  0  0  0  0  0  0  0  0
   28.0900    8.9330   57.1430 N   0  0  0  0  0  0  0  0  0  0  0  0
   28.3537    9.8690   58.0955 C   0  0  0  0  0  0  0  0  0  0  0  0
   28.2776   11.0962   58.0090 O   0  0  0  0  0  0  0  0  0  0  0  0
   28.2298    7.8914   57.5040 H   0  0  0  0  0  0  0  0  0  0  0  0
   28.8132    9.3897   59.4674 C   0  0  0  0  0  0  0  0  0  0  0  0
   29.2649   10.4957   60.3103 C   0  0  0  0  0  0  0  0  0  0  0  0
   30.5881   10.7430   60.5307 C   0  0  0  0  0  0  0  0  0  0  0  0
   30.9650   11.7871   61.3220 N   0  0  0  0  0  0  0  0  0  0  0  0
   30.0425   12.5805   61.8910 C   0  0  0  0  0  0  0  0  0  0  0  0
   28.6807   12.3373   61.6728 C   0  0  0  0  0  0  0  0  0  0  0  0
   28.3655   11.3047   60.8923 N   0  0  0  0  0  0  0  0  0  0  0  0
   29.6034   10.3317   54.7925 C   0  0  0  0  0  0  0  0  0  0  0  0
   28.1902   10.1894   55.1227 C   0  0  0  0  0  0  0  0  0  0  0  0
   28.4532    7.7755   55.1309 C   0  0  0  0  0  0  0  0  0  0  0  0
   28.3406    7.6906   53.6399 C   0  0  0  0  0  0  0  0  0  0  0  0
 35 36  1  0  0  0
 36 23  1  0  0  0
 23 37  1  0  0  0
 37 38  1  0  0  0
 23 24  1  0  0  0
 24 25  1  0  0  0
 25 26  2  0  0  0
 25 28  1  0  0  0
 28 29  1  0  0  0
 29 30  2  0  0  0
 30 31  1  0  0  0
 31 32  2  0  0  0
 32 33  1  0  0  0
 33 34  2  0  0  0
 23 21  1  0  0  0
 21 22  2  0  0  0
 21  1  1  0  0  0
  1  2  1  0  0  0
  2  3  1  0  0  0
  2  4  1  0  0  0
  2  5  1  0  0  0
  5  6  1  0  0  0
  6  7  1  0  0  0
  7  8  1  0  0  0
  8  9  1  0  0  0
  9 10  1  0  0  0
  8 11  1  0  0  0
 11 12  2  0  0  0
 11 13  1  0  0  0
 13 14  1  0  0  0
 14 15  1  0  0  0
 15 16  2  0  0  0
 16 17  1  0  0  0
 17 18  2  0  0  0
 18 19  1  0  0  0
 19 20  2  0  0  0
 34 29  1  0  0  0
 10  5  1  0  0  0
 20 15  1  0  0  0
 24 27  1  0  0  0
M  END
> <minimizedAffinity>
16.92196

> <CNNscore>
0.5700474381

> <CNNaffinity>
6.8854660988

> <CNN_VS>
3.9250423908

> <CNNaffinity_variance>
0.3213053644

$$$$
[H]c1nc([H])c(C([H])([H])C(=O)N([H])C(C(=O)C([H])([H])C(N2C([H])([H])C([H])([H])N(C(=O)C([H])([H])C([H])([H])c3c([H])c([H])c([H])c([H])c3[H])C([H])([H])C2([H])[H])(C([H])([H])[H])C([H])([H])[H])(C([H])([H])C([H])([H])[H])C([H])([H])C([H])([H])[H])nc1[H]


 38 40  0  0  0  0  0  0  0  0999 V2000
   23.3628    8.2679   55.0856 C   0  0  0  0  0  0  0  0  0  0  0  0
   24.6297    7.9071   54.3929 C   0  0  0  0  0  0  0  0  0  0  0  0
   24.9897    6.4358   54.6264 C   0  0  0  0  0  0  0  0  0  0  0  0
   24.2363    7.8881   52.8691 C   0  0  0  0  0  0  0  0  0  0  0  0
   25.7687    8.6848   54.4853 N   0  0  0  0  0  0  0  0  0  0  0  0
   25.6408    9.7890   55.3669 C   0  0  0  0  0  0  0  0  0  0  0  0
   26.2825    9.6154   56.7279 C   0  0  0  0  0  0  0  0  0  0  0  0
   27.6199    9.1015   56.5252 N   0  0  0  0  0  0  0  0  0  0  0  0
   28.0632    8.9909   55.1633 C   0  0  0  0  0  0  0  0  0  0  0  0
   27.0688    8.2446   54.2900 C   0  0  0  0  0  0  0  0  0  0  0  0
   28.4168    8.7408   57.6358 C   0  0  0  0  0  0  0  0  0  0  0  0
   29.5839    8.3638   57.3981 O   0  0  0  0  0  0  0  0  0  0  0  0
   27.9223    8.7855   59.0233 C   0  0  0  0  0  0  0  0  0  0  0  0
   28.9690    8.7752   60.0770 C   0  0  0  0  0  0  0  0  0  0  0  0
   29.4132   10.1494   60.4964 C   0  0  0  0  0  0  0  0  0  0  0  0
   28.7415   11.3054   60.2188 C   0  0  0  0  0  0  0  0  0  0  0  0
   29.2083   12.5470   60.6606 C   0  0  0  0  0  0  0  0  0  0  0  0
   30.3584   12.6173   61.3840 C   0  0  0  0  0  0  0  0  0  0  0  0
   31.0814   11.4653   61.6935 C   0  0  0  0  0  0  0  0  0  0  0  0
   30.6017   10.2596   61.2487 C   0  0  0  0  0  0  0  0  0  0  0  0
   22.9370    9.6690   55.1222 C   0  0  0  0  0  0  0  0  0  0  0  0
   23.4218   10.3470   56.0077 O   0  0  0  0  0  0  0  0  0  0  0  0
   22.0083   10.3783   54.2359 C   0  0  0  0  0  0  0  0  0  0  0  0
   21.5392    9.4339   53.2484 N   0  0  0  0  0  0  0  0  0  0  0  0
   21.1854    9.4649   51.9345 C   0  0  0  0  0  0  0  0  0  0  0  0
   21.1835   10.4250   51.1615 O   0  0  0  0  0  0  0  0  0  0  0  0
   21.4570    8.4214   53.6990 H   0  0  0  0  0  0  0  0  0  0  0  0
   20.7163    8.1683   51.2850 C   0  0  0  0  0  0  0  0  0  0  0  0
   20.7099    7.0535   52.2310 C   0  0  0  0  0  0  0  0  0  0  0  0
   19.5501    6.4963   52.6838 C   0  0  0  0  0  0  0  0  0  0  0  0
   19.5905    5.4561   53.5640 N   0  0  0  0  0  0  0  0  0  0  0  0
   20.7668    4.9703   53.9936 C   0  0  0  0  0  0  0  0  0  0  0  0
   21.9647    5.5336   53.5364 C   0  0  0  0  0  0  0  0  0  0  0  0
   21.8704    6.5478   52.6778 N   0  0  0  0  0  0  0  0  0  0  0  0
   21.7333   12.4170   52.6694 C   0  0  0  0  0  0  0  0  0  0  0  0
   22.5827   11.5607   53.4890 C   0  0  0  0  0  0  0  0  0  0  0  0
   20.7288   10.8888   54.9059 C   0  0  0  0  0  0  0  0  0  0  0  0
   20.2468   10.0464   56.0466 C   0  0  0  0  0  0  0  0  0  0  0  0
 35 36  1  0  0  0
 36 23  1  0  0  0
 23 37  1  0  0  0
 37 38  1  0  0  0
 23 24  1  0  0  0
 24 25  1  0  0  0
 25 26  2  0  0  0
 25 28  1  0  0  0
 28 29  1  0  0  0
 29 30  2  0  0  0
 30 31  1  0  0  0
 31 32  2  0  0  0
 32 33  1  0  0  0
 33 34  2  0  0  0
 23 21  1  0  0  0
 21 22  2  0  0  0
 21  1  1  0  0  0
  1  2  1  0  0  0
  2  3  1  0  0  0
  2  4  1  0  0  0
  2  5  1  0  0  0
  5  6  1  0  0  0
  6  7  1  0  0  0
  7  8  1  0  0  0
  8  9  1  0  0  0
  9 10  1  0  0  0
  8 11  1  0  0  0
 11 12  2  0  0  0
 11 13  1  0  0  0
 13 14  1  0  0  0
 14 15  1  0  0  0
 15 16  2  0  0  0
 16 17  1  0  0  0
 17 18  2  0  0  0
 18 19  1  0  0  0
 19 20  2  0  0  0
 34 29  1  0  0  0
 10  5  1  0  0  0
 20 15  1  0  0  0
 24 27  1  0  0  0
M  END
> <minimizedAffinity>
16.80626

> <CNNscore>
0.5411460996

> <CNNaffinity>
6.9319047928

> <CNN_VS>
3.7511732578

> <CNNaffinity_variance>
0.9546214342

$$$$
[H]c1nc([H])c(C([H])([H])C(=O)N([H])C(C(=O)C([H])([H])C(N2C([H])([H])C([H])([H])N(C(=O)C([H])([H])C([H])([H])c3c([H])c([H])c([H])c([H])c3[H])C([H])([H])C2([H])[H])(C([H])([H])[H])C([H])([H])[H])(C([H])([H])C([H])([H])[H])C([H])([H])C([H])([H])[H])nc1[H]


 38 40  0  0  0  0  0  0  0  0999 V2000
   22.6705    6.7928   53.6636 C   0  0  0  0  0  0  0  0  0  0  0  0
   24.1185    6.6135   53.9570 C   0  0  0  0  0  0  0  0  0  0  0  0
   24.3320    6.0248   55.3559 C   0  0  0  0  0  0  0  0  0  0  0  0
   24.5422    5.4014   53.0468 C   0  0  0  0  0  0  0  0  0  0  0  0
   25.0476    7.6103   53.7253 N   0  0  0  0  0  0  0  0  0  0  0  0
   24.7400    8.8414   54.3598 C   0  0  0  0  0  0  0  0  0  0  0  0
   25.5172    9.1352   55.6262 C   0  0  0  0  0  0  0  0  0  0  0  0
   26.9157    8.8779   55.3578 N   0  0  0  0  0  0  0  0  0  0  0  0
   27.2557    8.5403   54.0036 C   0  0  0  0  0  0  0  0  0  0  0  0
   26.3932    7.4169   53.4535 C   0  0  0  0  0  0  0  0  0  0  0  0
   27.8659    8.9668   56.4008 C   0  0  0  0  0  0  0  0  0  0  0  0
   29.0644    8.7956   56.0926 O   0  0  0  0  0  0  0  0  0  0  0  0
   27.4938    9.2374   57.8009 C   0  0  0  0  0  0  0  0  0  0  0  0
   28.5568    8.9835   58.8066 C   0  0  0  0  0  0  0  0  0  0  0  0
   28.9347   10.2025   59.6024 C   0  0  0  0  0  0  0  0  0  0  0  0
   28.5334   11.4762   59.3171 C   0  0  0  0  0  0  0  0  0  0  0  0
   28.9110   12.5587   60.1172 C   0  0  0  0  0  0  0  0  0  0  0  0
   29.6975   12.3503   61.2076 C   0  0  0  0  0  0  0  0  0  0  0  0
   30.1341   11.0682   61.5413 C   0  0  0  0  0  0  0  0  0  0  0  0
   29.7493   10.0232   60.7404 C   0  0  0  0  0  0  0  0  0  0  0  0
   22.2398    7.9164   52.8284 C   0  0  0  0  0  0  0  0  0  0  0  0
   22.9686    8.1924   51.8948 O   0  0  0  0  0  0  0  0  0  0  0  0
   21.0458    8.7590   52.9531 C   0  0  0  0  0  0  0  0  0  0  0  0
   21.2850    9.9700   52.2026 N   0  0  0  0  0  0  0  0  0  0  0  0
   21.6114   11.2618   52.4802 C   0  0  0  0  0  0  0  0  0  0  0  0
   21.8166   11.7839   53.5778 O   0  0  0  0  0  0  0  0  0  0  0  0
   21.1727    9.7720   51.1149 H   0  0  0  0  0  0  0  0  0  0  0  0
   21.7484   12.2355   51.3156 C   0  0  0  0  0  0  0  0  0  0  0  0
   21.0621   13.5000   51.5760 C   0  0  0  0  0  0  0  0  0  0  0  0
   20.2391   13.6678   52.6507 C   0  0  0  0  0  0  0  0  0  0  0  0
   19.6208   14.8652   52.8568 N   0  0  0  0  0  0  0  0  0  0  0  0
   19.8139   15.8884   52.0083 C   0  0  0  0  0  0  0  0  0  0  0  0
   20.6564   15.7290   50.9010 C   0  0  0  0  0  0  0  0  0  0  0  0
   21.2358   14.5397   50.7448 N   0  0  0  0  0  0  0  0  0  0  0  0
   21.6002    8.9828   55.4687 C   0  0  0  0  0  0  0  0  0  0  0  0
   20.6719    9.1688   54.3596 C   0  0  0  0  0  0  0  0  0  0  0  0
   19.7704    8.1785   52.3341 C   0  0  0  0  0  0  0  0  0  0  0  0
   19.3801    6.8330   52.8636 C   0  0  0  0  0  0  0  0  0  0  0  0
 35 36  1  0  0  0
 36 23  1  0  0  0
 23 37  1  0  0  0
 37 38  1  0  0  0
 23 24  1  0  0  0
 24 25  1  0  0  0
 25 26  2  0  0  0
 25 28  1  0  0  0
 28 29  1  0  0  0
 29 30  2  0  0  0
 30 31  1  0  0  0
 31 32  2  0  0  0
 32 33  1  0  0  0
 33 34  2  0  0  0
 23 21  1  0  0  0
 21 22  2  0  0  0
 21  1  1  0  0  0
  1  2  1  0  0  0
  2  3  1  0  0  0
  2  4  1  0  0  0
  2  5  1  0  0  0
  5  6  1  0  0  0
  6  7  1  0  0  0
  7  8  1  0  0  0
  8  9  1  0  0  0
  9 10  1  0  0  0
  8 11  1  0  0  0
 11 12  2  0  0  0
 11 13  1  0  0  0
 13 14  1  0  0  0
 14 15  1  0  0  0
 15 16  2  0  0  0
 16 17  1  0  0  0
 17 18  2  0  0  0
 18 19  1  0  0  0
 19 20  2  0  0  0
 34 29  1  0  0  0
 10  5  1  0  0  0
 20 15  1  0  0  0
 24 27  1  0  0  0
M  END
> <minimizedAffinity>
14.76727

> <CNNscore>
0.5383312702

> <CNNaffinity>
6.5345511436

> <CNN_VS>
3.5177531242

> <CNNaffinity_variance>
0.9821656346

$$$$
[H]c1nc([H])c(C([H])([H])C(=O)N([H])C(C(=O)C([H])([H])C(N2C([H])([H])C([H])([H])N(C(=O)C([H])([H])C([H])([H])c3c([H])c([H])c([H])c([H])c3[H])C([H])([H])C2([H])[H])(C([H])([H])[H])C([H])([H])[H])(C([H])([H])C([H])([H])[H])C([H])([H])C([H])([H])[H])nc1[H]


 38 40  0  0  0  0  0  0  0  0999 V2000
   20.5787    8.3968   53.4035 C   0  0  0  0  0  0  0  0  0  0  0  0
   21.2130    7.1406   52.9191 C   0  0  0  0  0  0  0  0  0  0  0  0
   20.1709    6.0348   52.7186 C   0  0  0  0  0  0  0  0  0  0  0  0
   21.6062    7.4646   51.4299 C   0  0  0  0  0  0  0  0  0  0  0  0
   22.3456    6.6109   53.5083 N   0  0  0  0  0  0  0  0  0  0  0  0
   23.3365    6.1981   52.5806 C   0  0  0  0  0  0  0  0  0  0  0  0
   24.5057    7.1456   52.4095 C   0  0  0  0  0  0  0  0  0  0  0  0
   24.9702    7.5192   53.7280 N   0  0  0  0  0  0  0  0  0  0  0  0
   24.3424    6.8587   54.8384 C   0  0  0  0  0  0  0  0  0  0  0  0
   22.8261    6.9263   54.7699 C   0  0  0  0  0  0  0  0  0  0  0  0
   25.9915    8.4860   53.8725 C   0  0  0  0  0  0  0  0  0  0  0  0
   26.3924    8.7188   55.0326 O   0  0  0  0  0  0  0  0  0  0  0  0
   26.5724    9.2127   52.7296 C   0  0  0  0  0  0  0  0  0  0  0  0
   27.5264    8.4377   51.8958 C   0  0  0  0  0  0  0  0  0  0  0  0
   27.9680    9.1641   50.6551 C   0  0  0  0  0  0  0  0  0  0  0  0
   28.2463    8.5674   49.4588 C   0  0  0  0  0  0  0  0  0  0  0  0
   28.6336    9.3136   48.3417 C   0  0  0  0  0  0  0  0  0  0  0  0
   28.7401   10.6665   48.4375 C   0  0  0  0  0  0  0  0  0  0  0  0
   28.4671   11.3234   49.6374 C   0  0  0  0  0  0  0  0  0  0  0  0
   28.0885   10.5684   50.7183 C   0  0  0  0  0  0  0  0  0  0  0  0
   21.2211    9.6824   53.1204 C   0  0  0  0  0  0  0  0  0  0  0  0
   21.4347    9.9209   51.9472 O   0  0  0  0  0  0  0  0  0  0  0  0
   21.6419   10.7329   54.0534 C   0  0  0  0  0  0  0  0  0  0  0  0
   21.0712   11.9785   53.5954 N   0  0  0  0  0  0  0  0  0  0  0  0
   21.2232   12.8063   52.5257 C   0  0  0  0  0  0  0  0  0  0  0  0
   21.9747   12.6800   51.5569 O   0  0  0  0  0  0  0  0  0  0  0  0
   20.3059   12.3349   54.3180 H   0  0  0  0  0  0  0  0  0  0  0  0
   20.3802   14.0749   52.4721 C   0  0  0  0  0  0  0  0  0  0  0  0
   20.8041   14.9685   51.3953 C   0  0  0  0  0  0  0  0  0  0  0  0
   20.2619   14.9023   50.1454 C   0  0  0  0  0  0  0  0  0  0  0  0
   20.6853   15.7570   49.1713 N   0  0  0  0  0  0  0  0  0  0  0  0
   21.6365   16.6695   49.4297 C   0  0  0  0  0  0  0  0  0  0  0  0
   22.2013   16.7477   50.7088 C   0  0  0  0  0  0  0  0  0  0  0  0
   21.7531   15.8899   51.6243 N   0  0  0  0  0  0  0  0  0  0  0  0
   23.8157   10.7374   55.4535 C   0  0  0  0  0  0  0  0  0  0  0  0
   23.1338   10.9426   54.1809 C   0  0  0  0  0  0  0  0  0  0  0  0
   21.1172   10.5825   55.4847 C   0  0  0  0  0  0  0  0  0  0  0  0
   21.1320    9.1789   56.0071 C   0  0  0  0  0  0  0  0  0  0  0  0
 35 36  1  0  0  0
 36 23  1  0  0  0
 23 37  1  0  0  0
 37 38  1  0  0  0
 23 24  1  0  0  0
 24 25  1  0  0  0
 25 26  2  0  0  0
 25 28  1  0  0  0
 28 29  1  0  0  0
 29 30  2  0  0  0
 30 31  1  0  0  0
 31 32  2  0  0  0
 32 33  1  0  0  0
 33 34  2  0  0  0
 23 21  1  0  0  0
 21 22  2  0  0  0
 21  1  1  0  0  0
  1  2  1  0  0  0
  2  3  1  0  0  0
  2  4  1  0  0  0
  2  5  1  0  0  0
  5  6  1  0  0  0
  6  7  1  0  0  0
  7  8  1  0  0  0
  8  9  1  0  0  0
  9 10  1  0  0  0
  8 11  1  0  0  0
 11 12  2  0  0  0
 11 13  1  0  0  0
 13 14  1  0  0  0
 14 15  1  0  0  0
 15 16  2  0  0  0
 16 17  1  0  0  0
 17 18  2  0  0  0
 18 19  1  0  0  0
 19 20  2  0  0  0
 34 29  1  0  0  0
 10  5  1  0  0  0
 20 15  1  0  0  0
 24 27  1  0  0  0
M  END
> <minimizedAffinity>
30.20540

> <CNNscore>
0.5376219749

> <CNNaffinity>
6.4435563087

> <CNN_VS>
3.4641973972

> <CNNaffinity_variance>
1.3074619770

$$$$
[H]c1nc([H])c(C([H])([H])C(=O)N([H])C(C(=O)C([H])([H])C(N2C([H])([H])C([H])([H])N(C(=O)C([H])([H])C([H])([H])c3c([H])c([H])c([H])c([H])c3[H])C([H])([H])C2([H])[H])(C([H])([H])[H])C([H])([H])[H])(C([H])([H])C([H])([H])[H])C([H])([H])C([H])([H])[H])nc1[H]


 38 40  0  0  0  0  0  0  0  0999 V2000
   23.2400    8.5546   55.8328 C   0  0  0  0  0  0  0  0  0  0  0  0
   24.2510    9.5918   56.1750 C   0  0  0  0  0  0  0  0  0  0  0  0
   23.9550   10.9130   55.4569 C   0  0  0  0  0  0  0  0  0  0  0  0
   23.9152    9.9712   57.6652 C   0  0  0  0  0  0  0  0  0  0  0  0
   25.6094    9.3381   56.1406 N   0  0  0  0  0  0  0  0  0  0  0  0
   26.3989   10.4760   55.8329 C   0  0  0  0  0  0  0  0  0  0  0  0
   27.0829   11.1345   57.0130 C   0  0  0  0  0  0  0  0  0  0  0  0
   27.7221   10.0954   57.7913 N   0  0  0  0  0  0  0  0  0  0  0  0
   27.6761    8.7674   57.2456 C   0  0  0  0  0  0  0  0  0  0  0  0
   26.2679    8.3502   56.8565 C   0  0  0  0  0  0  0  0  0  0  0  0
   28.3496   10.4126   59.0177 C   0  0  0  0  0  0  0  0  0  0  0  0
   28.9379    9.4838   59.6110 O   0  0  0  0  0  0  0  0  0  0  0  0
   28.3221   11.7644   59.6042 C   0  0  0  0  0  0  0  0  0  0  0  0
   29.3787   12.0484   60.6086 C   0  0  0  0  0  0  0  0  0  0  0  0
   29.7847   13.4956   60.6611 C   0  0  0  0  0  0  0  0  0  0  0  0
   28.9275   14.5515   60.5387 C   0  0  0  0  0  0  0  0  0  0  0  0
   29.3782   15.8726   60.6179 C   0  0  0  0  0  0  0  0  0  0  0  0
   30.6999   16.1239   60.8203 C   0  0  0  0  0  0  0  0  0  0  0  0
   31.6157   15.0800   60.9514 C   0  0  0  0  0  0  0  0  0  0  0  0
   31.1479   13.7930   60.8704 C   0  0  0  0  0  0  0  0  0  0  0  0
   22.4394    8.7048   54.6154 C   0  0  0  0  0  0  0  0  0  0  0  0
   21.4738    9.4388   54.7035 O   0  0  0  0  0  0  0  0  0  0  0  0
   22.6386    8.0979   53.2951 C   0  0  0  0  0  0  0  0  0  0  0  0
   24.0008    8.3626   52.8934 N   0  0  0  0  0  0  0  0  0  0  0  0
   25.2413    7.9216   53.2388 C   0  0  0  0  0  0  0  0  0  0  0  0
   25.5494    7.0758   54.0809 O   0  0  0  0  0  0  0  0  0  0  0  0
   24.0180    9.1262   52.0862 H   0  0  0  0  0  0  0  0  0  0  0  0
   26.4444    8.5253   52.5240 C   0  0  0  0  0  0  0  0  0  0  0  0
   27.6321    8.5490   53.3764 C   0  0  0  0  0  0  0  0  0  0  0  0
   28.2885    9.7082   53.6695 C   0  0  0  0  0  0  0  0  0  0  0  0
   29.3910    9.6846   54.4710 N   0  0  0  0  0  0  0  0  0  0  0  0
   29.8415    8.5256   54.9787 C   0  0  0  0  0  0  0  0  0  0  0  0
   29.1767    7.3284   54.6854 C   0  0  0  0  0  0  0  0  0  0  0  0
   28.1053    7.4059   53.8974 N   0  0  0  0  0  0  0  0  0  0  0  0
   21.2829    9.9925   52.1735 C   0  0  0  0  0  0  0  0  0  0  0  0
   21.7382    8.6073   52.1926 C   0  0  0  0  0  0  0  0  0  0  0  0
   22.5248    6.5707   53.2555 C   0  0  0  0  0  0  0  0  0  0  0  0
   21.1394    6.0455   53.4740 C   0  0  0  0  0  0  0  0  0  0  0  0
 35 36  1  0  0  0
 36 23  1  0  0  0
 23 37  1  0  0  0
 37 38  1  0  0  0
 23 24  1  0  0  0
 24 25  1  0  0  0
 25 26  2  0  0  0
 25 28  1  0  0  0
 28 29  1  0  0  0
 29 30  2  0  0  0
 30 31  1  0  0  0
 31 32  2  0  0  0
 32 33  1  0  0  0
 33 34  2  0  0  0
 23 21  1  0  0  0
 21 22  2  0  0  0
 21  1  1  0  0  0
  1  2  1  0  0  0
  2  3  1  0  0  0
  2  4  1  0  0  0
  2  5  1  0  0  0
  5  6  1  0  0  0
  6  7  1  0  0  0
  7  8  1  0  0  0
  8  9  1  0  0  0
  9 10  1  0  0  0
  8 11  1  0  0  0
 11 12  2  0  0  0
 11 13  1  0  0  0
 13 14  1  0  0  0
 14 15  1  0  0  0
 15 16  2  0  0  0
 16 17  1  0  0  0
 17 18  2  0  0  0
 18 19  1  0  0  0
 19 20  2  0  0  0
 34 29  1  0  0  0
 10  5  1  0  0  0
 20 15  1  0  0  0
 24 27  1  0  0  0
M  END
> <minimizedAffinity>
26.47452

> <CNNscore>
0.5238204002

> <CNNaffinity>
6.7430105209

> <CNN_VS>
3.5321264267

> <CNNaffinity_variance>
1.5250884295

$$$$
[H]O[C@]1([H])C([H])([H])C([H])([H])[C@]([H])(c2nc(-c3c([H])c([H])c(C(=O)N([H])c4nc([H])c([H])c(C(F)(F)F)c4[H])c([H])c3[H])c3c(N([H])[H])nc([H])c([H])n32)C([H])([H])C1([H])[H]


 40 44  0  0  0  0  0  0  0  0999 V2000
   26.5846    8.4096   52.6164 N   0  0  0  0  0  0  0  0  0  0  0  0
   27.4683    8.8792   53.6255 C   0  0  0  0  0  0  0  0  0  0  0  0
   28.7189    9.2852   53.2662 N   0  0  0  0  0  0  0  0  0  0  0  0
   29.5727    9.7379   54.1756 C   0  0  0  0  0  0  0  0  0  0  0  0
   29.2162    9.8115   55.4916 C   0  0  0  0  0  0  0  0  0  0  0  0
   27.9890    9.4239   55.8910 N   0  0  0  0  0  0  0  0  0  0  0  0
   27.3604    9.4090   57.0717 C   0  0  0  0  0  0  0  0  0  0  0  0
   26.1014    8.9352   56.8686 N   0  0  0  0  0  0  0  0  0  0  0  0
   25.9020    8.6409   55.5589 C   0  0  0  0  0  0  0  0  0  0  0  0
   27.1027    8.9490   54.9467 C   0  0  0  0  0  0  0  0  0  0  0  0
   26.6758    7.4783   52.1639 H   0  0  0  0  0  0  0  0  0  0  0  0
   25.8234    9.0486   52.3206 H   0  0  0  0  0  0  0  0  0  0  0  0
   27.9058    9.8124   58.3913 C   0  0  0  0  0  0  0  0  0  0  0  0
   28.7151   11.0387   58.4403 C   0  0  0  0  0  0  0  0  0  0  0  0
   29.2054   11.3237   59.8478 C   0  0  0  0  0  0  0  0  0  0  0  0
   29.6641   10.1469   60.6200 C   0  0  0  0  0  0  0  0  0  0  0  0
   30.9404   10.3265   61.1826 O   0  0  0  0  0  0  0  0  0  0  0  0
   29.6992    8.8443   59.8787 C   0  0  0  0  0  0  0  0  0  0  0  0
   28.4812    8.5930   59.0634 C   0  0  0  0  0  0  0  0  0  0  0  0
   31.4575    9.4741   61.2329 H   0  0  0  0  0  0  0  0  0  0  0  0
   24.6471    8.2277   54.9391 C   0  0  0  0  0  0  0  0  0  0  0  0
   23.5323    8.9879   54.8548 C   0  0  0  0  0  0  0  0  0  0  0  0
   22.3337    8.4289   54.3914 C   0  0  0  0  0  0  0  0  0  0  0  0
   22.2622    7.1282   54.0186 C   0  0  0  0  0  0  0  0  0  0  0  0
   23.4134    6.3396   54.0946 C   0  0  0  0  0  0  0  0  0  0  0  0
   24.5799    6.8907   54.5484 C   0  0  0  0  0  0  0  0  0  0  0  0
   21.0121    6.4228   53.6462 C   0  0  0  0  0  0  0  0  0  0  0  0
   20.2334    7.0199   52.8185 O   0  0  0  0  0  0  0  0  0  0  0  0
   20.7159    5.1732   54.1601 N   0  0  0  0  0  0  0  0  0  0  0  0
   21.3772    4.7402   54.8613 H   0  0  0  0  0  0  0  0  0  0  0  0
   19.6550    4.3157   53.6712 C   0  0  0  0  0  0  0  0  0  0  0  0
   18.3450    4.4249   54.0623 C   0  0  0  0  0  0  0  0  0  0  0  0
   17.3397    3.5656   53.5802 C   0  0  0  0  0  0  0  0  0  0  0  0
   17.6613    2.5796   52.6887 C   0  0  0  0  0  0  0  0  0  0  0  0
   18.9935    2.4857   52.3069 C   0  0  0  0  0  0  0  0  0  0  0  0
   19.9288    3.3149   52.7819 N   0  0  0  0  0  0  0  0  0  0  0  0
   15.9505    3.8008   54.0656 C   0  0  0  0  0  0  0  0  0  0  0  0
   15.0574    3.0861   53.3211 F   0  0  0  0  0  0  0  0  0  0  0  0
   15.7332    5.1876   53.9571 F   0  0  0  0  0  0  0  0  0  0  0  0
   15.9065    3.5041   55.4126 F   0  0  0  0  0  0  0  0  0  0  0  0
  1  2  1  0  0  0
  2  3  2  0  0  0
  3  4  1  0  0  0
  4  5  2  0  0  0
  5  6  1  0  0  0
  6  7  1  0  0  0
  7  8  2  0  0  0
  8  9  1  0  0  0
  9 21  1  0  0  0
 21 22  2  0  0  0
 22 23  1  0  0  0
 23 24  2  0  0  0
 24 25  1  0  0  0
 25 26  2  0  0  0
 24 27  1  0  0  0
 27 28  2  0  0  0
 27 29  1  0  0  0
 29 31  1  0  0  0
 31 32  2  0  0  0
 32 33  1  0  0  0
 33 34  2  0  0  0
 34 35  1  0  0  0
 35 36  2  0  0  0
 33 37  1  0  0  0
 37 38  1  0  0  0
 37 39  1  0  0  0
 37 40  1  0  0  0
  9 10  2  0  0  0
  7 13  1  0  0  0
 13 14  1  0  0  0
 14 15  1  0  0  0
 15 16  1  0  0  0
 16 17  1  0  0  0
 16 18  1  0  0  0
 18 19  1  0  0  0
 10  2  1  0  0  0
 19 13  1  0  0  0
 10  6  1  0  0  0
 26 21  1  0  0  0
 36 31  1  0  0  0
  1 11  1  0  0  0
  1 12  1  0  0  0
 29 30  1  0  0  0
 17 20  1  0  0  0
M  END
> <minimizedAffinity>
26.62508

> <CNNscore>
0.5604729056

> <CNNaffinity>
6.7761926651

> <CNN_VS>
3.7978723049

> <CNNaffinity_variance>
0.3085881472

$$$$
[H]O[C@]1([H])C([H])([H])C([H])([H])[C@]([H])(c2nc(-c3c([H])c([H])c(C(=O)N([H])c4nc([H])c([H])c(C(F)(F)F)c4[H])c([H])c3[H])c3c(N([H])[H])nc([H])c([H])n32)C([H])([H])C1([H])[H]


 40 44  0  0  0  0  0  0  0  0999 V2000
   28.6038    7.7893   54.8511 N   0  0  0  0  0  0  0  0  0  0  0  0
   27.3100    7.5767   54.3027 C   0  0  0  0  0  0  0  0  0  0  0  0
   27.1730    6.7085   53.2609 N   0  0  0  0  0  0  0  0  0  0  0  0
   25.9819    6.4751   52.7244 C   0  0  0  0  0  0  0  0  0  0  0  0
   24.8656    7.0961   53.2069 C   0  0  0  0  0  0  0  0  0  0  0  0
   24.9542    7.9595   54.2377 N   0  0  0  0  0  0  0  0  0  0  0  0
   24.0585    8.6755   54.9264 C   0  0  0  0  0  0  0  0  0  0  0  0
   24.7255    9.3562   55.8974 N   0  0  0  0  0  0  0  0  0  0  0  0
   26.0549    9.0877   55.8486 C   0  0  0  0  0  0  0  0  0  0  0  0
   26.1929    8.2059   54.7927 C   0  0  0  0  0  0  0  0  0  0  0  0
   29.3389    8.3541   54.3811 H   0  0  0  0  0  0  0  0  0  0  0  0
   28.8105    7.3389   55.7619 H   0  0  0  0  0  0  0  0  0  0  0  0
   22.5948    8.7546   54.6963 C   0  0  0  0  0  0  0  0  0  0  0  0
   21.7375    7.8681   55.4964 C   0  0  0  0  0  0  0  0  0  0  0  0
   20.2714    8.0563   55.1528 C   0  0  0  0  0  0  0  0  0  0  0  0
   19.9638    8.2219   53.7142 C   0  0  0  0  0  0  0  0  0  0  0  0
   18.9546    7.3502   53.2677 O   0  0  0  0  0  0  0  0  0  0  0  0
   21.1179    8.0646   52.7705 C   0  0  0  0  0  0  0  0  0  0  0  0
   22.3455    8.7793   53.2107 C   0  0  0  0  0  0  0  0  0  0  0  0
   19.0857    7.0708   52.3183 H   0  0  0  0  0  0  0  0  0  0  0  0
   27.0698    9.5322   56.7982 C   0  0  0  0  0  0  0  0  0  0  0  0
   27.7730    8.7237   57.6226 C   0  0  0  0  0  0  0  0  0  0  0  0
   28.5984    9.2748   58.6119 C   0  0  0  0  0  0  0  0  0  0  0  0
   28.7132   10.6162   58.7650 C   0  0  0  0  0  0  0  0  0  0  0  0
   27.9962   11.4574   57.9099 C   0  0  0  0  0  0  0  0  0  0  0  0
   27.1917   10.9134   56.9468 C   0  0  0  0  0  0  0  0  0  0  0  0
   29.4535   11.2814   59.8642 C   0  0  0  0  0  0  0  0  0  0  0  0
   30.1443   10.5262   60.6390 O   0  0  0  0  0  0  0  0  0  0  0  0
   29.4078   12.6541   60.0288 N   0  0  0  0  0  0  0  0  0  0  0  0
   28.7992   13.2256   59.3810 H   0  0  0  0  0  0  0  0  0  0  0  0
   30.2807   13.4041   60.9095 C   0  0  0  0  0  0  0  0  0  0  0  0
   30.3913   14.7710   60.8903 C   0  0  0  0  0  0  0  0  0  0  0  0
   31.2608   15.4695   61.7491 C   0  0  0  0  0  0  0  0  0  0  0  0
   32.0317   14.7774   62.6420 C   0  0  0  0  0  0  0  0  0  0  0  0
   31.9053   13.3942   62.6438 C   0  0  0  0  0  0  0  0  0  0  0  0
   31.0719   12.7559   61.8157 N   0  0  0  0  0  0  0  0  0  0  0  0
   31.2738   16.9560   61.6453 C   0  0  0  0  0  0  0  0  0  0  0  0
   31.6399   17.3436   60.3889 F   0  0  0  0  0  0  0  0  0  0  0  0
   32.1867   17.4031   62.6194 F   0  0  0  0  0  0  0  0  0  0  0  0
   30.0345   17.4275   62.0277 F   0  0  0  0  0  0  0  0  0  0  0  0
  1  2  1  0  0  0
  2  3  2  0  0  0
  3  4  1  0  0  0
  4  5  2  0  0  0
  5  6  1  0  0  0
  6  7  1  0  0  0
  7  8  2  0  0  0
  8  9  1  0  0  0
  9 21  1  0  0  0
 21 22  2  0  0  0
 22 23  1  0  0  0
 23 24  2  0  0  0
 24 25  1  0  0  0
 25 26  2  0  0  0
 24 27  1  0  0  0
 27 28  2  0  0  0
 27 29  1  0  0  0
 29 31  1  0  0  0
 31 32  2  0  0  0
 32 33  1  0  0  0
 33 34  2  0  0  0
 34 35  1  0  0  0
 35 36  2  0  0  0
 33 37  1  0  0  0
 37 38  1  0  0  0
 37 39  1  0  0  0
 37 40  1  0  0  0
  9 10  2  0  0  0
  7 13  1  0  0  0
 13 14  1  0  0  0
 14 15  1  0  0  0
 15 16  1  0  0  0
 16 17  1  0  0  0
 16 18  1  0  0  0
 18 19  1  0  0  0
 10  2  1  0  0  0
 19 13  1  0  0  0
 10  6  1  0  0  0
 26 21  1  0  0  0
 36 31  1  0  0  0
  1 11  1  0  0  0
  1 12  1  0  0  0
 29 30  1  0  0  0
 17 20  1  0  0  0
M  END
> <minimizedAffinity>
19.02478

> <CNNscore>
0.5318195820

> <CNNaffinity>
6.5039443970

> <CNN_VS>
3.4589250088

> <CNNaffinity_variance>
0.3977958560

$$$$
[H]O[C@]1([H])C([H])([H])C([H])([H])[C@]([H])(c2nc(-c3c([H])c([H])c(C(=O)N([H])c4nc([H])c([H])c(C(F)(F)F)c4[H])c([H])c3[H])c3c(N([H])[H])nc([H])c([H])n32)C([H])([H])C1([H])[H]


 40 44  0  0  0  0  0  0  0  0999 V2000
   26.0067    7.9965   52.5255 N   0  0  0  0  0  0  0  0  0  0  0  0
   26.9481    8.4370   53.4948 C   0  0  0  0  0  0  0  0  0  0  0  0
   28.2466    8.6098   53.1179 N   0  0  0  0  0  0  0  0  0  0  0  0
   29.1562    9.0271   53.9893 C   0  0  0  0  0  0  0  0  0  0  0  0
   28.8111    9.2973   55.2826 C   0  0  0  0  0  0  0  0  0  0  0  0
   27.5384    9.1435   55.6978 N   0  0  0  0  0  0  0  0  0  0  0  0
   26.9114    9.3524   56.8607 C   0  0  0  0  0  0  0  0  0  0  0  0
   25.5960    9.0524   56.6858 N   0  0  0  0  0  0  0  0  0  0  0  0
   25.3583    8.6491   55.4120 C   0  0  0  0  0  0  0  0  0  0  0  0
   26.5934    8.7053   54.7934 C   0  0  0  0  0  0  0  0  0  0  0  0
   25.9580    7.0181   52.1783 H   0  0  0  0  0  0  0  0  0  0  0  0
   25.3512    8.7055   52.1477 H   0  0  0  0  0  0  0  0  0  0  0  0
   27.5075    9.8124   58.1392 C   0  0  0  0  0  0  0  0  0  0  0  0
   28.3497   11.0166   58.0959 C   0  0  0  0  0  0  0  0  0  0  0  0
   28.8904   11.3648   59.4704 C   0  0  0  0  0  0  0  0  0  0  0  0
   29.3418   10.2199   60.2933 C   0  0  0  0  0  0  0  0  0  0  0  0
   30.6391   10.3946   60.8074 O   0  0  0  0  0  0  0  0  0  0  0  0
   29.3200    8.8781   59.6251 C   0  0  0  0  0  0  0  0  0  0  0  0
   28.0713    8.6163   58.8611 C   0  0  0  0  0  0  0  0  0  0  0  0
   31.1350    9.5322   60.8900 H   0  0  0  0  0  0  0  0  0  0  0  0
   24.0573    8.3622   54.8164 C   0  0  0  0  0  0  0  0  0  0  0  0
   22.9741    9.1683   54.8850 C   0  0  0  0  0  0  0  0  0  0  0  0
   21.7306    8.7157   54.4239 C   0  0  0  0  0  0  0  0  0  0  0  0
   21.5837    7.4739   53.9020 C   0  0  0  0  0  0  0  0  0  0  0  0
   22.7015    6.6392   53.8197 C   0  0  0  0  0  0  0  0  0  0  0  0
   23.9122    7.0865   54.2721 C   0  0  0  0  0  0  0  0  0  0  0  0
   20.2869    6.8669   53.5162 C   0  0  0  0  0  0  0  0  0  0  0  0
   19.8843    7.0728   52.3148 O   0  0  0  0  0  0  0  0  0  0  0  0
   19.5603    6.1032   54.4119 N   0  0  0  0  0  0  0  0  0  0  0  0
   19.9231    5.9905   55.3979 H   0  0  0  0  0  0  0  0  0  0  0  0
   18.4223    5.2804   54.0539 C   0  0  0  0  0  0  0  0  0  0  0  0
   18.5254    4.0802   53.3984 C   0  0  0  0  0  0  0  0  0  0  0  0
   17.3987    3.3114   53.0507 C   0  0  0  0  0  0  0  0  0  0  0  0
   16.1471    3.7611   53.3696 C   0  0  0  0  0  0  0  0  0  0  0  0
   16.0652    4.9793   54.0318 C   0  0  0  0  0  0  0  0  0  0  0  0
   17.1525    5.6900   54.3490 N   0  0  0  0  0  0  0  0  0  0  0  0
   17.6445    2.0146   52.3590 C   0  0  0  0  0  0  0  0  0  0  0  0
   18.9429    1.6261   52.5206 F   0  0  0  0  0  0  0  0  0  0  0  0
   17.3267    2.2329   51.0050 F   0  0  0  0  0  0  0  0  0  0  0  0
   16.7315    1.0930   52.8295 F   0  0  0  0  0  0  0  0  0  0  0  0
  1  2  1  0  0  0
  2  3  2  0  0  0
  3  4  1  0  0  0
  4  5  2  0  0  0
  5  6  1  0  0  0
  6  7  1  0  0  0
  7  8  2  0  0  0
  8  9  1  0  0  0
  9 21  1  0  0  0
 21 22  2  0  0  0
 22 23  1  0  0  0
 23 24  2  0  0  0
 24 25  1  0  0  0
 25 26  2  0  0  0
 24 27  1  0  0  0
 27 28  2  0  0  0
 27 29  1  0  0  0
 29 31  1  0  0  0
 31 32  2  0  0  0
 32 33  1  0  0  0
 33 34  2  0  0  0
 34 35  1  0  0  0
 35 36  2  0  0  0
 33 37  1  0  0  0
 37 38  1  0  0  0
 37 39  1  0  0  0
 37 40  1  0  0  0
  9 10  2  0  0  0
  7 13  1  0  0  0
 13 14  1  0  0  0
 14 15  1  0  0  0
 15 16  1  0  0  0
 16 17  1  0  0  0
 16 18  1  0  0  0
 18 19  1  0  0  0
 10  2  1  0  0  0
 19 13  1  0  0  0
 10  6  1  0  0  0
 26 21  1  0  0  0
 36 31  1  0  0  0
  1 11  1  0  0  0
  1 12  1  0  0  0
 29 30  1  0  0  0
 17 20  1  0  0  0
M  END
> <minimizedAffinity>
36.12758

> <CNNscore>
0.5105870962

> <CNNaffinity>
6.6767182350

> <CNN_VS>
3.4090461731

> <CNNaffinity_variance>
0.7769840360

$$$$
[H]O[C@]1([H])C([H])([H])C([H])([H])[C@]([H])(c2nc(-c3c([H])c([H])c(C(=O)N([H])c4nc([H])c([H])c(C(F)(F)F)c4[H])c([H])c3[H])c3c(N([H])[H])nc([H])c([H])n32)C([H])([H])C1([H])[H]


 40 44  0  0  0  0  0  0  0  0999 V2000
   28.0962    9.3524   53.1128 N   0  0  0  0  0  0  0  0  0  0  0  0
   28.8430   10.1030   54.0607 C   0  0  0  0  0  0  0  0  0  0  0  0
   29.9119   10.8295   53.6278 N   0  0  0  0  0  0  0  0  0  0  0  0
   30.6315   11.5505   54.4782 C   0  0  0  0  0  0  0  0  0  0  0  0
   30.3147   11.5845   55.8060 C   0  0  0  0  0  0  0  0  0  0  0  0
   29.2642   10.8842   56.2772 N   0  0  0  0  0  0  0  0  0  0  0  0
   28.7075   10.7494   57.4860 C   0  0  0  0  0  0  0  0  0  0  0  0
   27.6304    9.9279   57.3605 N   0  0  0  0  0  0  0  0  0  0  0  0
   27.4783    9.5249   56.0735 C   0  0  0  0  0  0  0  0  0  0  0  0
   28.5187   10.1310   55.3942 C   0  0  0  0  0  0  0  0  0  0  0  0
   28.4342    8.4643   52.6916 H   0  0  0  0  0  0  0  0  0  0  0  0
   27.1742    9.7332   52.8296 H   0  0  0  0  0  0  0  0  0  0  0  0
   29.1600   11.3558   58.7624 C   0  0  0  0  0  0  0  0  0  0  0  0
   29.2816   10.4658   59.9261 C   0  0  0  0  0  0  0  0  0  0  0  0
   29.7495   11.2218   61.1559 C   0  0  0  0  0  0  0  0  0  0  0  0
   29.1507   12.5611   61.3543 C   0  0  0  0  0  0  0  0  0  0  0  0
   28.6179   12.7356   62.6440 O   0  0  0  0  0  0  0  0  0  0  0  0
   28.0745   12.9525   60.3867 C   0  0  0  0  0  0  0  0  0  0  0  0
   28.4099   12.6456   58.9708 C   0  0  0  0  0  0  0  0  0  0  0  0
   27.8177   13.3325   62.6476 H   0  0  0  0  0  0  0  0  0  0  0  0
   26.3734    8.7419   55.5297 C   0  0  0  0  0  0  0  0  0  0  0  0
   26.4914    7.7726   54.5946 C   0  0  0  0  0  0  0  0  0  0  0  0
   25.3452    7.2049   54.0221 C   0  0  0  0  0  0  0  0  0  0  0  0
   24.1039    7.6066   54.3876 C   0  0  0  0  0  0  0  0  0  0  0  0
   23.9751    8.6016   55.3605 C   0  0  0  0  0  0  0  0  0  0  0  0
   25.0975    9.1523   55.9149 C   0  0  0  0  0  0  0  0  0  0  0  0
   22.8461    7.1595   53.7418 C   0  0  0  0  0  0  0  0  0  0  0  0
   22.9571    6.5326   52.6272 O   0  0  0  0  0  0  0  0  0  0  0  0
   21.6167    7.3980   54.3293 N   0  0  0  0  0  0  0  0  0  0  0  0
   21.5805    7.9452   55.2325 H   0  0  0  0  0  0  0  0  0  0  0  0
   20.3717    6.7925   53.9010 C   0  0  0  0  0  0  0  0  0  0  0  0
   20.1190    5.4458   53.9599 C   0  0  0  0  0  0  0  0  0  0  0  0
   18.9041    4.8864   53.5211 C   0  0  0  0  0  0  0  0  0  0  0  0
   17.9279    5.6993   53.0143 C   0  0  0  0  0  0  0  0  0  0  0  0
   18.2048    7.0594   52.9625 C   0  0  0  0  0  0  0  0  0  0  0  0
   19.3687    7.5640   53.3852 N   0  0  0  0  0  0  0  0  0  0  0  0
   18.7434    3.4112   53.6576 C   0  0  0  0  0  0  0  0  0  0  0  0
   17.4402    3.0534   53.4665 F   0  0  0  0  0  0  0  0  0  0  0  0
   19.1906    3.0925   54.9539 F   0  0  0  0  0  0  0  0  0  0  0  0
   19.6167    2.7978   52.7828 F   0  0  0  0  0  0  0  0  0  0  0  0
  1  2  1  0  0  0
  2  3  2  0  0  0
  3  4  1  0  0  0
  4  5  2  0  0  0
  5  6  1  0  0  0
  6  7  1  0  0  0
  7  8  2  0  0  0
  8  9  1  0  0  0
  9 21  1  0  0  0
 21 22  2  0  0  0
 22 23  1  0  0  0
 23 24  2  0  0  0
 24 25  1  0  0  0
 25 26  2  0  0  0
 24 27  1  0  0  0
 27 28  2  0  0  0
 27 29  1  0  0  0
 29 31  1  0  0  0
 31 32  2  0  0  0
 32 33  1  0  0  0
 33 34  2  0  0  0
 34 35  1  0  0  0
 35 36  2  0  0  0
 33 37  1  0  0  0
 37 38  1  0  0  0
 37 39  1  0  0  0
 37 40  1  0  0  0
  9 10  2  0  0  0
  7 13  1  0  0  0
 13 14  1  0  0  0
 14 15  1  0  0  0
 15 16  1  0  0  0
 16 17  1  0  0  0
 16 18  1  0  0  0
 18 19  1  0  0  0
 10  2  1  0  0  0
 19 13  1  0  0  0
 10  6  1  0  0  0
 26 21  1  0  0  0
 36 31  1  0  0  0
  1 11  1  0  0  0
  1 12  1  0  0  0
 29 30  1  0  0  0
 17 20  1  0  0  0
M  END
> <minimizedAffinity>
40.62871

> <CNNscore>
0.4204633832

> <CNNaffinity>
6.3243937492

> <CNN_VS>
2.6591761112

> <CNNaffinity_variance>
0.7128887773

$$$$
[H]O[C@]1([H])C([H])([H])C([H])([H])[C@]([H])(c2nc(-c3c([H])c([H])c(C(=O)N([H])c4nc([H])c([H])c(C(F)(F)F)c4[H])c([H])c3[H])c3c(N([H])[H])nc([H])c([H])n32)C([H])([H])C1([H])[H]


 40 44  0  0  0  0  0  0  0  0999 V2000
   19.0421    7.3049   53.2276 N   0  0  0  0  0  0  0  0  0  0  0  0
   19.7353    6.0708   53.3552 C   0  0  0  0  0  0  0  0  0  0  0  0
   19.0141    4.9276   53.5301 N   0  0  0  0  0  0  0  0  0  0  0  0
   19.6212    3.7533   53.6457 C   0  0  0  0  0  0  0  0  0  0  0  0
   20.9825    3.6630   53.5878 C   0  0  0  0  0  0  0  0  0  0  0  0
   21.7348    4.7672   53.4128 N   0  0  0  0  0  0  0  0  0  0  0  0
   23.0491    4.9831   53.2892 C   0  0  0  0  0  0  0  0  0  0  0  0
   23.2371    6.3167   53.0967 N   0  0  0  0  0  0  0  0  0  0  0  0
   22.0506    6.9755   53.0923 C   0  0  0  0  0  0  0  0  0  0  0  0
   21.1043    5.9887   53.2971 C   0  0  0  0  0  0  0  0  0  0  0  0
   18.5971    7.7968   54.0278 H   0  0  0  0  0  0  0  0  0  0  0  0
   18.9766    7.7136   52.2769 H   0  0  0  0  0  0  0  0  0  0  0  0
   24.1404    3.9802   53.3589 C   0  0  0  0  0  0  0  0  0  0  0  0
   25.1548    4.0122   52.2953 C   0  0  0  0  0  0  0  0  0  0  0  0
   26.2019    2.9322   52.4951 C   0  0  0  0  0  0  0  0  0  0  0  0
   25.6918    1.6160   52.9411 C   0  0  0  0  0  0  0  0  0  0  0  0
   26.1507    0.5532   52.1426 O   0  0  0  0  0  0  0  0  0  0  0  0
   24.2011    1.4801   53.0246 C   0  0  0  0  0  0  0  0  0  0  0  0
   23.5358    2.6379   53.6790 C   0  0  0  0  0  0  0  0  0  0  0  0
   25.4817   -0.1842   52.0694 H   0  0  0  0  0  0  0  0  0  0  0  0
   21.8387    8.3883   52.7944 C   0  0  0  0  0  0  0  0  0  0  0  0
   21.4907    8.8863   51.5866 C   0  0  0  0  0  0  0  0  0  0  0  0
   21.4809   10.2714   51.3736 C   0  0  0  0  0  0  0  0  0  0  0  0
   21.8143   11.1371   52.3613 C   0  0  0  0  0  0  0  0  0  0  0  0
   22.1658   10.6289   53.6147 C   0  0  0  0  0  0  0  0  0  0  0  0
   22.1742    9.2762   53.8161 C   0  0  0  0  0  0  0  0  0  0  0  0
   21.9606   12.6024   52.1874 C   0  0  0  0  0  0  0  0  0  0  0  0
   22.8385   13.1887   52.9177 O   0  0  0  0  0  0  0  0  0  0  0  0
   21.1930   13.2935   51.2672 N   0  0  0  0  0  0  0  0  0  0  0  0
   20.4637   12.7666   50.7131 H   0  0  0  0  0  0  0  0  0  0  0  0
   21.4354   14.6631   50.8606 C   0  0  0  0  0  0  0  0  0  0  0  0
   22.5829   15.0816   50.2370 C   0  0  0  0  0  0  0  0  0  0  0  0
   22.7948   16.4235   49.8683 C   0  0  0  0  0  0  0  0  0  0  0  0
   21.8328   17.3588   50.1334 C   0  0  0  0  0  0  0  0  0  0  0  0
   20.6793   16.9141   50.7666 C   0  0  0  0  0  0  0  0  0  0  0  0
   20.5047   15.6329   51.1071 N   0  0  0  0  0  0  0  0  0  0  0  0
   24.0746   16.7473   49.1771 C   0  0  0  0  0  0  0  0  0  0  0  0
   23.8325   17.4243   48.0170 F   0  0  0  0  0  0  0  0  0  0  0  0
   24.7094   15.5129   48.9418 F   0  0  0  0  0  0  0  0  0  0  0  0
   24.8805   17.4376   50.0594 F   0  0  0  0  0  0  0  0  0  0  0  0
  1  2  1  0  0  0
  2  3  2  0  0  0
  3  4  1  0  0  0
  4  5  2  0  0  0
  5  6  1  0  0  0
  6  7  1  0  0  0
  7  8  2  0  0  0
  8  9  1  0  0  0
  9 21  1  0  0  0
 21 22  2  0  0  0
 22 23  1  0  0  0
 23 24  2  0  0  0
 24 25  1  0  0  0
 25 26  2  0  0  0
 24 27  1  0  0  0
 27 28  2  0  0  0
 27 29  1  0  0  0
 29 31  1  0  0  0
 31 32  2  0  0  0
 32 33  1  0  0  0
 33 34  2  0  0  0
 34 35  1  0  0  0
 35 36  2  0  0  0
 33 37  1  0  0  0
 37 38  1  0  0  0
 37 39  1  0  0  0
 37 40  1  0  0  0
  9 10  2  0  0  0
  7 13  1  0  0  0
 13 14  1  0  0  0
 14 15  1  0  0  0
 15 16  1  0  0  0
 16 17  1  0  0  0
 16 18  1  0  0  0
 18 19  1  0  0  0
 10  2  1  0  0  0
 19 13  1  0  0  0
 10  6  1  0  0  0
 26 21  1  0  0  0
 36 31  1  0  0  0
  1 11  1  0  0  0
  1 12  1  0  0  0
 29 30  1  0  0  0
 17 20  1  0  0  0
M  END
> <minimizedAffinity>
63.81308

> <CNNscore>
0.4061100483

> <CNNaffinity>
5.9871296883

> <CNN_VS>
2.4314334393

> <CNNaffinity_variance>
0.5724504590

$$$$
[H]O[C@]1([H])C([H])([H])C([H])([H])[C@]([H])(c2nc(-c3c([H])c([H])c(C(=O)N([H])c4nc([H])c([H])c(C(F)(F)F)c4[H])c([H])c3[H])c3c(N([H])[H])nc([H])c([H])n32)C([H])([H])C1([H])[H]


 40 44  0  0  0  0  0  0  0  0999 V2000
   23.6184    6.2545   54.6568 N   0  0  0  0  0  0  0  0  0  0  0  0
   22.6718    6.9103   53.8239 C   0  0  0  0  0  0  0  0  0  0  0  0
   21.7107    6.1648   53.2089 N   0  0  0  0  0  0  0  0  0  0  0  0
   20.8028    6.7380   52.4291 C   0  0  0  0  0  0  0  0  0  0  0  0
   20.8080    8.0887   52.2288 C   0  0  0  0  0  0  0  0  0  0  0  0
   21.7379    8.8647   52.8197 N   0  0  0  0  0  0  0  0  0  0  0  0
   21.9714   10.1817   52.8360 C   0  0  0  0  0  0  0  0  0  0  0  0
   23.0444   10.4056   53.6419 N   0  0  0  0  0  0  0  0  0  0  0  0
   23.5142    9.2403   54.1549 C   0  0  0  0  0  0  0  0  0  0  0  0
   22.6846    8.2686   53.6267 C   0  0  0  0  0  0  0  0  0  0  0  0
   24.4037    5.6812   54.2895 H   0  0  0  0  0  0  0  0  0  0  0  0
   23.4951    6.3545   55.6815 H   0  0  0  0  0  0  0  0  0  0  0  0
   21.2287   11.2406   52.1089 C   0  0  0  0  0  0  0  0  0  0  0  0
   21.7159   11.6089   50.7716 C   0  0  0  0  0  0  0  0  0  0  0  0
   20.8639   12.7014   50.1526 C   0  0  0  0  0  0  0  0  0  0  0  0
   20.4396   13.7837   51.0694 C   0  0  0  0  0  0  0  0  0  0  0  0
   20.7245   15.0666   50.5687 O   0  0  0  0  0  0  0  0  0  0  0  0
   21.0000   13.7288   52.4587 C   0  0  0  0  0  0  0  0  0  0  0  0
   20.9513   12.3716   53.0646 C   0  0  0  0  0  0  0  0  0  0  0  0
   20.9390   15.7189   51.2934 H   0  0  0  0  0  0  0  0  0  0  0  0
   24.5705    9.0886   55.1502 C   0  0  0  0  0  0  0  0  0  0  0  0
   24.4602    9.4105   56.4587 C   0  0  0  0  0  0  0  0  0  0  0  0
   25.5903    9.3833   57.2870 C   0  0  0  0  0  0  0  0  0  0  0  0
   26.8078    9.0361   56.8042 C   0  0  0  0  0  0  0  0  0  0  0  0
   26.9266    8.6932   55.4546 C   0  0  0  0  0  0  0  0  0  0  0  0
   25.8202    8.7224   54.6513 C   0  0  0  0  0  0  0  0  0  0  0  0
   28.0742    9.1095   57.5722 C   0  0  0  0  0  0  0  0  0  0  0  0
   29.1019    9.5677   56.9543 O   0  0  0  0  0  0  0  0  0  0  0  0
   28.1311    8.7148   58.8967 N   0  0  0  0  0  0  0  0  0  0  0  0
   27.2625    8.3167   59.3481 H   0  0  0  0  0  0  0  0  0  0  0  0
   29.2468    8.9771   59.7835 C   0  0  0  0  0  0  0  0  0  0  0  0
   29.4834   10.1931   60.3721 C   0  0  0  0  0  0  0  0  0  0  0  0
   30.5859   10.4203   61.2172 C   0  0  0  0  0  0  0  0  0  0  0  0
   31.4644    9.4037   61.4728 C   0  0  0  0  0  0  0  0  0  0  0  0
   31.2070    8.1812   60.8658 C   0  0  0  0  0  0  0  0  0  0  0  0
   30.1522    7.9934   60.0658 N   0  0  0  0  0  0  0  0  0  0  0  0
   30.7206   11.7798   61.8124 C   0  0  0  0  0  0  0  0  0  0  0  0
   31.8330   11.8477   62.6004 F   0  0  0  0  0  0  0  0  0  0  0  0
   29.5411   11.9971   62.5498 F   0  0  0  0  0  0  0  0  0  0  0  0
   30.7147   12.7037   60.7874 F   0  0  0  0  0  0  0  0  0  0  0  0
  1  2  1  0  0  0
  2  3  2  0  0  0
  3  4  1  0  0  0
  4  5  2  0  0  0
  5  6  1  0  0  0
  6  7  1  0  0  0
  7  8  2  0  0  0
  8  9  1  0  0  0
  9 21  1  0  0  0
 21 22  2  0  0  0
 22 23  1  0  0  0
 23 24  2  0  0  0
 24 25  1  0  0  0
 25 26  2  0  0  0
 24 27  1  0  0  0
 27 28  2  0  0  0
 27 29  1  0  0  0
 29 31  1  0  0  0
 31 32  2  0  0  0
 32 33  1  0  0  0
 33 34  2  0  0  0
 34 35  1  0  0  0
 35 36  2  0  0  0
 33 37  1  0  0  0
 37 38  1  0  0  0
 37 39  1  0  0  0
 37 40  1  0  0  0
  9 10  2  0  0  0
  7 13  1  0  0  0
 13 14  1  0  0  0
 14 15  1  0  0  0
 15 16  1  0  0  0
 16 17  1  0  0  0
 16 18  1  0  0  0
 18 19  1  0  0  0
 10  2  1  0  0  0
 19 13  1  0  0  0
 10  6  1  0  0  0
 26 21  1  0  0  0
 36 31  1  0  0  0
  1 11  1  0  0  0
  1 12  1  0  0  0
 29 30  1  0  0  0
 17 20  1  0  0  0
M  END
> <minimizedAffinity>
24.40223

> <CNNscore>
0.3861147463

> <CNNaffinity>
6.4574561119

> <CNN_VS>
2.4933190346

> <CNNaffinity_variance>
0.0870223418

$$$$
[H]O[C@]1([H])C([H])([H])C([H])([H])[C@]([H])(c2nc(-c3c([H])c([H])c(C(=O)N([H])c4nc([H])c([H])c(C(F)(F)F)c4[H])c([H])c3[H])c3c(N([H])[H])nc([H])c([H])n32)C([H])([H])C1([H])[H]


 40 44  0  0  0  0  0  0  0  0999 V2000
   23.0970    9.7983   54.6911 N   0  0  0  0  0  0  0  0  0  0  0  0
   22.7303    8.5825   54.0530 C   0  0  0  0  0  0  0  0  0  0  0  0
   21.4940    8.4844   53.4877 N   0  0  0  0  0  0  0  0  0  0  0  0
   21.1144    7.3701   52.8753 C   0  0  0  0  0  0  0  0  0  0  0  0
   21.9556    6.2976   52.7937 C   0  0  0  0  0  0  0  0  0  0  0  0
   23.1882    6.3517   53.3357 N   0  0  0  0  0  0  0  0  0  0  0  0
   24.2162    5.4974   53.3872 C   0  0  0  0  0  0  0  0  0  0  0  0
   25.2361    6.1105   54.0466 N   0  0  0  0  0  0  0  0  0  0  0  0
   24.8808    7.3641   54.4262 C   0  0  0  0  0  0  0  0  0  0  0  0
   23.5815    7.5083   53.9764 C   0  0  0  0  0  0  0  0  0  0  0  0
   22.7314   10.0905   55.6191 H   0  0  0  0  0  0  0  0  0  0  0  0
   23.7543   10.4187   54.1829 H   0  0  0  0  0  0  0  0  0  0  0  0
   24.2713    4.1157   52.8492 C   0  0  0  0  0  0  0  0  0  0  0  0
   23.7240    3.0419   53.6910 C   0  0  0  0  0  0  0  0  0  0  0  0
   23.8504    1.6889   53.0157 C   0  0  0  0  0  0  0  0  0  0  0  0
   25.1234    1.4428   52.3011 C   0  0  0  0  0  0  0  0  0  0  0  0
   25.7314    0.2297   52.6705 O   0  0  0  0  0  0  0  0  0  0  0  0
   26.1705    2.5076   52.4332 C   0  0  0  0  0  0  0  0  0  0  0  0
   25.6394    3.8860   52.2617 C   0  0  0  0  0  0  0  0  0  0  0  0
   26.7280    0.2785   52.6390 H   0  0  0  0  0  0  0  0  0  0  0  0
   25.7436    8.3657   55.0443 C   0  0  0  0  0  0  0  0  0  0  0  0
   27.0762    8.4762   54.8447 C   0  0  0  0  0  0  0  0  0  0  0  0
   27.8318    9.3658   55.6202 C   0  0  0  0  0  0  0  0  0  0  0  0
   27.2531   10.1303   56.5776 C   0  0  0  0  0  0  0  0  0  0  0  0
   25.8745   10.0276   56.7824 C   0  0  0  0  0  0  0  0  0  0  0  0
   25.1428    9.1571   56.0228 C   0  0  0  0  0  0  0  0  0  0  0  0
   27.9912   10.9944   57.5303 C   0  0  0  0  0  0  0  0  0  0  0  0
   27.9484   12.2598   57.3191 O   0  0  0  0  0  0  0  0  0  0  0  0
   28.6777   10.4530   58.6023 N   0  0  0  0  0  0  0  0  0  0  0  0
   28.7055    9.4025   58.7122 H   0  0  0  0  0  0  0  0  0  0  0  0
   29.2136   11.2235   59.7065 C   0  0  0  0  0  0  0  0  0  0  0  0
   28.9608   12.5577   59.8989 C   0  0  0  0  0  0  0  0  0  0  0  0
   29.5096   13.2821   60.9738 C   0  0  0  0  0  0  0  0  0  0  0  0
   30.3273   12.6499   61.8695 C   0  0  0  0  0  0  0  0  0  0  0  0
   30.5714   11.2994   61.6554 C   0  0  0  0  0  0  0  0  0  0  0  0
   30.0377   10.6357   60.6246 N   0  0  0  0  0  0  0  0  0  0  0  0
   29.1415   14.7217   61.0851 C   0  0  0  0  0  0  0  0  0  0  0  0
   27.8405   14.8528   61.4764 F   0  0  0  0  0  0  0  0  0  0  0  0
   29.3648   15.2770   59.8108 F   0  0  0  0  0  0  0  0  0  0  0  0
   30.0373   15.3330   61.9385 F   0  0  0  0  0  0  0  0  0  0  0  0
  1  2  1  0  0  0
  2  3  2  0  0  0
  3  4  1  0  0  0
  4  5  2  0  0  0
  5  6  1  0  0  0
  6  7  1  0  0  0
  7  8  2  0  0  0
  8  9  1  0  0  0
  9 21  1  0  0  0
 21 22  2  0  0  0
 22 23  1  0  0  0
 23 24  2  0  0  0
 24 25  1  0  0  0
 25 26  2  0  0  0
 24 27  1  0  0  0
 27 28  2  0  0  0
 27 29  1  0  0  0
 29 31  1  0  0  0
 31 32  2  0  0  0
 32 33  1  0  0  0
 33 34  2  0  0  0
 34 35  1  0  0  0
 35 36  2  0  0  0
 33 37  1  0  0  0
 37 38  1  0  0  0
 37 39  1  0  0  0
 37 40  1  0  0  0
  9 10  2  0  0  0
  7 13  1  0  0  0
 13 14  1  0  0  0
 14 15  1  0  0  0
 15 16  1  0  0  0
 16 17  1  0  0  0
 16 18  1  0  0  0
 18 19  1  0  0  0
 10  2  1  0  0  0
 19 13  1  0  0  0
 10  6  1  0  0  0
 26 21  1  0  0  0
 36 31  1  0  0  0
  1 11  1  0  0  0
  1 12  1  0  0  0
 29 30  1  0  0  0
 17 20  1  0  0  0
M  END
> <minimizedAffinity>
36.93573

> <CNNscore>
0.3560917675

> <CNNaffinity>
6.4688506126

> <CNN_VS>
2.3035044670

> <CNNaffinity_variance>
0.1989777386

$$$$
[H]O[C@]1([H])C([H])([H])C([H])([H])[C@]([H])(c2nc(-c3c([H])c([H])c(C(=O)N([H])c4nc([H])c([H])c(C(F)(F)F)c4[H])c([H])c3[H])c3c(N([H])[H])nc([H])c([H])n32)C([H])([H])C1([H])[H]


 40 44  0  0  0  0  0  0  0  0999 V2000
   21.1745    5.6945   53.0250 N   0  0  0  0  0  0  0  0  0  0  0  0
   21.0407    6.9599   52.3920 C   0  0  0  0  0  0  0  0  0  0  0  0
   20.5671    7.0085   51.1149 N   0  0  0  0  0  0  0  0  0  0  0  0
   20.4193    8.1696   50.4897 C   0  0  0  0  0  0  0  0  0  0  0  0
   20.7342    9.3428   51.1134 C   0  0  0  0  0  0  0  0  0  0  0  0
   21.2026    9.3420   52.3769 N   0  0  0  0  0  0  0  0  0  0  0  0
   21.5574   10.3054   53.2344 C   0  0  0  0  0  0  0  0  0  0  0  0
   21.9285    9.7109   54.4004 N   0  0  0  0  0  0  0  0  0  0  0  0
   21.8169    8.3613   54.3108 C   0  0  0  0  0  0  0  0  0  0  0  0
   21.3607    8.1348   53.0255 C   0  0  0  0  0  0  0  0  0  0  0  0
   21.9306    5.0183   52.7983 H   0  0  0  0  0  0  0  0  0  0  0  0
   20.4640    5.4457   53.7381 H   0  0  0  0  0  0  0  0  0  0  0  0
   21.5734   11.7694   52.9931 C   0  0  0  0  0  0  0  0  0  0  0  0
   20.6068   12.5867   53.7406 C   0  0  0  0  0  0  0  0  0  0  0  0
   20.7371   14.0577   53.3912 C   0  0  0  0  0  0  0  0  0  0  0  0
   20.9566   14.3619   51.9591 C   0  0  0  0  0  0  0  0  0  0  0  0
   20.0577   15.3217   51.4606 O   0  0  0  0  0  0  0  0  0  0  0  0
   20.9040   13.1937   51.0210 C   0  0  0  0  0  0  0  0  0  0  0  0
   21.6576   12.0078   51.5079 C   0  0  0  0  0  0  0  0  0  0  0  0
   19.8318   15.1689   50.5003 H   0  0  0  0  0  0  0  0  0  0  0  0
   22.0064    7.3970   55.3896 C   0  0  0  0  0  0  0  0  0  0  0  0
   21.8301    7.6548   56.7050 C   0  0  0  0  0  0  0  0  0  0  0  0
   22.2049    6.7042   57.6640 C   0  0  0  0  0  0  0  0  0  0  0  0
   22.7457    5.5156   57.3022 C   0  0  0  0  0  0  0  0  0  0  0  0
   22.9218    5.2394   55.9436 C   0  0  0  0  0  0  0  0  0  0  0  0
   22.5548    6.1715   55.0126 C   0  0  0  0  0  0  0  0  0  0  0  0
   23.2919    4.5124   58.2477 C   0  0  0  0  0  0  0  0  0  0  0  0
   23.8526    3.4774   57.7357 O   0  0  0  0  0  0  0  0  0  0  0  0
   23.2099    4.7002   59.6157 N   0  0  0  0  0  0  0  0  0  0  0  0
   22.7109    5.5557   59.9842 H   0  0  0  0  0  0  0  0  0  0  0  0
   23.9219    3.9061   60.5968 C   0  0  0  0  0  0  0  0  0  0  0  0
   25.2862    3.9115   60.7371 C   0  0  0  0  0  0  0  0  0  0  0  0
   25.9496    3.1162   61.6904 C   0  0  0  0  0  0  0  0  0  0  0  0
   25.2245    2.3017   62.5158 C   0  0  0  0  0  0  0  0  0  0  0  0
   23.8447    2.3104   62.3561 C   0  0  0  0  0  0  0  0  0  0  0  0
   23.2404    3.0753   61.4409 N   0  0  0  0  0  0  0  0  0  0  0  0
   27.4340    3.2279   61.7582 C   0  0  0  0  0  0  0  0  0  0  0  0
   27.9597    3.3677   60.5064 F   0  0  0  0  0  0  0  0  0  0  0  0
   27.8815    2.0504   62.3868 F   0  0  0  0  0  0  0  0  0  0  0  0
   27.7516    4.2677   62.6080 F   0  0  0  0  0  0  0  0  0  0  0  0
  1  2  1  0  0  0
  2  3  2  0  0  0
  3  4  1  0  0  0
  4  5  2  0  0  0
  5  6  1  0  0  0
  6  7  1  0  0  0
  7  8  2  0  0  0
  8  9  1  0  0  0
  9 21  1  0  0  0
 21 22  2  0  0  0
 22 23  1  0  0  0
 23 24  2  0  0  0
 24 25  1  0  0  0
 25 26  2  0  0  0
 24 27  1  0  0  0
 27 28  2  0  0  0
 27 29  1  0  0  0
 29 31  1  0  0  0
 31 32  2  0  0  0
 32 33  1  0  0  0
 33 34  2  0  0  0
 34 35  1  0  0  0
 35 36  2  0  0  0
 33 37  1  0  0  0
 37 38  1  0  0  0
 37 39  1  0  0  0
 37 40  1  0  0  0
  9 10  2  0  0  0
  7 13  1  0  0  0
 13 14  1  0  0  0
 14 15  1  0  0  0
 15 16  1  0  0  0
 16 17  1  0  0  0
 16 18  1  0  0  0
 18 19  1  0  0  0
 10  2  1  0  0  0
 19 13  1  0  0  0
 10  6  1  0  0  0
 26 21  1  0  0  0
 36 31  1  0  0  0
  1 11  1  0  0  0
  1 12  1  0  0  0
 29 30  1  0  0  0
 17 20  1  0  0  0
M  END
> <minimizedAffinity>
38.16370

> <CNNscore>
0.3342721164

> <CNNaffinity>
6.2737150192

> <CNN_VS>
2.0971279144

> <CNNaffinity_variance>
0.3099725246

$$$$
[H]O[C@]1([H])C([H])([H])C([H])([H])[C@]([H])(c2nc(-c3c([H])c([H])c(C(=O)N([H])c4nc([H])c([H])c(C(F)(F)F)c4[H])c([H])c3[H])c3c(N([H])[H])nc([H])c([H])n32)C([H])([H])C1([H])[H]


 40 44  0  0  0  0  0  0  0  0999 V2000
   26.1161    7.9328   52.5549 N   0  0  0  0  0  0  0  0  0  0  0  0
   27.0400    8.3675   53.5435 C   0  0  0  0  0  0  0  0  0  0  0  0
   28.3561    8.4810   53.2076 N   0  0  0  0  0  0  0  0  0  0  0  0
   29.2506    8.8907   54.0979 C   0  0  0  0  0  0  0  0  0  0  0  0
   28.8723    9.2124   55.3699 C   0  0  0  0  0  0  0  0  0  0  0  0
   27.5812    9.1182   55.7444 N   0  0  0  0  0  0  0  0  0  0  0  0
   26.9233    9.3851   56.8781 C   0  0  0  0  0  0  0  0  0  0  0  0
   25.6042    9.1285   56.6658 N   0  0  0  0  0  0  0  0  0  0  0  0
   25.3950    8.6958   55.3966 C   0  0  0  0  0  0  0  0  0  0  0  0
   26.6516    8.6878   54.8205 C   0  0  0  0  0  0  0  0  0  0  0  0
   26.0422    6.9468   52.2347 H   0  0  0  0  0  0  0  0  0  0  0  0
   25.5010    8.6537   52.1338 H   0  0  0  0  0  0  0  0  0  0  0  0
   27.4925    9.8614   58.1629 C   0  0  0  0  0  0  0  0  0  0  0  0
   28.3163   11.0784   58.1256 C   0  0  0  0  0  0  0  0  0  0  0  0
   28.8304   11.4426   59.5061 C   0  0  0  0  0  0  0  0  0  0  0  0
   29.2872   10.3094   60.3422 C   0  0  0  0  0  0  0  0  0  0  0  0
   30.5735   10.5074   60.8749 O   0  0  0  0  0  0  0  0  0  0  0  0
   29.2966    8.9638   59.6814 C   0  0  0  0  0  0  0  0  0  0  0  0
   28.0640    8.6782   58.9000 C   0  0  0  0  0  0  0  0  0  0  0  0
   31.0816    9.6534   60.9699 H   0  0  0  0  0  0  0  0  0  0  0  0
   24.1051    8.4391   54.7643 C   0  0  0  0  0  0  0  0  0  0  0  0
   23.6776    7.2331   54.3278 C   0  0  0  0  0  0  0  0  0  0  0  0
   22.4945    7.1339   53.5832 C   0  0  0  0  0  0  0  0  0  0  0  0
   21.7564    8.2307   53.2864 C   0  0  0  0  0  0  0  0  0  0  0  0
   22.1880    9.4791   53.7429 C   0  0  0  0  0  0  0  0  0  0  0  0
   23.3437    9.5694   54.4684 C   0  0  0  0  0  0  0  0  0  0  0  0
   20.5708    8.2363   52.3957 C   0  0  0  0  0  0  0  0  0  0  0  0
   19.7068    7.3037   52.5736 O   0  0  0  0  0  0  0  0  0  0  0  0
   20.4054    9.2145   51.4317 N   0  0  0  0  0  0  0  0  0  0  0  0
   21.1621    9.9415   51.3076 H   0  0  0  0  0  0  0  0  0  0  0  0
   19.1791    9.4388   50.6928 C   0  0  0  0  0  0  0  0  0  0  0  0
   19.1018   10.2064   49.5589 C   0  0  0  0  0  0  0  0  0  0  0  0
   17.8914   10.4178   48.8722 C   0  0  0  0  0  0  0  0  0  0  0  0
   16.7397    9.8453   49.3373 C   0  0  0  0  0  0  0  0  0  0  0  0
   16.8400    9.0732   50.4875 C   0  0  0  0  0  0  0  0  0  0  0  0
   18.0032    8.8900   51.1210 N   0  0  0  0  0  0  0  0  0  0  0  0
   17.9429   11.2546   47.6402 C   0  0  0  0  0  0  0  0  0  0  0  0
   18.2528   10.4873   46.5547 F   0  0  0  0  0  0  0  0  0  0  0  0
   18.9195   12.2392   47.8829 F   0  0  0  0  0  0  0  0  0  0  0  0
   16.7404   11.9205   47.5185 F   0  0  0  0  0  0  0  0  0  0  0  0
  1  2  1  0  0  0
  2  3  2  0  0  0
  3  4  1  0  0  0
  4  5  2  0  0  0
  5  6  1  0  0  0
  6  7  1  0  0  0
  7  8  2  0  0  0
  8  9  1  0  0  0
  9 21  1  0  0  0
 21 22  2  0  0  0
 22 23  1  0  0  0
 23 24  2  0  0  0
 24 25  1  0  0  0
 25 26  2  0  0  0
 24 27  1  0  0  0
 27 28  2  0  0  0
 27 29  1  0  0  0
 29 31  1  0  0  0
 31 32  2  0  0  0
 32 33  1  0  0  0
 33 34  2  0  0  0
 34 35  1  0  0  0
 35 36  2  0  0  0
 33 37  1  0  0  0
 37 38  1  0  0  0
 37 39  1  0  0  0
 37 40  1  0  0  0
  9 10  2  0  0  0
  7 13  1  0  0  0
 13 14  1  0  0  0
 14 15  1  0  0  0
 15 16  1  0  0  0
 16 17  1  0  0  0
 16 18  1  0  0  0
 18 19  1  0  0  0
 10  2  1  0  0  0
 19 13  1  0  0  0
 10  6  1  0  0  0
 26 21  1  0  0  0
 36 31  1  0  0  0
  1 11  1  0  0  0
  1 12  1  0  0  0
 29 30  1  0  0  0
 17 20  1  0  0  0
M  END
> <minimizedAffinity>
54.50690

> <CNNscore>
0.3261502981

> <CNNaffinity>
6.2140755653

> <CNN_VS>
2.0267226696

> <CNNaffinity_variance>
0.8597919345

$$$$
[H]c1c([H])c([H])c2c(c1[H])c(C([H])([H])[C@]1([H])N([H])C(=O)[C@]([H])(C([H])([H])C([H])([H])C([H])([H])N=C(N([H])[H])N([H])[H])N([H])C(=O)C3([H])C([H])([H])C([H])([H])N1C([H])([H])C3([H])[H])c([H])n2[H]


 38 41  0  0  0  0  0  0  0  0999 V2000
   21.6680    6.2091   53.8614 C   0  0  0  0  0  0  0  0  0  0  0  0
   21.0463    6.7273   52.6779 N   0  0  0  0  0  0  0  0  0  0  0  0
   21.0365    7.9974   52.1288 C   0  0  0  0  0  0  0  0  0  0  0  0
   21.5445    8.1582   50.9445 O   0  0  0  0  0  0  0  0  0  0  0  0
   20.5314    9.2821   52.6512 C   0  0  0  0  0  0  0  0  0  0  0  0
   20.2255    9.3807   54.0870 C   0  0  0  0  0  0  0  0  0  0  0  0
   21.2677   10.0908   54.9179 C   0  0  0  0  0  0  0  0  0  0  0  0
   22.6151    9.8356   54.4972 N   0  0  0  0  0  0  0  0  0  0  0  0
   22.8271    9.9235   53.0925 C   0  0  0  0  0  0  0  0  0  0  0  0
   21.5844   10.3534   52.3348 C   0  0  0  0  0  0  0  0  0  0  0  0
   23.1911    8.6643   55.1379 C   0  0  0  0  0  0  0  0  0  0  0  0
   23.7146    7.7265   54.2003 N   0  0  0  0  0  0  0  0  0  0  0  0
   23.1402    6.4278   53.9317 C   0  0  0  0  0  0  0  0  0  0  0  0
   23.9525    5.4683   53.7548 O   0  0  0  0  0  0  0  0  0  0  0  0
   20.4924    5.9834   52.1234 H   0  0  0  0  0  0  0  0  0  0  0  0
   24.5816    8.0131   53.6536 H   0  0  0  0  0  0  0  0  0  0  0  0
   21.4828    4.7017   53.9725 C   0  0  0  0  0  0  0  0  0  0  0  0
   20.2632    4.1871   53.3008 C   0  0  0  0  0  0  0  0  0  0  0  0
   19.1507    3.8309   54.2304 C   0  0  0  0  0  0  0  0  0  0  0  0
   16.6234    3.9157   55.6526 N   0  0  0  0  0  0  0  0  0  0  0  0
   16.7376    3.8429   54.2402 C   0  0  0  0  0  0  0  0  0  0  0  0
   15.5047    3.8098   53.4986 N   0  0  0  0  0  0  0  0  0  0  0  0
   17.8450    3.8055   53.6107 N   0  0  0  0  0  0  0  0  0  0  0  0
   17.4055    4.2995   56.2192 H   0  0  0  0  0  0  0  0  0  0  0  0
   15.7740    3.5955   56.1607 H   0  0  0  0  0  0  0  0  0  0  0  0
   14.5751    3.6981   53.9537 H   0  0  0  0  0  0  0  0  0  0  0  0
   15.5243    3.9005   52.4551 H   0  0  0  0  0  0  0  0  0  0  0  0
   24.0260    9.0004   56.3213 C   0  0  0  0  0  0  0  0  0  0  0  0
   25.4713    9.0674   56.1445 C   0  0  0  0  0  0  0  0  0  0  0  0
   26.3364    9.4248   57.1559 C   0  0  0  0  0  0  0  0  0  0  0  0
   27.5713    9.4169   56.6804 N   0  0  0  0  0  0  0  0  0  0  0  0
   27.5403    9.0635   55.3853 C   0  0  0  0  0  0  0  0  0  0  0  0
   28.5626    8.8960   54.4401 C   0  0  0  0  0  0  0  0  0  0  0  0
   28.2999    8.5047   53.1361 C   0  0  0  0  0  0  0  0  0  0  0  0
   26.9840    8.2847   52.8006 C   0  0  0  0  0  0  0  0  0  0  0  0
   25.9741    8.4464   53.7184 C   0  0  0  0  0  0  0  0  0  0  0  0
   26.2347    8.8403   55.0310 C   0  0  0  0  0  0  0  0  0  0  0  0
   28.4823    9.6452   57.1962 H   0  0  0  0  0  0  0  0  0  0  0  0
 20 21  1  0  0  0
 21 22  1  0  0  0
 21 23  2  0  0  0
 23 19  1  0  0  0
 19 18  1  0  0  0
 18 17  1  0  0  0
 17  1  1  0  0  0
  1  2  1  0  0  0
  2  3  1  0  0  0
  3  4  2  0  0  0
  3  5  1  0  0  0
  5  6  1  0  0  0
  6  7  1  0  0  0
  7  8  1  0  0  0
  8  9  1  0  0  0
  9 10  1  0  0  0
  8 11  1  0  0  0
 11 28  1  0  0  0
 28 29  1  0  0  0
 29 30  2  0  0  0
 30 31  1  0  0  0
 31 32  1  0  0  0
 32 33  2  0  0  0
 33 34  1  0  0  0
 34 35  2  0  0  0
 35 36  1  0  0  0
 36 37  2  0  0  0
 11 12  1  0  0  0
 12 13  1  0  0  0
 13 14  2  0  0  0
 13  1  1  0  0  0
 10  5  1  0  0  0
 37 29  1  0  0  0
 37 32  1  0  0  0
 20 24  1  0  0  0
 20 25  1  0  0  0
 22 26  1  0  0  0
 22 27  1  0  0  0
  2 15  1  0  0  0
 31 38  1  0  0  0
 12 16  1  0  0  0
M  END
> <minimizedAffinity>
20.42611

> <CNNscore>
0.7177221179

> <CNNaffinity>
7.0027184486

> <CNN_VS>
5.0260057449

> <CNNaffinity_variance>
1.0665783882

$$$$
[H]c1c([H])c([H])c2c(c1[H])c(C([H])([H])[C@]1([H])N([H])C(=O)[C@]([H])(C([H])([H])C([H])([H])C([H])([H])N=C(N([H])[H])N([H])[H])N([H])C(=O)C3([H])C([H])([H])C([H])([H])N1C([H])([H])C3([H])[H])c([H])n2[H]


 38 41  0  0  0  0  0  0  0  0999 V2000
   20.9399    5.9395   53.8212 C   0  0  0  0  0  0  0  0  0  0  0  0
   20.2293    6.7131   52.8452 N   0  0  0  0  0  0  0  0  0  0  0  0
   20.4960    7.9498   52.2847 C   0  0  0  0  0  0  0  0  0  0  0  0
   20.6838    8.0145   51.0014 O   0  0  0  0  0  0  0  0  0  0  0  0
   20.6145    9.2904   52.8906 C   0  0  0  0  0  0  0  0  0  0  0  0
   20.7648    9.3863   54.3511 C   0  0  0  0  0  0  0  0  0  0  0  0
   22.1698    9.6547   54.8354 C   0  0  0  0  0  0  0  0  0  0  0  0
   23.1837    8.9990   54.0611 N   0  0  0  0  0  0  0  0  0  0  0  0
   23.0199    9.1077   52.6514 C   0  0  0  0  0  0  0  0  0  0  0  0
   21.8365    9.9737   52.2609 C   0  0  0  0  0  0  0  0  0  0  0  0
   23.4856    7.6625   54.5479 C   0  0  0  0  0  0  0  0  0  0  0  0
   23.3864    6.6707   53.5285 N   0  0  0  0  0  0  0  0  0  0  0  0
   22.3595    5.6555   53.4693 C   0  0  0  0  0  0  0  0  0  0  0  0
   22.7217    4.4963   53.0993 O   0  0  0  0  0  0  0  0  0  0  0  0
   19.3288    6.2330   52.4901 H   0  0  0  0  0  0  0  0  0  0  0  0
   24.1144    6.6921   52.7525 H   0  0  0  0  0  0  0  0  0  0  0  0
   20.2978    4.5736   54.0231 C   0  0  0  0  0  0  0  0  0  0  0  0
   19.6310    4.0296   52.8137 C   0  0  0  0  0  0  0  0  0  0  0  0
   18.3892    3.2491   53.0922 C   0  0  0  0  0  0  0  0  0  0  0  0
   15.5061    3.3682   53.3925 N   0  0  0  0  0  0  0  0  0  0  0  0
   16.4258    3.7016   54.4201 C   0  0  0  0  0  0  0  0  0  0  0  0
   15.8600    4.1214   55.6750 N   0  0  0  0  0  0  0  0  0  0  0  0
   17.6929    3.6510   54.2935 N   0  0  0  0  0  0  0  0  0  0  0  0
   15.7943    2.7341   52.6212 H   0  0  0  0  0  0  0  0  0  0  0  0
   14.5335    3.7369   53.3732 H   0  0  0  0  0  0  0  0  0  0  0  0
   14.8448    4.3161   55.7994 H   0  0  0  0  0  0  0  0  0  0  0  0
   16.4811    4.2415   56.5100 H   0  0  0  0  0  0  0  0  0  0  0  0
   24.6748    7.6232   55.4393 C   0  0  0  0  0  0  0  0  0  0  0  0
   25.9323    8.1552   54.9294 C   0  0  0  0  0  0  0  0  0  0  0  0
   26.3597    7.9622   53.6336 C   0  0  0  0  0  0  0  0  0  0  0  0
   27.5405    8.5409   53.4856 N   0  0  0  0  0  0  0  0  0  0  0  0
   27.8993    9.1089   54.6483 C   0  0  0  0  0  0  0  0  0  0  0  0
   29.0355    9.8445   55.0149 C   0  0  0  0  0  0  0  0  0  0  0  0
   29.1963   10.3592   56.2923 C   0  0  0  0  0  0  0  0  0  0  0  0
   28.1881   10.1182   57.1967 C   0  0  0  0  0  0  0  0  0  0  0  0
   27.0705    9.3983   56.8487 C   0  0  0  0  0  0  0  0  0  0  0  0
   26.9057    8.8787   55.5646 C   0  0  0  0  0  0  0  0  0  0  0  0
   28.1539    8.5820   52.6081 H   0  0  0  0  0  0  0  0  0  0  0  0
 20 21  1  0  0  0
 21 22  1  0  0  0
 21 23  2  0  0  0
 23 19  1  0  0  0
 19 18  1  0  0  0
 18 17  1  0  0  0
 17  1  1  0  0  0
  1  2  1  0  0  0
  2  3  1  0  0  0
  3  4  2  0  0  0
  3  5  1  0  0  0
  5  6  1  0  0  0
  6  7  1  0  0  0
  7  8  1  0  0  0
  8  9  1  0  0  0
  9 10  1  0  0  0
  8 11  1  0  0  0
 11 28  1  0  0  0
 28 29  1  0  0  0
 29 30  2  0  0  0
 30 31  1  0  0  0
 31 32  1  0  0  0
 32 33  2  0  0  0
 33 34  1  0  0  0
 34 35  2  0  0  0
 35 36  1  0  0  0
 36 37  2  0  0  0
 11 12  1  0  0  0
 12 13  1  0  0  0
 13 14  2  0  0  0
 13  1  1  0  0  0
 10  5  1  0  0  0
 37 29  1  0  0  0
 37 32  1  0  0  0
 20 24  1  0  0  0
 20 25  1  0  0  0
 22 26  1  0  0  0
 22 27  1  0  0  0
  2 15  1  0  0  0
 31 38  1  0  0  0
 12 16  1  0  0  0
M  END
> <minimizedAffinity>
19.78127

> <CNNscore>
0.6477990746

> <CNNaffinity>
6.8454818726

> <CNN_VS>
4.4344968796

> <CNNaffinity_variance>
0.7978064418

$$$$
[H]c1c([H])c([H])c2c(c1[H])c(C([H])([H])[C@]1([H])N([H])C(=O)[C@]([H])(C([H])([H])C([H])([H])C([H])([H])N=C(N([H])[H])N([H])[H])N([H])C(=O)C3([H])C([H])([H])C([H])([H])N1C([H])([H])C3([H])[H])c([H])n2[H]


 38 41  0  0  0  0  0  0  0  0999 V2000
   22.1342    6.6587   53.5954 C   0  0  0  0  0  0  0  0  0  0  0  0
   21.2205    7.6625   53.1332 N   0  0  0  0  0  0  0  0  0  0  0  0
   21.2463    9.0422   53.2351 C   0  0  0  0  0  0  0  0  0  0  0  0
   21.2855    9.7381   52.1394 O   0  0  0  0  0  0  0  0  0  0  0  0
   21.2353    9.9339   54.4112 C   0  0  0  0  0  0  0  0  0  0  0  0
   21.5247    9.3526   55.7315 C   0  0  0  0  0  0  0  0  0  0  0  0
   22.9201    9.6035   56.2514 C   0  0  0  0  0  0  0  0  0  0  0  0
   23.9294    9.5828   55.2323 N   0  0  0  0  0  0  0  0  0  0  0  0
   23.6029   10.3143   54.0558 C   0  0  0  0  0  0  0  0  0  0  0  0
   22.2729   11.0374   54.1618 C   0  0  0  0  0  0  0  0  0  0  0  0
   24.4696    8.2523   55.0039 C   0  0  0  0  0  0  0  0  0  0  0  0
   24.4057    7.8607   53.6345 N   0  0  0  0  0  0  0  0  0  0  0  0
   23.5344    6.8308   53.1159 C   0  0  0  0  0  0  0  0  0  0  0  0
   24.0174    6.0691   52.2225 O   0  0  0  0  0  0  0  0  0  0  0  0
   20.3654    7.2569   52.6117 H   0  0  0  0  0  0  0  0  0  0  0  0
   25.0366    8.3747   52.9487 H   0  0  0  0  0  0  0  0  0  0  0  0
   21.7194    5.2707   53.1261 C   0  0  0  0  0  0  0  0  0  0  0  0
   20.6214    4.6630   53.9188 C   0  0  0  0  0  0  0  0  0  0  0  0
   19.7481    3.7291   53.1482 C   0  0  0  0  0  0  0  0  0  0  0  0
   17.8302    5.8497   53.6397 N   0  0  0  0  0  0  0  0  0  0  0  0
   17.5918    4.4811   53.9282 C   0  0  0  0  0  0  0  0  0  0  0  0
   16.3105    4.1604   54.4997 N   0  0  0  0  0  0  0  0  0  0  0  0
   18.4306    3.5458   53.7142 N   0  0  0  0  0  0  0  0  0  0  0  0
   18.5345    6.1160   52.9235 H   0  0  0  0  0  0  0  0  0  0  0  0
   17.3217    6.6182   54.1225 H   0  0  0  0  0  0  0  0  0  0  0  0
   15.6399    4.8872   54.8253 H   0  0  0  0  0  0  0  0  0  0  0  0
   16.0234    3.1580   54.6002 H   0  0  0  0  0  0  0  0  0  0  0  0
   25.7400    8.0068   55.7361 C   0  0  0  0  0  0  0  0  0  0  0  0
   26.4295    9.1523   56.3167 C   0  0  0  0  0  0  0  0  0  0  0  0
   26.2817   10.4379   55.8429 C   0  0  0  0  0  0  0  0  0  0  0  0
   27.0508   11.2442   56.5567 N   0  0  0  0  0  0  0  0  0  0  0  0
   27.6985   10.5232   57.4862 C   0  0  0  0  0  0  0  0  0  0  0  0
   28.6091   10.8942   58.4861 C   0  0  0  0  0  0  0  0  0  0  0  0
   29.1544    9.9685   59.3626 C   0  0  0  0  0  0  0  0  0  0  0  0
   28.7643    8.6578   59.2128 C   0  0  0  0  0  0  0  0  0  0  0  0
   27.8731    8.2828   58.2363 C   0  0  0  0  0  0  0  0  0  0  0  0
   27.3229    9.2114   57.3525 C   0  0  0  0  0  0  0  0  0  0  0  0
   27.1758   12.3035   56.4555 H   0  0  0  0  0  0  0  0  0  0  0  0
 20 21  1  0  0  0
 21 22  1  0  0  0
 21 23  2  0  0  0
 23 19  1  0  0  0
 19 18  1  0  0  0
 18 17  1  0  0  0
 17  1  1  0  0  0
  1  2  1  0  0  0
  2  3  1  0  0  0
  3  4  2  0  0  0
  3  5  1  0  0  0
  5  6  1  0  0  0
  6  7  1  0  0  0
  7  8  1  0  0  0
  8  9  1  0  0  0
  9 10  1  0  0  0
  8 11  1  0  0  0
 11 28  1  0  0  0
 28 29  1  0  0  0
 29 30  2  0  0  0
 30 31  1  0  0  0
 31 32  1  0  0  0
 32 33  2  0  0  0
 33 34  1  0  0  0
 34 35  2  0  0  0
 35 36  1  0  0  0
 36 37  2  0  0  0
 11 12  1  0  0  0
 12 13  1  0  0  0
 13 14  2  0  0  0
 13  1  1  0  0  0
 10  5  1  0  0  0
 37 29  1  0  0  0
 37 32  1  0  0  0
 20 24  1  0  0  0
 20 25  1  0  0  0
 22 26  1  0  0  0
 22 27  1  0  0  0
  2 15  1  0  0  0
 31 38  1  0  0  0
 12 16  1  0  0  0
M  END
> <minimizedAffinity>
28.11213

> <CNNscore>
0.6457189918

> <CNNaffinity>
6.9426727295

> <CNN_VS>
4.4830155373

> <CNNaffinity_variance>
1.5386909246

$$$$
[H]c1c([H])c([H])c2c(c1[H])c(C([H])([H])[C@]1([H])N([H])C(=O)[C@]([H])(C([H])([H])C([H])([H])C([H])([H])N=C(N([H])[H])N([H])[H])N([H])C(=O)C3([H])C([H])([H])C([H])([H])N1C([H])([H])C3([H])[H])c([H])n2[H]


 38 41  0  0  0  0  0  0  0  0999 V2000
   23.2006    7.6152   52.8996 C   0  0  0  0  0  0  0  0  0  0  0  0
   22.2014    8.3587   52.1891 N   0  0  0  0  0  0  0  0  0  0  0  0
   21.5757    9.5592   52.4755 C   0  0  0  0  0  0  0  0  0  0  0  0
   21.7301   10.5454   51.6449 O   0  0  0  0  0  0  0  0  0  0  0  0
   20.7146    9.9658   53.6032 C   0  0  0  0  0  0  0  0  0  0  0  0
   20.6876    9.1155   54.8037 C   0  0  0  0  0  0  0  0  0  0  0  0
   21.5021    9.6245   55.9691 C   0  0  0  0  0  0  0  0  0  0  0  0
   22.7259   10.2657   55.5833 N   0  0  0  0  0  0  0  0  0  0  0  0
   22.6005   11.1906   54.5087 C   0  0  0  0  0  0  0  0  0  0  0  0
   21.1658   11.3648   54.0457 C   0  0  0  0  0  0  0  0  0  0  0  0
   23.8369    9.3344   55.4719 C   0  0  0  0  0  0  0  0  0  0  0  0
   24.4932    9.4102   54.2085 N   0  0  0  0  0  0  0  0  0  0  0  0
   24.4445    8.3799   53.1961 C   0  0  0  0  0  0  0  0  0  0  0  0
   25.5194    8.1509   52.5607 O   0  0  0  0  0  0  0  0  0  0  0  0
   21.8924    7.8890   51.2663 H   0  0  0  0  0  0  0  0  0  0  0  0
   25.0455   10.2948   53.9963 H   0  0  0  0  0  0  0  0  0  0  0  0
   23.6592    6.3998   52.1051 C   0  0  0  0  0  0  0  0  0  0  0  0
   23.6839    5.1369   52.8847 C   0  0  0  0  0  0  0  0  0  0  0  0
   22.7730    5.1240   54.0675 C   0  0  0  0  0  0  0  0  0  0  0  0
   20.3612    6.5360   53.2888 N   0  0  0  0  0  0  0  0  0  0  0  0
   20.4327    5.1318   53.4791 C   0  0  0  0  0  0  0  0  0  0  0  0
   19.2161    4.3935   53.2655 N   0  0  0  0  0  0  0  0  0  0  0  0
   21.4894    4.5067   53.8210 N   0  0  0  0  0  0  0  0  0  0  0  0
   21.2210    7.0759   53.0666 H   0  0  0  0  0  0  0  0  0  0  0  0
   19.4680    7.0641   53.3630 H   0  0  0  0  0  0  0  0  0  0  0  0
   18.2938    4.8546   53.1219 H   0  0  0  0  0  0  0  0  0  0  0  0
   19.2404    3.3462   53.2506 H   0  0  0  0  0  0  0  0  0  0  0  0
   24.6855    9.2930   56.6920 C   0  0  0  0  0  0  0  0  0  0  0  0
   26.1281    9.4231   56.5290 C   0  0  0  0  0  0  0  0  0  0  0  0
   26.8916   10.3024   57.2658 C   0  0  0  0  0  0  0  0  0  0  0  0
   28.1509   10.2045   56.8715 N   0  0  0  0  0  0  0  0  0  0  0  0
   28.2349    9.2846   55.8968 C   0  0  0  0  0  0  0  0  0  0  0  0
   29.3273    8.8038   55.1605 C   0  0  0  0  0  0  0  0  0  0  0  0
   29.1848    7.8218   54.1920 C   0  0  0  0  0  0  0  0  0  0  0  0
   27.9174    7.3315   53.9782 C   0  0  0  0  0  0  0  0  0  0  0  0
   26.8397    7.7955   54.6933 C   0  0  0  0  0  0  0  0  0  0  0  0
   26.9793    8.7837   55.6681 C   0  0  0  0  0  0  0  0  0  0  0  0
   29.0033   10.7434   57.2334 H   0  0  0  0  0  0  0  0  0  0  0  0
 20 21  1  0  0  0
 21 22  1  0  0  0
 21 23  2  0  0  0
 23 19  1  0  0  0
 19 18  1  0  0  0
 18 17  1  0  0  0
 17  1  1  0  0  0
  1  2  1  0  0  0
  2  3  1  0  0  0
  3  4  2  0  0  0
  3  5  1  0  0  0
  5  6  1  0  0  0
  6  7  1  0  0  0
  7  8  1  0  0  0
  8  9  1  0  0  0
  9 10  1  0  0  0
  8 11  1  0  0  0
 11 28  1  0  0  0
 28 29  1  0  0  0
 29 30  2  0  0  0
 30 31  1  0  0  0
 31 32  1  0  0  0
 32 33  2  0  0  0
 33 34  1  0  0  0
 34 35  2  0  0  0
 35 36  1  0  0  0
 36 37  2  0  0  0
 11 12  1  0  0  0
 12 13  1  0  0  0
 13 14  2  0  0  0
 13  1  1  0  0  0
 10  5  1  0  0  0
 37 29  1  0  0  0
 37 32  1  0  0  0
 20 24  1  0  0  0
 20 25  1  0  0  0
 22 26  1  0  0  0
 22 27  1  0  0  0
  2 15  1  0  0  0
 31 38  1  0  0  0
 12 16  1  0  0  0
M  END
> <minimizedAffinity>
24.97090

> <CNNscore>
0.5983675718

> <CNNaffinity>
6.6306447983

> <CNN_VS>
3.9675629139

> <CNNaffinity_variance>
1.8546102047

$$$$
[H]c1c([H])c([H])c2c(c1[H])c(C([H])([H])[C@]1([H])N([H])C(=O)[C@]([H])(C([H])([H])C([H])([H])C([H])([H])N=C(N([H])[H])N([H])[H])N([H])C(=O)C3([H])C([H])([H])C([H])([H])N1C([H])([H])C3([H])[H])c([H])n2[H]


 38 41  0  0  0  0  0  0  0  0999 V2000
   22.7879    7.3160   53.2240 C   0  0  0  0  0  0  0  0  0  0  0  0
   21.8706    8.0576   52.4089 N   0  0  0  0  0  0  0  0  0  0  0  0
   21.4185    9.3627   52.4927 C   0  0  0  0  0  0  0  0  0  0  0  0
   21.6716   10.1649   51.5034 O   0  0  0  0  0  0  0  0  0  0  0  0
   20.6585   10.0661   53.5445 C   0  0  0  0  0  0  0  0  0  0  0  0
   20.5625    9.4417   54.8733 C   0  0  0  0  0  0  0  0  0  0  0  0
   21.4773   10.0246   55.9239 C   0  0  0  0  0  0  0  0  0  0  0  0
   22.7603   10.4200   55.4188 N   0  0  0  0  0  0  0  0  0  0  0  0
   22.7197   11.1590   54.2031 C   0  0  0  0  0  0  0  0  0  0  0  0
   21.3049   11.4455   53.7347 C   0  0  0  0  0  0  0  0  0  0  0  0
   23.7349    9.3415   55.4552 C   0  0  0  0  0  0  0  0  0  0  0  0
   24.3504    9.1139   54.1895 N   0  0  0  0  0  0  0  0  0  0  0  0
   24.1312    7.9441   53.3695 C   0  0  0  0  0  0  0  0  0  0  0  0
   25.1437    7.4680   52.7696 O   0  0  0  0  0  0  0  0  0  0  0  0
   21.4703    7.4855   51.5842 H   0  0  0  0  0  0  0  0  0  0  0  0
   25.0063    9.8671   53.8219 H   0  0  0  0  0  0  0  0  0  0  0  0
   23.0547    5.9334   52.6442 C   0  0  0  0  0  0  0  0  0  0  0  0
   23.5448    4.9423   53.6345 C   0  0  0  0  0  0  0  0  0  0  0  0
   23.9878    5.5336   54.9318 C   0  0  0  0  0  0  0  0  0  0  0  0
   21.6274    6.8258   56.0161 N   0  0  0  0  0  0  0  0  0  0  0  0
   22.2030    5.6450   56.5521 C   0  0  0  0  0  0  0  0  0  0  0  0
   21.5515    5.0807   57.7046 N   0  0  0  0  0  0  0  0  0  0  0  0
   23.2395    5.0733   56.0798 N   0  0  0  0  0  0  0  0  0  0  0  0
   21.7930    7.0812   55.0225 H   0  0  0  0  0  0  0  0  0  0  0  0
   21.0334    7.4640   56.5836 H   0  0  0  0  0  0  0  0  0  0  0  0
   20.7904    5.5705   58.2190 H   0  0  0  0  0  0  0  0  0  0  0  0
   21.8426    4.1374   58.0553 H   0  0  0  0  0  0  0  0  0  0  0  0
   24.6132    9.3916   56.6537 C   0  0  0  0  0  0  0  0  0  0  0  0
   26.0517    9.5009   56.4459 C   0  0  0  0  0  0  0  0  0  0  0  0
   26.8444   10.3954   57.1320 C   0  0  0  0  0  0  0  0  0  0  0  0
   28.0909   10.2714   56.7056 N   0  0  0  0  0  0  0  0  0  0  0  0
   28.1381    9.3197   55.7594 C   0  0  0  0  0  0  0  0  0  0  0  0
   29.2043    8.8040   55.0085 C   0  0  0  0  0  0  0  0  0  0  0  0
   29.0247    7.7929   54.0768 C   0  0  0  0  0  0  0  0  0  0  0  0
   27.7470    7.3095   53.9149 C   0  0  0  0  0  0  0  0  0  0  0  0
   26.6947    7.8077   54.6447 C   0  0  0  0  0  0  0  0  0  0  0  0
   26.8717    8.8252   55.5826 C   0  0  0  0  0  0  0  0  0  0  0  0
   28.9586   10.8126   57.0257 H   0  0  0  0  0  0  0  0  0  0  0  0
 20 21  1  0  0  0
 21 22  1  0  0  0
 21 23  2  0  0  0
 23 19  1  0  0  0
 19 18  1  0  0  0
 18 17  1  0  0  0
 17  1  1  0  0  0
  1  2  1  0  0  0
  2  3  1  0  0  0
  3  4  2  0  0  0
  3  5  1  0  0  0
  5  6  1  0  0  0
  6  7  1  0  0  0
  7  8  1  0  0  0
  8  9  1  0  0  0
  9 10  1  0  0  0
  8 11  1  0  0  0
 11 28  1  0  0  0
 28 29  1  0  0  0
 29 30  2  0  0  0
 30 31  1  0  0  0
 31 32  1  0  0  0
 32 33  2  0  0  0
 33 34  1  0  0  0
 34 35  2  0  0  0
 35 36  1  0  0  0
 36 37  2  0  0  0
 11 12  1  0  0  0
 12 13  1  0  0  0
 13 14  2  0  0  0
 13  1  1  0  0  0
 10  5  1  0  0  0
 37 29  1  0  0  0
 37 32  1  0  0  0
 20 24  1  0  0  0
 20 25  1  0  0  0
 22 26  1  0  0  0
 22 27  1  0  0  0
  2 15  1  0  0  0
 31 38  1  0  0  0
 12 16  1  0  0  0
M  END
> <minimizedAffinity>
22.81066

> <CNNscore>
0.5844972730

> <CNNaffinity>
6.6353545189

> <CNN_VS>
3.8783466816

> <CNNaffinity_variance>
1.2342163324

$$$$
[H]c1c([H])c([H])c2c(c1[H])c(C([H])([H])[C@]1([H])N([H])C(=O)[C@]([H])(C([H])([H])C([H])([H])C([H])([H])N=C(N([H])[H])N([H])[H])N([H])C(=O)C3([H])C([H])([H])C([H])([H])N1C([H])([H])C3([H])[H])c([H])n2[H]


 38 41  0  0  0  0  0  0  0  0999 V2000
   22.6391    6.4113   55.2714 C   0  0  0  0  0  0  0  0  0  0  0  0
   21.2894    6.8561   55.0808 N   0  0  0  0  0  0  0  0  0  0  0  0
   20.7491    7.8092   54.2357 C   0  0  0  0  0  0  0  0  0  0  0  0
   19.8807    7.4233   53.3506 O   0  0  0  0  0  0  0  0  0  0  0  0
   20.9748    9.2643   54.1353 C   0  0  0  0  0  0  0  0  0  0  0  0
   22.1484    9.8377   54.8127 C   0  0  0  0  0  0  0  0  0  0  0  0
   23.3170   10.1576   53.9113 C   0  0  0  0  0  0  0  0  0  0  0  0
   23.5048    9.2112   52.8498 N   0  0  0  0  0  0  0  0  0  0  0  0
   22.3148    8.8479   52.1585 C   0  0  0  0  0  0  0  0  0  0  0  0
   21.0954    9.6095   52.6443 C   0  0  0  0  0  0  0  0  0  0  0  0
   24.3617    8.1006   53.2327 C   0  0  0  0  0  0  0  0  0  0  0  0
   23.7562    6.8319   52.9952 N   0  0  0  0  0  0  0  0  0  0  0  0
   23.3109    5.9289   54.0321 C   0  0  0  0  0  0  0  0  0  0  0  0
   23.5175    4.6911   53.8403 O   0  0  0  0  0  0  0  0  0  0  0  0
   20.5765    6.3468   55.7134 H   0  0  0  0  0  0  0  0  0  0  0  0
   23.6131    6.5400   51.9818 H   0  0  0  0  0  0  0  0  0  0  0  0
   22.7071    5.2412   56.2435 C   0  0  0  0  0  0  0  0  0  0  0  0
   21.4678    5.0332   57.0335 C   0  0  0  0  0  0  0  0  0  0  0  0
   20.4612    4.1454   56.3799 C   0  0  0  0  0  0  0  0  0  0  0  0
   18.0844    3.6874   54.7805 N   0  0  0  0  0  0  0  0  0  0  0  0
   19.3350    4.0922   54.2463 C   0  0  0  0  0  0  0  0  0  0  0  0
   19.3931    4.2768   52.8203 N   0  0  0  0  0  0  0  0  0  0  0  0
   20.3819    4.2948   54.9443 N   0  0  0  0  0  0  0  0  0  0  0  0
   17.8564    3.8801   55.7759 H   0  0  0  0  0  0  0  0  0  0  0  0
   17.3675    3.1947   54.2100 H   0  0  0  0  0  0  0  0  0  0  0  0
   18.6192    3.9963   52.1829 H   0  0  0  0  0  0  0  0  0  0  0  0
   20.2428    4.7104   52.3874 H   0  0  0  0  0  0  0  0  0  0  0  0
   25.7750    8.2839   52.8093 C   0  0  0  0  0  0  0  0  0  0  0  0
   26.7952    8.3772   53.8462 C   0  0  0  0  0  0  0  0  0  0  0  0
   28.0926    7.9497   53.6648 C   0  0  0  0  0  0  0  0  0  0  0  0
   28.7642    8.1433   54.7885 N   0  0  0  0  0  0  0  0  0  0  0  0
   27.9434    8.6867   55.7019 C   0  0  0  0  0  0  0  0  0  0  0  0
   28.1604    9.0899   57.0273 C   0  0  0  0  0  0  0  0  0  0  0  0
   27.1535    9.6507   57.7983 C   0  0  0  0  0  0  0  0  0  0  0  0
   25.9200    9.7982   57.2074 C   0  0  0  0  0  0  0  0  0  0  0  0
   25.6958    9.4062   55.9096 C   0  0  0  0  0  0  0  0  0  0  0  0
   26.7063    8.8412   55.1312 C   0  0  0  0  0  0  0  0  0  0  0  0
   29.7926    7.9229   54.9932 H   0  0  0  0  0  0  0  0  0  0  0  0
 20 21  1  0  0  0
 21 22  1  0  0  0
 21 23  2  0  0  0
 23 19  1  0  0  0
 19 18  1  0  0  0
 18 17  1  0  0  0
 17  1  1  0  0  0
  1  2  1  0  0  0
  2  3  1  0  0  0
  3  4  2  0  0  0
  3  5  1  0  0  0
  5  6  1  0  0  0
  6  7  1  0  0  0
  7  8  1  0  0  0
  8  9  1  0  0  0
  9 10  1  0  0  0
  8 11  1  0  0  0
 11 28  1  0  0  0
 28 29  1  0  0  0
 29 30  2  0  0  0
 30 31  1  0  0  0
 31 32  1  0  0  0
 32 33  2  0  0  0
 33 34  1  0  0  0
 34 35  2  0  0  0
 35 36  1  0  0  0
 36 37  2  0  0  0
 11 12  1  0  0  0
 12 13  1  0  0  0
 13 14  2  0  0  0
 13  1  1  0  0  0
 10  5  1  0  0  0
 37 29  1  0  0  0
 37 32  1  0  0  0
 20 24  1  0  0  0
 20 25  1  0  0  0
 22 26  1  0  0  0
 22 27  1  0  0  0
  2 15  1  0  0  0
 31 38  1  0  0  0
 12 16  1  0  0  0
M  END
> <minimizedAffinity>
32.03379

> <CNNscore>
0.5668239594

> <CNNaffinity>
6.5978956223

> <CNN_VS>
3.7398452759

> <CNNaffinity_variance>
1.0969444513

$$$$
[H]c1c([H])c([H])c2c(c1[H])c(C([H])([H])[C@]1([H])N([H])C(=O)[C@]([H])(C([H])([H])C([H])([H])C([H])([H])N=C(N([H])[H])N([H])[H])N([H])C(=O)C3([H])C([H])([H])C([H])([H])N1C([H])([H])C3([H])[H])c([H])n2[H]


 38 41  0  0  0  0  0  0  0  0999 V2000
   20.4720    6.3315   53.6745 C   0  0  0  0  0  0  0  0  0  0  0  0
   19.9038    6.9402   52.5072 N   0  0  0  0  0  0  0  0  0  0  0  0
   20.2807    8.0549   51.7791 C   0  0  0  0  0  0  0  0  0  0  0  0
   20.6085    7.8921   50.5331 O   0  0  0  0  0  0  0  0  0  0  0  0
   20.3887    9.4771   52.1584 C   0  0  0  0  0  0  0  0  0  0  0  0
   20.3843    9.8210   53.5890 C   0  0  0  0  0  0  0  0  0  0  0  0
   21.7387   10.1377   54.1771 C   0  0  0  0  0  0  0  0  0  0  0  0
   22.8022    9.3353   53.6453 N   0  0  0  0  0  0  0  0  0  0  0  0
   22.7962    9.2019   52.2283 C   0  0  0  0  0  0  0  0  0  0  0  0
   21.6989   10.0135   51.5648 C   0  0  0  0  0  0  0  0  0  0  0  0
   22.9939    8.0968   54.3827 C   0  0  0  0  0  0  0  0  0  0  0  0
   22.9642    6.9460   53.5416 N   0  0  0  0  0  0  0  0  0  0  0  0
   21.9083    5.9591   53.5393 C   0  0  0  0  0  0  0  0  0  0  0  0
   22.2598    4.7456   53.4147 O   0  0  0  0  0  0  0  0  0  0  0  0
   19.0277    6.4262   52.1387 H   0  0  0  0  0  0  0  0  0  0  0  0
   23.7720    6.8164   52.8610 H   0  0  0  0  0  0  0  0  0  0  0  0
   19.7557    5.0359   54.0308 C   0  0  0  0  0  0  0  0  0  0  0  0
   18.2747    5.1355   54.0173 C   0  0  0  0  0  0  0  0  0  0  0  0
   17.5731    3.8554   53.7046 C   0  0  0  0  0  0  0  0  0  0  0  0
   20.2242    2.6775   53.6665 N   0  0  0  0  0  0  0  0  0  0  0  0
   19.3082    2.6065   52.5853 C   0  0  0  0  0  0  0  0  0  0  0  0
   19.7540    1.9004   51.4132 N   0  0  0  0  0  0  0  0  0  0  0  0
   18.1428    3.1219   52.5968 N   0  0  0  0  0  0  0  0  0  0  0  0
   19.8770    2.8312   54.6339 H   0  0  0  0  0  0  0  0  0  0  0  0
   21.2516    2.5811   53.5344 H   0  0  0  0  0  0  0  0  0  0  0  0
   20.7363    1.5790   51.2874 H   0  0  0  0  0  0  0  0  0  0  0  0
   19.0749    1.6922   50.6432 H   0  0  0  0  0  0  0  0  0  0  0  0
   24.0771    8.1857   55.3971 C   0  0  0  0  0  0  0  0  0  0  0  0
   25.4449    8.3645   54.9262 C   0  0  0  0  0  0  0  0  0  0  0  0
   25.8405    8.0743   53.6384 C   0  0  0  0  0  0  0  0  0  0  0  0
   27.1369    8.3158   53.5282 N   0  0  0  0  0  0  0  0  0  0  0  0
   27.6026    8.7571   54.7078 C   0  0  0  0  0  0  0  0  0  0  0  0
   28.8840    9.1575   55.1132 C   0  0  0  0  0  0  0  0  0  0  0  0
   29.1416    9.5997   56.4018 C   0  0  0  0  0  0  0  0  0  0  0  0
   28.0811    9.6312   57.2775 C   0  0  0  0  0  0  0  0  0  0  0  0
   26.8215    9.2407   56.8915 C   0  0  0  0  0  0  0  0  0  0  0  0
   26.5588    8.7948   55.5960 C   0  0  0  0  0  0  0  0  0  0  0  0
   27.7629    8.1976   52.6666 H   0  0  0  0  0  0  0  0  0  0  0  0
 20 21  1  0  0  0
 21 22  1  0  0  0
 21 23  2  0  0  0
 23 19  1  0  0  0
 19 18  1  0  0  0
 18 17  1  0  0  0
 17  1  1  0  0  0
  1  2  1  0  0  0
  2  3  1  0  0  0
  3  4  2  0  0  0
  3  5  1  0  0  0
  5  6  1  0  0  0
  6  7  1  0  0  0
  7  8  1  0  0  0
  8  9  1  0  0  0
  9 10  1  0  0  0
  8 11  1  0  0  0
 11 28  1  0  0  0
 28 29  1  0  0  0
 29 30  2  0  0  0
 30 31  1  0  0  0
 31 32  1  0  0  0
 32 33  2  0  0  0
 33 34  1  0  0  0
 34 35  2  0  0  0
 35 36  1  0  0  0
 36 37  2  0  0  0
 11 12  1  0  0  0
 12 13  1  0  0  0
 13 14  2  0  0  0
 13  1  1  0  0  0
 10  5  1  0  0  0
 37 29  1  0  0  0
 37 32  1  0  0  0
 20 24  1  0  0  0
 20 25  1  0  0  0
 22 26  1  0  0  0
 22 27  1  0  0  0
  2 15  1  0  0  0
 31 38  1  0  0  0
 12 16  1  0  0  0
M  END
> <minimizedAffinity>
30.99285

> <CNNscore>
0.5623100400

> <CNNaffinity>
6.8536133766

> <CNN_VS>
3.8538556099

> <CNNaffinity_variance>
0.9135943651

$$$$
[H]c1c([H])c([H])c2c(c1[H])c(C([H])([H])[C@]1([H])N([H])C(=O)[C@]([H])(C([H])([H])C([H])([H])C([H])([H])N=C(N([H])[H])N([H])[H])N([H])C(=O)C3([H])C([H])([H])C([H])([H])N1C([H])([H])C3([H])[H])c([H])n2[H]


 38 41  0  0  0  0  0  0  0  0999 V2000
   21.8728    9.2306   54.4879 C   0  0  0  0  0  0  0  0  0  0  0  0
   21.1374    8.1567   55.0893 N   0  0  0  0  0  0  0  0  0  0  0  0
   21.4940    6.8518   55.3804 C   0  0  0  0  0  0  0  0  0  0  0  0
   21.4739    6.4723   56.6222 O   0  0  0  0  0  0  0  0  0  0  0  0
   21.9156    5.7381   54.5085 C   0  0  0  0  0  0  0  0  0  0  0  0
   22.3191    6.0461   53.1275 C   0  0  0  0  0  0  0  0  0  0  0  0
   23.8093    6.0653   52.8834 C   0  0  0  0  0  0  0  0  0  0  0  0
   24.5679    6.5983   53.9780 N   0  0  0  0  0  0  0  0  0  0  0  0
   24.1911    6.1061   55.2593 C   0  0  0  0  0  0  0  0  0  0  0  0
   23.1063    5.0471   55.1879 C   0  0  0  0  0  0  0  0  0  0  0  0
   24.7377    8.0399   53.8942 C   0  0  0  0  0  0  0  0  0  0  0  0
   24.3197    8.7125   55.0799 N   0  0  0  0  0  0  0  0  0  0  0  0
   23.1538    9.5614   55.1734 C   0  0  0  0  0  0  0  0  0  0  0  0
   23.2673   10.6142   55.8737 O   0  0  0  0  0  0  0  0  0  0  0  0
   20.1276    8.4280   55.3618 H   0  0  0  0  0  0  0  0  0  0  0  0
   24.9034    8.5653   55.9575 H   0  0  0  0  0  0  0  0  0  0  0  0
   21.0713   10.5253   54.4937 C   0  0  0  0  0  0  0  0  0  0  0  0
   21.4436   11.4766   53.4168 C   0  0  0  0  0  0  0  0  0  0  0  0
   21.7268   10.8360   52.0984 C   0  0  0  0  0  0  0  0  0  0  0  0
   22.2809    8.0145   51.7116 N   0  0  0  0  0  0  0  0  0  0  0  0
   21.0032    8.6047   51.5316 C   0  0  0  0  0  0  0  0  0  0  0  0
   19.9399    7.7213   51.1316 N   0  0  0  0  0  0  0  0  0  0  0  0
   20.7545    9.8432   51.7002 N   0  0  0  0  0  0  0  0  0  0  0  0
   22.9840    8.4719   52.3251 H   0  0  0  0  0  0  0  0  0  0  0  0
   22.5544    7.1245   51.2478 H   0  0  0  0  0  0  0  0  0  0  0  0
   20.1042    6.7340   50.8447 H   0  0  0  0  0  0  0  0  0  0  0  0
   18.9518    8.0692   51.1226 H   0  0  0  0  0  0  0  0  0  0  0  0
   26.0380    8.4384   53.2936 C   0  0  0  0  0  0  0  0  0  0  0  0
   27.2201    8.4258   54.1462 C   0  0  0  0  0  0  0  0  0  0  0  0
   28.4345    7.9166   53.7399 C   0  0  0  0  0  0  0  0  0  0  0  0
   29.2956    8.0249   54.7388 N   0  0  0  0  0  0  0  0  0  0  0  0
   28.6799    8.5917   55.7891 C   0  0  0  0  0  0  0  0  0  0  0  0
   29.1429    8.9333   57.0679 C   0  0  0  0  0  0  0  0  0  0  0  0
   28.3219    9.5351   58.0094 C   0  0  0  0  0  0  0  0  0  0  0  0
   27.0216    9.7872   57.6376 C   0  0  0  0  0  0  0  0  0  0  0  0
   26.5570    9.4563   56.3875 C   0  0  0  0  0  0  0  0  0  0  0  0
   27.3800    8.8503   55.4380 C   0  0  0  0  0  0  0  0  0  0  0  0
   30.3247    7.7275   54.7629 H   0  0  0  0  0  0  0  0  0  0  0  0
 20 21  1  0  0  0
 21 22  1  0  0  0
 21 23  2  0  0  0
 23 19  1  0  0  0
 19 18  1  0  0  0
 18 17  1  0  0  0
 17  1  1  0  0  0
  1  2  1  0  0  0
  2  3  1  0  0  0
  3  4  2  0  0  0
  3  5  1  0  0  0
  5  6  1  0  0  0
  6  7  1  0  0  0
  7  8  1  0  0  0
  8  9  1  0  0  0
  9 10  1  0  0  0
  8 11  1  0  0  0
 11 28  1  0  0  0
 28 29  1  0  0  0
 29 30  2  0  0  0
 30 31  1  0  0  0
 31 32  1  0  0  0
 32 33  2  0  0  0
 33 34  1  0  0  0
 34 35  2  0  0  0
 35 36  1  0  0  0
 36 37  2  0  0  0
 11 12  1  0  0  0
 12 13  1  0  0  0
 13 14  2  0  0  0
 13  1  1  0  0  0
 10  5  1  0  0  0
 37 29  1  0  0  0
 37 32  1  0  0  0
 20 24  1  0  0  0
 20 25  1  0  0  0
 22 26  1  0  0  0
 22 27  1  0  0  0
  2 15  1  0  0  0
 31 38  1  0  0  0
 12 16  1  0  0  0
M  END
> <minimizedAffinity>
13.01622

> <CNNscore>
0.5145829320

> <CNNaffinity>
6.8480215073

> <CNN_VS>
3.5238749981

> <CNNaffinity_variance>
1.2778337002

$$$$
[H]c1c([H])c([H])c2c(c1[H])c(C([H])([H])[C@]1([H])N([H])C(=O)[C@]([H])(C([H])([H])C([H])([H])C([H])([H])N=C(N([H])[H])N([H])[H])N([H])C(=O)C3([H])C([H])([H])C([H])([H])N1C([H])([H])C3([H])[H])c([H])n2[H]


 38 41  0  0  0  0  0  0  0  0999 V2000
   21.7619    8.0932   52.7722 C   0  0  0  0  0  0  0  0  0  0  0  0
   21.1517    7.1428   53.6555 N   0  0  0  0  0  0  0  0  0  0  0  0
   21.6881    6.3269   54.6360 C   0  0  0  0  0  0  0  0  0  0  0  0
   21.2862    6.4922   55.8598 O   0  0  0  0  0  0  0  0  0  0  0  0
   22.6838    5.2399   54.5635 C   0  0  0  0  0  0  0  0  0  0  0  0
   23.4975    5.1179   53.3437 C   0  0  0  0  0  0  0  0  0  0  0  0
   24.9072    5.6475   53.4571 C   0  0  0  0  0  0  0  0  0  0  0  0
   25.0191    6.8256   54.2676 N   0  0  0  0  0  0  0  0  0  0  0  0
   24.3147    6.7676   55.5031 C   0  0  0  0  0  0  0  0  0  0  0  0
   23.6519    5.4232   55.7407 C   0  0  0  0  0  0  0  0  0  0  0  0
   24.8337    8.0506   53.5065 C   0  0  0  0  0  0  0  0  0  0  0  0
   23.8325    8.8984   54.0646 N   0  0  0  0  0  0  0  0  0  0  0  0
   22.5466    9.1580   53.4580 C   0  0  0  0  0  0  0  0  0  0  0  0
   22.1070   10.3465   53.5354 O   0  0  0  0  0  0  0  0  0  0  0  0
   20.0823    7.0602   53.5243 H   0  0  0  0  0  0  0  0  0  0  0  0
   24.0472    9.3595   54.9994 H   0  0  0  0  0  0  0  0  0  0  0  0
   20.7189    8.8349   51.9470 C   0  0  0  0  0  0  0  0  0  0  0  0
   19.5299    8.0197   51.5937 C   0  0  0  0  0  0  0  0  0  0  0  0
   19.0088    7.1736   52.7078 C   0  0  0  0  0  0  0  0  0  0  0  0
   17.7715    4.9107   54.0366 N   0  0  0  0  0  0  0  0  0  0  0  0
   18.9906    4.8379   53.3144 C   0  0  0  0  0  0  0  0  0  0  0  0
   19.6261    3.5480   53.2583 N   0  0  0  0  0  0  0  0  0  0  0  0
   19.5382    5.8286   52.7289 N   0  0  0  0  0  0  0  0  0  0  0  0
   17.0883    5.6662   53.8305 H   0  0  0  0  0  0  0  0  0  0  0  0
   17.5226    4.2278   54.7809 H   0  0  0  0  0  0  0  0  0  0  0  0
   19.3065    2.7361   53.8263 H   0  0  0  0  0  0  0  0  0  0  0  0
   20.4471    3.4011   52.6243 H   0  0  0  0  0  0  0  0  0  0  0  0
   26.1165    8.6755   53.0889 C   0  0  0  0  0  0  0  0  0  0  0  0
   27.2465    8.6013   54.0066 C   0  0  0  0  0  0  0  0  0  0  0  0
   28.4808    8.1095   53.6409 C   0  0  0  0  0  0  0  0  0  0  0  0
   29.2821    8.1492   54.6932 N   0  0  0  0  0  0  0  0  0  0  0  0
   28.6079    8.6542   55.7390 C   0  0  0  0  0  0  0  0  0  0  0  0
   28.9963    8.9124   57.0616 C   0  0  0  0  0  0  0  0  0  0  0  0
   28.1236    9.4606   57.9892 C   0  0  0  0  0  0  0  0  0  0  0  0
   26.8483    9.7448   57.5586 C   0  0  0  0  0  0  0  0  0  0  0  0
   26.4567    9.4955   56.2653 C   0  0  0  0  0  0  0  0  0  0  0  0
   27.3318    8.9437   55.3295 C   0  0  0  0  0  0  0  0  0  0  0  0
   30.3069    7.8434   54.7587 H   0  0  0  0  0  0  0  0  0  0  0  0
 20 21  1  0  0  0
 21 22  1  0  0  0
 21 23  2  0  0  0
 23 19  1  0  0  0
 19 18  1  0  0  0
 18 17  1  0  0  0
 17  1  1  0  0  0
  1  2  1  0  0  0
  2  3  1  0  0  0
  3  4  2  0  0  0
  3  5  1  0  0  0
  5  6  1  0  0  0
  6  7  1  0  0  0
  7  8  1  0  0  0
  8  9  1  0  0  0
  9 10  1  0  0  0
  8 11  1  0  0  0
 11 28  1  0  0  0
 28 29  1  0  0  0
 29 30  2  0  0  0
 30 31  1  0  0  0
 31 32  1  0  0  0
 32 33  2  0  0  0
 33 34  1  0  0  0
 34 35  2  0  0  0
 35 36  1  0  0  0
 36 37  2  0  0  0
 11 12  1  0  0  0
 12 13  1  0  0  0
 13 14  2  0  0  0
 13  1  1  0  0  0
 10  5  1  0  0  0
 37 29  1  0  0  0
 37 32  1  0  0  0
 20 24  1  0  0  0
 20 25  1  0  0  0
 22 26  1  0  0  0
 22 27  1  0  0  0
  2 15  1  0  0  0
 31 38  1  0  0  0
 12 16  1  0  0  0
M  END
> <minimizedAffinity>
26.69976

> <CNNscore>
0.4884940088

> <CNNaffinity>
6.6101121902

> <CNN_VS>
3.2290000916

> <CNNaffinity_variance>
1.1218243837

$$$$
[H]c1c([H])c([H])c(C([H])([H])[C@@]([H])(C(=O)N([H])C([H])([H])[H])N([H])C(=O)[C@@]2([H])N(C(=O)[C@]([H])(N([H])C(=O)[C@@]([H])(N([H])C(=O)[C@@]([H])(N([H])C(=O)[C@@]([H])(N([H])C(=O)[C@@]3([H])N([H])C([H])([H])C([H])([H])C3([H])[H])C([H])([H])c3c([H])c([H])c([H])c([H])c3[H])C([H])([H])c3c([H])c([H])c([H])c([H])c3[H])C([H])([H])c3c([H])c([H])c([H])c([H])c3[H])C([H])([H])C([H])([H])C([H])([H])N=C(N([H])[H])N([H])[H])C([H])([H])C([H])([H])C2([H])[H])c([H])c1[H]


 82 87  0  0  0  0  0  0  0  0999 V2000
   27.4320   10.1193   56.8860 C   0  0  0  0  0  0  0  0  0  0  0  0
   28.2666    9.6988   57.9897 N   0  0  0  0  0  0  0  0  0  0  0  0
   28.7144   10.6875   58.9422 C   0  0  0  0  0  0  0  0  0  0  0  0
   28.3596   11.8579   58.7528 O   0  0  0  0  0  0  0  0  0  0  0  0
   28.5526    8.7114   58.1142 H   0  0  0  0  0  0  0  0  0  0  0  0
   29.5668   10.3230   60.0964 C   0  0  0  0  0  0  0  0  0  0  0  0
   30.7708   11.0730   60.1790 N   0  0  0  0  0  0  0  0  0  0  0  0
   31.3761   11.4901   61.3739 C   0  0  0  0  0  0  0  0  0  0  0  0
   30.9074   11.2130   62.4910 O   0  0  0  0  0  0  0  0  0  0  0  0
   31.2611   11.3468   59.2373 H   0  0  0  0  0  0  0  0  0  0  0  0
   32.6187   12.2976   61.2619 C   0  0  0  0  0  0  0  0  0  0  0  0
   32.3066   13.6588   61.6737 N   0  0  0  0  0  0  0  0  0  0  0  0
   32.7033   14.7696   60.8645 C   0  0  0  0  0  0  0  0  0  0  0  0
   33.3279   14.5172   59.7894 O   0  0  0  0  0  0  0  0  0  0  0  0
   31.7945   13.7791   62.5687 H   0  0  0  0  0  0  0  0  0  0  0  0
   32.3859   16.1252   61.2910 C   0  0  0  0  0  0  0  0  0  0  0  0
   31.9239   17.0447   60.1782 C   0  0  0  0  0  0  0  0  0  0  0  0
   31.9858   18.3892   60.9185 C   0  0  0  0  0  0  0  0  0  0  0  0
   33.1053   18.1956   61.8958 C   0  0  0  0  0  0  0  0  0  0  0  0
   33.5992   16.8455   61.7204 N   0  0  0  0  0  0  0  0  0  0  0  0
   34.2057   16.8277   60.8425 H   0  0  0  0  0  0  0  0  0  0  0  0
   33.7479   11.7803   62.1274 C   0  0  0  0  0  0  0  0  0  0  0  0
   33.3556   10.4216   62.5802 C   0  0  0  0  0  0  0  0  0  0  0  0
   32.8358    9.4782   61.6991 C   0  0  0  0  0  0  0  0  0  0  0  0
   32.4761    8.2136   62.1062 C   0  0  0  0  0  0  0  0  0  0  0  0
   32.6225    7.8347   63.4229 C   0  0  0  0  0  0  0  0  0  0  0  0
   33.1413    8.7661   64.3212 C   0  0  0  0  0  0  0  0  0  0  0  0
   33.4986   10.0376   63.8895 C   0  0  0  0  0  0  0  0  0  0  0  0
   28.7710   10.2240   61.3721 C   0  0  0  0  0  0  0  0  0  0  0  0
   28.1240   11.5189   61.6495 C   0  0  0  0  0  0  0  0  0  0  0  0
   27.0106   11.6605   62.4335 C   0  0  0  0  0  0  0  0  0  0  0  0
   26.3919   12.8960   62.6637 C   0  0  0  0  0  0  0  0  0  0  0  0
   26.9076   14.0328   62.0895 C   0  0  0  0  0  0  0  0  0  0  0  0
   28.0246   13.9238   61.2992 C   0  0  0  0  0  0  0  0  0  0  0  0
   28.6226   12.6985   61.0814 C   0  0  0  0  0  0  0  0  0  0  0  0
   25.6048    9.3839   55.3484 N   0  0  0  0  0  0  0  0  0  0  0  0
   26.3022    9.2722   56.5755 C   0  0  0  0  0  0  0  0  0  0  0  0
   25.8987    8.4043   57.3835 O   0  0  0  0  0  0  0  0  0  0  0  0
   25.9005   10.1145   54.6654 H   0  0  0  0  0  0  0  0  0  0  0  0
   24.4795    8.5298   54.9677 C   0  0  0  0  0  0  0  0  0  0  0  0
   21.8861   10.2412   52.5379 C   0  0  0  0  0  0  0  0  0  0  0  0
   20.4778    9.6988   52.6748 C   0  0  0  0  0  0  0  0  0  0  0  0
   20.3886    9.1834   54.1115 C   0  0  0  0  0  0  0  0  0  0  0  0
   21.5754    9.8711   54.7581 C   0  0  0  0  0  0  0  0  0  0  0  0
   22.5753    9.6663   53.7013 N   0  0  0  0  0  0  0  0  0  0  0  0
   23.8430    9.0920   53.7479 C   0  0  0  0  0  0  0  0  0  0  0  0
   24.5062    9.0475   52.6707 O   0  0  0  0  0  0  0  0  0  0  0  0
   21.4973   12.5970   51.5901 N   0  0  0  0  0  0  0  0  0  0  0  0
   21.9538   11.7096   52.5758 C   0  0  0  0  0  0  0  0  0  0  0  0
   22.4800   12.2619   53.6151 O   0  0  0  0  0  0  0  0  0  0  0  0
   21.0647   12.2525   50.7232 H   0  0  0  0  0  0  0  0  0  0  0  0
   21.6106   14.0626   51.7488 C   0  0  0  0  0  0  0  0  0  0  0  0
   18.3322   15.9565   52.4537 C   0  0  0  0  0  0  0  0  0  0  0  0
   19.5759   15.5156   51.8350 N   0  0  0  0  0  0  0  0  0  0  0  0
   20.3607   14.4913   52.4045 C   0  0  0  0  0  0  0  0  0  0  0  0
   19.9833   13.9602   53.4712 O   0  0  0  0  0  0  0  0  0  0  0  0
   19.9204   15.9782   50.9543 H   0  0  0  0  0  0  0  0  0  0  0  0
   21.8452   14.6784   50.3963 C   0  0  0  0  0  0  0  0  0  0  0  0
   22.3638   16.0387   50.3817 C   0  0  0  0  0  0  0  0  0  0  0  0
   21.9668   16.9983   51.3021 C   0  0  0  0  0  0  0  0  0  0  0  0
   22.5105   18.2699   51.2580 C   0  0  0  0  0  0  0  0  0  0  0  0
   23.4515   18.6380   50.3194 C   0  0  0  0  0  0  0  0  0  0  0  0
   23.8568   17.6930   49.3964 C   0  0  0  0  0  0  0  0  0  0  0  0
   23.3120   16.4374   49.4497 C   0  0  0  0  0  0  0  0  0  0  0  0
   24.9989    7.1411   54.8100 C   0  0  0  0  0  0  0  0  0  0  0  0
   23.9190    6.1014   55.0292 C   0  0  0  0  0  0  0  0  0  0  0  0
   23.3481    5.6273   53.7329 C   0  0  0  0  0  0  0  0  0  0  0  0
   21.9081    5.6921   53.7716 N   0  0  0  0  0  0  0  0  0  0  0  0
   21.2051    6.3286   52.9229 C   0  0  0  0  0  0  0  0  0  0  0  0
   21.8513    7.0195   51.8740 N   0  0  0  0  0  0  0  0  0  0  0  0
   19.8026    6.3523   53.0096 N   0  0  0  0  0  0  0  0  0  0  0  0
   21.7726    8.0462   51.7983 H   0  0  0  0  0  0  0  0  0  0  0  0
   22.4062    6.4857   51.1838 H   0  0  0  0  0  0  0  0  0  0  0  0
   19.2229    6.4580   52.1598 H   0  0  0  0  0  0  0  0  0  0  0  0
   19.3383    6.2654   53.9347 H   0  0  0  0  0  0  0  0  0  0  0  0
   28.4067   10.2208   55.6793 C   0  0  0  0  0  0  0  0  0  0  0  0
   28.2788    9.0753   54.7678 C   0  0  0  0  0  0  0  0  0  0  0  0
   27.5410    9.2043   53.5901 C   0  0  0  0  0  0  0  0  0  0  0  0
   27.3863    8.1577   52.7142 C   0  0  0  0  0  0  0  0  0  0  0  0
   27.9676    6.9491   52.9917 C   0  0  0  0  0  0  0  0  0  0  0  0
   28.7076    6.7846   54.1514 C   0  0  0  0  0  0  0  0  0  0  0  0
   28.8504    7.8454   55.0169 C   0  0  0  0  0  0  0  0  0  0  0  0
 53 54  1  0  0  0
 54 55  1  0  0  0
 55 56  2  0  0  0
 55 52  1  0  0  0
 52 58  1  0  0  0
 58 59  1  0  0  0
 59 60  2  0  0  0
 60 61  1  0  0  0
 61 62  2  0  0  0
 62 63  1  0  0  0
 63 64  2  0  0  0
 52 48  1  0  0  0
 48 49  1  0  0  0
 49 50  2  0  0  0
 49 41  1  0  0  0
 41 42  1  0  0  0
 42 43  1  0  0  0
 43 44  1  0  0  0
 44 45  1  0  0  0
 45 46  1  0  0  0
 46 47  2  0  0  0
 46 40  1  0  0  0
 40 65  1  0  0  0
 65 66  1  0  0  0
 66 67  1  0  0  0
 67 68  1  0  0  0
 68 69  2  0  0  0
 69 70  1  0  0  0
 69 71  1  0  0  0
 40 36  1  0  0  0
 36 37  1  0  0  0
 37 38  2  0  0  0
 37  1  1  0  0  0
  1 76  1  0  0  0
 76 77  1  0  0  0
 77 78  2  0  0  0
 78 79  1  0  0  0
 79 80  2  0  0  0
 80 81  1  0  0  0
 81 82  2  0  0  0
  1  2  1  0  0  0
  2  3  1  0  0  0
  3  4  2  0  0  0
  3  6  1  0  0  0
  6 29  1  0  0  0
 29 30  1  0  0  0
 30 31  2  0  0  0
 31 32  1  0  0  0
 32 33  2  0  0  0
 33 34  1  0  0  0
 34 35  2  0  0  0
  6  7  1  0  0  0
  7  8  1  0  0  0
  8  9  2  0  0  0
  8 11  1  0  0  0
 11 22  1  0  0  0
 22 23  1  0  0  0
 23 24  2  0  0  0
 24 25  1  0  0  0
 25 26  2  0  0  0
 26 27  1  0  0  0
 27 28  2  0  0  0
 11 12  1  0  0  0
 12 13  1  0  0  0
 13 14  2  0  0  0
 13 16  1  0  0  0
 16 17  1  0  0  0
 17 18  1  0  0  0
 18 19  1  0  0  0
 19 20  1  0  0  0
 64 59  1  0  0  0
 45 41  1  0  0  0
 82 77  1  0  0  0
 35 30  1  0  0  0
 28 23  1  0  0  0
 20 16  1  0  0  0
 54 57  1  0  0  0
 48 51  1  0  0  0
 70 72  1  0  0  0
 70 73  1  0  0  0
 71 74  1  0  0  0
 71 75  1  0  0  0
 36 39  1  0  0  0
  2  5  1  0  0  0
  7 10  1  0  0  0
 12 15  1  0  0  0
 20 21  1  0  0  0
M  END
> <minimizedAffinity>
23.04118

> <CNNscore>
0.6703294516

> <CNNaffinity>
7.7455177307

> <CNN_VS>
5.1920485497

> <CNNaffinity_variance>
1.8103783131

$$$$
[H]c1c([H])c([H])c(C([H])([H])[C@@]([H])(C(=O)N([H])C([H])([H])[H])N([H])C(=O)[C@@]2([H])N(C(=O)[C@]([H])(N([H])C(=O)[C@@]([H])(N([H])C(=O)[C@@]([H])(N([H])C(=O)[C@@]([H])(N([H])C(=O)[C@@]3([H])N([H])C([H])([H])C([H])([H])C3([H])[H])C([H])([H])c3c([H])c([H])c([H])c([H])c3[H])C([H])([H])c3c([H])c([H])c([H])c([H])c3[H])C([H])([H])c3c([H])c([H])c([H])c([H])c3[H])C([H])([H])C([H])([H])C([H])([H])N=C(N([H])[H])N([H])[H])C([H])([H])C([H])([H])C2([H])[H])c([H])c1[H]


 82 87  0  0  0  0  0  0  0  0999 V2000
   27.5260   10.4589   57.0279 C   0  0  0  0  0  0  0  0  0  0  0  0
   27.8607   10.6254   58.4250 N   0  0  0  0  0  0  0  0  0  0  0  0
   28.0751   11.9585   58.9372 C   0  0  0  0  0  0  0  0  0  0  0  0
   27.9663   12.8967   58.1375 O   0  0  0  0  0  0  0  0  0  0  0  0
   27.9524    9.8172   59.0658 H   0  0  0  0  0  0  0  0  0  0  0  0
   28.4161   12.1987   60.3576 C   0  0  0  0  0  0  0  0  0  0  0  0
   29.8048   12.3905   60.5889 N   0  0  0  0  0  0  0  0  0  0  0  0
   30.3916   12.5646   61.8513 C   0  0  0  0  0  0  0  0  0  0  0  0
   29.7296   12.5447   62.9029 O   0  0  0  0  0  0  0  0  0  0  0  0
   30.4655   12.4049   59.7141 H   0  0  0  0  0  0  0  0  0  0  0  0
   31.8605   12.7859   61.8946 C   0  0  0  0  0  0  0  0  0  0  0  0
   32.4745   11.6021   62.4791 N   0  0  0  0  0  0  0  0  0  0  0  0
   32.2957   10.3188   61.8727 C   0  0  0  0  0  0  0  0  0  0  0  0
   31.5904   10.2621   60.8197 O   0  0  0  0  0  0  0  0  0  0  0  0
   33.0346   11.7344   63.3430 H   0  0  0  0  0  0  0  0  0  0  0  0
   32.9142    9.1439   62.4705 C   0  0  0  0  0  0  0  0  0  0  0  0
   31.9843    7.9592   62.6407 C   0  0  0  0  0  0  0  0  0  0  0  0
   32.8620    7.0753   63.5393 C   0  0  0  0  0  0  0  0  0  0  0  0
   33.6590    8.0680   64.3299 C   0  0  0  0  0  0  0  0  0  0  0  0
   33.2660    9.3880   63.8819 N   0  0  0  0  0  0  0  0  0  0  0  0
   32.3218    9.6183   64.3226 H   0  0  0  0  0  0  0  0  0  0  0  0
   32.4705   13.0196   60.5290 C   0  0  0  0  0  0  0  0  0  0  0  0
   32.8060   14.4638   60.4488 C   0  0  0  0  0  0  0  0  0  0  0  0
   33.5526   14.9844   59.3961 C   0  0  0  0  0  0  0  0  0  0  0  0
   33.8628   16.3223   59.3076 C   0  0  0  0  0  0  0  0  0  0  0  0
   33.4358   17.2048   60.2759 C   0  0  0  0  0  0  0  0  0  0  0  0
   32.6869   16.7023   61.3391 C   0  0  0  0  0  0  0  0  0  0  0  0
   32.3843   15.3480   61.4093 C   0  0  0  0  0  0  0  0  0  0  0  0
   27.5027   13.2173   60.9891 C   0  0  0  0  0  0  0  0  0  0  0  0
   28.0713   14.5652   60.8101 C   0  0  0  0  0  0  0  0  0  0  0  0
   29.0577   14.8612   59.9080 C   0  0  0  0  0  0  0  0  0  0  0  0
   29.6066   16.1426   59.7709 C   0  0  0  0  0  0  0  0  0  0  0  0
   29.1502   17.1669   60.5648 C   0  0  0  0  0  0  0  0  0  0  0  0
   28.1603   16.9023   61.4782 C   0  0  0  0  0  0  0  0  0  0  0  0
   27.6299   15.6335   61.6018 C   0  0  0  0  0  0  0  0  0  0  0  0
   25.7315    9.6379   55.4952 N   0  0  0  0  0  0  0  0  0  0  0  0
   26.4158    9.5808   56.7333 C   0  0  0  0  0  0  0  0  0  0  0  0
   26.0185    8.7331   57.5656 O   0  0  0  0  0  0  0  0  0  0  0  0
   26.0220   10.3506   54.7913 H   0  0  0  0  0  0  0  0  0  0  0  0
   24.6268    8.7506   55.1307 C   0  0  0  0  0  0  0  0  0  0  0  0
   22.0493   10.3243   52.5933 C   0  0  0  0  0  0  0  0  0  0  0  0
   20.6463    9.7690   52.7316 C   0  0  0  0  0  0  0  0  0  0  0  0
   20.5415    9.3124   54.1870 C   0  0  0  0  0  0  0  0  0  0  0  0
   21.7091   10.0424   54.8221 C   0  0  0  0  0  0  0  0  0  0  0  0
   22.7279    9.8075   53.7897 N   0  0  0  0  0  0  0  0  0  0  0  0
   24.0020    9.2529   53.8792 C   0  0  0  0  0  0  0  0  0  0  0  0
   24.6823    9.1729   52.8147 O   0  0  0  0  0  0  0  0  0  0  0  0
   21.8268   12.6263   51.4750 N   0  0  0  0  0  0  0  0  0  0  0  0
   22.0974   11.7938   52.5710 C   0  0  0  0  0  0  0  0  0  0  0  0
   22.4152   12.4029   53.6619 O   0  0  0  0  0  0  0  0  0  0  0  0
   21.5671   12.2344   50.5605 H   0  0  0  0  0  0  0  0  0  0  0  0
   21.8971   14.0994   51.5799 C   0  0  0  0  0  0  0  0  0  0  0  0
   18.5841   15.6128   52.8310 C   0  0  0  0  0  0  0  0  0  0  0  0
   19.9601   15.1356   52.7770 N   0  0  0  0  0  0  0  0  0  0  0  0
   20.4978   14.5655   51.6043 C   0  0  0  0  0  0  0  0  0  0  0  0
   19.7702   14.4578   50.5937 O   0  0  0  0  0  0  0  0  0  0  0  0
   20.5720   15.1910   53.6318 H   0  0  0  0  0  0  0  0  0  0  0  0
   22.7076   14.6278   50.4278 C   0  0  0  0  0  0  0  0  0  0  0  0
   22.6733   16.0675   50.2141 C   0  0  0  0  0  0  0  0  0  0  0  0
   22.6761   16.6338   48.9472 C   0  0  0  0  0  0  0  0  0  0  0  0
   22.6172   18.0084   48.8008 C   0  0  0  0  0  0  0  0  0  0  0  0
   22.5546   18.8637   49.8810 C   0  0  0  0  0  0  0  0  0  0  0  0
   22.5509   18.3143   51.1487 C   0  0  0  0  0  0  0  0  0  0  0  0
   22.6091   16.9523   51.2817 C   0  0  0  0  0  0  0  0  0  0  0  0
   25.1713    7.3656   55.0372 C   0  0  0  0  0  0  0  0  0  0  0  0
   24.4323    6.5319   54.0105 C   0  0  0  0  0  0  0  0  0  0  0  0
   23.1262    6.0420   54.5446 C   0  0  0  0  0  0  0  0  0  0  0  0
   22.0354    6.6737   53.8444 N   0  0  0  0  0  0  0  0  0  0  0  0
   21.0124    6.0490   53.4169 C   0  0  0  0  0  0  0  0  0  0  0  0
   20.9188    4.6557   53.6286 N   0  0  0  0  0  0  0  0  0  0  0  0
   19.9772    6.7203   52.7438 N   0  0  0  0  0  0  0  0  0  0  0  0
   20.8950    4.0059   52.8266 H   0  0  0  0  0  0  0  0  0  0  0  0
   20.8764    4.2933   54.5961 H   0  0  0  0  0  0  0  0  0  0  0  0
   19.0056    6.3686   52.7851 H   0  0  0  0  0  0  0  0  0  0  0  0
   20.1850    7.5778   52.1957 H   0  0  0  0  0  0  0  0  0  0  0  0
   28.8386    9.9443   56.3732 C   0  0  0  0  0  0  0  0  0  0  0  0
   28.5760    9.0747   55.2182 C   0  0  0  0  0  0  0  0  0  0  0  0
   28.0438    9.6173   54.0475 C   0  0  0  0  0  0  0  0  0  0  0  0
   27.7730    8.8409   52.9474 C   0  0  0  0  0  0  0  0  0  0  0  0
   28.0281    7.4959   52.9868 C   0  0  0  0  0  0  0  0  0  0  0  0
   28.5568    6.9228   54.1320 C   0  0  0  0  0  0  0  0  0  0  0  0
   28.8208    7.7177   55.2243 C   0  0  0  0  0  0  0  0  0  0  0  0
 53 54  1  0  0  0
 54 55  1  0  0  0
 55 56  2  0  0  0
 55 52  1  0  0  0
 52 58  1  0  0  0
 58 59  1  0  0  0
 59 60  2  0  0  0
 60 61  1  0  0  0
 61 62  2  0  0  0
 62 63  1  0  0  0
 63 64  2  0  0  0
 52 48  1  0  0  0
 48 49  1  0  0  0
 49 50  2  0  0  0
 49 41  1  0  0  0
 41 42  1  0  0  0
 42 43  1  0  0  0
 43 44  1  0  0  0
 44 45  1  0  0  0
 45 46  1  0  0  0
 46 47  2  0  0  0
 46 40  1  0  0  0
 40 65  1  0  0  0
 65 66  1  0  0  0
 66 67  1  0  0  0
 67 68  1  0  0  0
 68 69  2  0  0  0
 69 70  1  0  0  0
 69 71  1  0  0  0
 40 36  1  0  0  0
 36 37  1  0  0  0
 37 38  2  0  0  0
 37  1  1  0  0  0
  1 76  1  0  0  0
 76 77  1  0  0  0
 77 78  2  0  0  0
 78 79  1  0  0  0
 79 80  2  0  0  0
 80 81  1  0  0  0
 81 82  2  0  0  0
  1  2  1  0  0  0
  2  3  1  0  0  0
  3  4  2  0  0  0
  3  6  1  0  0  0
  6 29  1  0  0  0
 29 30  1  0  0  0
 30 31  2  0  0  0
 31 32  1  0  0  0
 32 33  2  0  0  0
 33 34  1  0  0  0
 34 35  2  0  0  0
  6  7  1  0  0  0
  7  8  1  0  0  0
  8  9  2  0  0  0
  8 11  1  0  0  0
 11 22  1  0  0  0
 22 23  1  0  0  0
 23 24  2  0  0  0
 24 25  1  0  0  0
 25 26  2  0  0  0
 26 27  1  0  0  0
 27 28  2  0  0  0
 11 12  1  0  0  0
 12 13  1  0  0  0
 13 14  2  0  0  0
 13 16  1  0  0  0
 16 17  1  0  0  0
 17 18  1  0  0  0
 18 19  1  0  0  0
 19 20  1  0  0  0
 64 59  1  0  0  0
 45 41  1  0  0  0
 82 77  1  0  0  0
 35 30  1  0  0  0
 28 23  1  0  0  0
 20 16  1  0  0  0
 54 57  1  0  0  0
 48 51  1  0  0  0
 70 72  1  0  0  0
 70 73  1  0  0  0
 71 74  1  0  0  0
 71 75  1  0  0  0
 36 39  1  0  0  0
  2  5  1  0  0  0
  7 10  1  0  0  0
 12 15  1  0  0  0
 20 21  1  0  0  0
M  END
> <minimizedAffinity>
26.96842

> <CNNscore>
0.6690016985

> <CNNaffinity>
7.7160568237

> <CNN_VS>
5.1620550156

> <CNNaffinity_variance>
1.8637130260

$$$$
[H]c1c([H])c([H])c(C([H])([H])[C@@]([H])(C(=O)N([H])C([H])([H])[H])N([H])C(=O)[C@@]2([H])N(C(=O)[C@]([H])(N([H])C(=O)[C@@]([H])(N([H])C(=O)[C@@]([H])(N([H])C(=O)[C@@]([H])(N([H])C(=O)[C@@]3([H])N([H])C([H])([H])C([H])([H])C3([H])[H])C([H])([H])c3c([H])c([H])c([H])c([H])c3[H])C([H])([H])c3c([H])c([H])c([H])c([H])c3[H])C([H])([H])c3c([H])c([H])c([H])c([H])c3[H])C([H])([H])C([H])([H])C([H])([H])N=C(N([H])[H])N([H])[H])C([H])([H])C([H])([H])C2([H])[H])c([H])c1[H]


 82 87  0  0  0  0  0  0  0  0999 V2000
   27.4042   10.2448   56.7374 C   0  0  0  0  0  0  0  0  0  0  0  0
   28.2744    9.8673   57.8291 N   0  0  0  0  0  0  0  0  0  0  0  0
   28.6770   10.8755   58.7814 C   0  0  0  0  0  0  0  0  0  0  0  0
   28.2544   12.0248   58.6021 O   0  0  0  0  0  0  0  0  0  0  0  0
   28.6172    8.8971   57.9452 H   0  0  0  0  0  0  0  0  0  0  0  0
   29.5624   10.5548   59.9237 C   0  0  0  0  0  0  0  0  0  0  0  0
   30.4695   11.5967   60.2558 N   0  0  0  0  0  0  0  0  0  0  0  0
   30.2015   12.6366   61.1586 C   0  0  0  0  0  0  0  0  0  0  0  0
   29.1261   12.7237   61.7753 O   0  0  0  0  0  0  0  0  0  0  0  0
   31.4512   11.5866   59.7677 H   0  0  0  0  0  0  0  0  0  0  0  0
   31.2628   13.6583   61.3548 C   0  0  0  0  0  0  0  0  0  0  0  0
   30.6793   14.9660   61.0914 N   0  0  0  0  0  0  0  0  0  0  0  0
   31.5180   16.0904   60.8108 C   0  0  0  0  0  0  0  0  0  0  0  0
   32.7719   15.8975   60.8013 O   0  0  0  0  0  0  0  0  0  0  0  0
   29.6442   15.0394   61.1205 H   0  0  0  0  0  0  0  0  0  0  0  0
   30.9196   17.3924   60.5518 C   0  0  0  0  0  0  0  0  0  0  0  0
   29.4040   17.4040   60.5655 C   0  0  0  0  0  0  0  0  0  0  0  0
   29.1561   18.7995   59.9735 C   0  0  0  0  0  0  0  0  0  0  0  0
   30.3256   19.0007   59.0584 C   0  0  0  0  0  0  0  0  0  0  0  0
   31.1585   17.8203   59.1607 N   0  0  0  0  0  0  0  0  0  0  0  0
   30.6985   17.0419   58.5936 H   0  0  0  0  0  0  0  0  0  0  0  0
   31.8380   13.6615   62.7551 C   0  0  0  0  0  0  0  0  0  0  0  0
   32.5242   12.3579   62.9416 C   0  0  0  0  0  0  0  0  0  0  0  0
   32.4667   11.6665   64.1478 C   0  0  0  0  0  0  0  0  0  0  0  0
   33.0922   10.4541   64.3294 C   0  0  0  0  0  0  0  0  0  0  0  0
   33.8078    9.8758   63.3036 C   0  0  0  0  0  0  0  0  0  0  0  0
   33.8776   10.5534   62.0872 C   0  0  0  0  0  0  0  0  0  0  0  0
   33.2383   11.7764   61.9247 C   0  0  0  0  0  0  0  0  0  0  0  0
   28.7958    9.9642   61.0788 C   0  0  0  0  0  0  0  0  0  0  0  0
   29.5661    8.8512   61.6620 C   0  0  0  0  0  0  0  0  0  0  0  0
   28.9958    7.7890   62.3108 C   0  0  0  0  0  0  0  0  0  0  0  0
   29.7451    6.7536   62.8840 C   0  0  0  0  0  0  0  0  0  0  0  0
   31.1165    6.7808   62.8036 C   0  0  0  0  0  0  0  0  0  0  0  0
   31.7183    7.8321   62.1578 C   0  0  0  0  0  0  0  0  0  0  0  0
   30.9657    8.8455   61.5985 C   0  0  0  0  0  0  0  0  0  0  0  0
   25.6348    9.3535   55.2150 N   0  0  0  0  0  0  0  0  0  0  0  0
   26.2890    9.3643   56.4704 C   0  0  0  0  0  0  0  0  0  0  0  0
   25.8604    8.5747   57.3434 O   0  0  0  0  0  0  0  0  0  0  0  0
   25.9517   10.0176   54.4759 H   0  0  0  0  0  0  0  0  0  0  0  0
   24.5265    8.4594   54.8790 C   0  0  0  0  0  0  0  0  0  0  0  0
   21.7927   10.1865   52.6202 C   0  0  0  0  0  0  0  0  0  0  0  0
   20.3854    9.6919   52.8864 C   0  0  0  0  0  0  0  0  0  0  0  0
   20.3996    9.2170   54.3397 C   0  0  0  0  0  0  0  0  0  0  0  0
   21.6548    9.8842   54.8680 C   0  0  0  0  0  0  0  0  0  0  0  0
   22.5583    9.6210   53.7396 N   0  0  0  0  0  0  0  0  0  0  0  0
   23.8085    9.0090   53.6994 C   0  0  0  0  0  0  0  0  0  0  0  0
   24.3794    8.9159   52.5736 O   0  0  0  0  0  0  0  0  0  0  0  0
   21.3864   12.5285   51.6459 N   0  0  0  0  0  0  0  0  0  0  0  0
   21.9056   11.6526   52.6106 C   0  0  0  0  0  0  0  0  0  0  0  0
   22.5402   12.2144   53.5820 O   0  0  0  0  0  0  0  0  0  0  0  0
   20.8667   12.1757   50.8317 H   0  0  0  0  0  0  0  0  0  0  0  0
   21.5556   13.9934   51.7525 C   0  0  0  0  0  0  0  0  0  0  0  0
   18.3365   16.0175   52.3622 C   0  0  0  0  0  0  0  0  0  0  0  0
   19.5645   15.5078   51.7652 N   0  0  0  0  0  0  0  0  0  0  0  0
   20.3213   14.4931   52.3871 C   0  0  0  0  0  0  0  0  0  0  0  0
   19.9328   14.0312   53.4817 O   0  0  0  0  0  0  0  0  0  0  0  0
   19.9187   15.9122   50.8601 H   0  0  0  0  0  0  0  0  0  0  0  0
   21.8177   14.5508   50.3798 C   0  0  0  0  0  0  0  0  0  0  0  0
   22.3902   15.8879   50.3188 C   0  0  0  0  0  0  0  0  0  0  0  0
   23.3953   16.2289   49.4247 C   0  0  0  0  0  0  0  0  0  0  0  0
   23.8865   17.5220   49.3921 C   0  0  0  0  0  0  0  0  0  0  0  0
   23.4131   18.5126   50.2268 C   0  0  0  0  0  0  0  0  0  0  0  0
   22.4122   18.1880   51.1223 C   0  0  0  0  0  0  0  0  0  0  0  0
   21.9334   16.9049   51.1456 C   0  0  0  0  0  0  0  0  0  0  0  0
   25.0918    7.0944   54.6778 C   0  0  0  0  0  0  0  0  0  0  0  0
   24.1248    6.1788   53.9555 C   0  0  0  0  0  0  0  0  0  0  0  0
   22.7176    6.6630   54.0833 C   0  0  0  0  0  0  0  0  0  0  0  0
   21.8016    5.5521   54.0059 N   0  0  0  0  0  0  0  0  0  0  0  0
   20.6741    5.6038   53.4178 C   0  0  0  0  0  0  0  0  0  0  0  0
   20.2759    6.8091   52.7984 N   0  0  0  0  0  0  0  0  0  0  0  0
   19.8243    4.4854   53.3715 N   0  0  0  0  0  0  0  0  0  0  0  0
   19.4400    7.3159   53.1308 H   0  0  0  0  0  0  0  0  0  0  0  0
   20.8322    7.1797   52.0095 H   0  0  0  0  0  0  0  0  0  0  0  0
   19.1688    4.3528   52.5828 H   0  0  0  0  0  0  0  0  0  0  0  0
   19.8491    3.7828   54.1361 H   0  0  0  0  0  0  0  0  0  0  0  0
   28.3479   10.3457   55.5062 C   0  0  0  0  0  0  0  0  0  0  0  0
   28.3730    9.1008   54.7259 C   0  0  0  0  0  0  0  0  0  0  0  0
   27.5331    8.9573   53.6204 C   0  0  0  0  0  0  0  0  0  0  0  0
   27.5157    7.8081   52.8685 C   0  0  0  0  0  0  0  0  0  0  0  0
   28.3409    6.7669   53.2014 C   0  0  0  0  0  0  0  0  0  0  0  0
   29.1885    6.8742   54.2921 C   0  0  0  0  0  0  0  0  0  0  0  0
   29.1907    8.0339   55.0335 C   0  0  0  0  0  0  0  0  0  0  0  0
 53 54  1  0  0  0
 54 55  1  0  0  0
 55 56  2  0  0  0
 55 52  1  0  0  0
 52 58  1  0  0  0
 58 59  1  0  0  0
 59 60  2  0  0  0
 60 61  1  0  0  0
 61 62  2  0  0  0
 62 63  1  0  0  0
 63 64  2  0  0  0
 52 48  1  0  0  0
 48 49  1  0  0  0
 49 50  2  0  0  0
 49 41  1  0  0  0
 41 42  1  0  0  0
 42 43  1  0  0  0
 43 44  1  0  0  0
 44 45  1  0  0  0
 45 46  1  0  0  0
 46 47  2  0  0  0
 46 40  1  0  0  0
 40 65  1  0  0  0
 65 66  1  0  0  0
 66 67  1  0  0  0
 67 68  1  0  0  0
 68 69  2  0  0  0
 69 70  1  0  0  0
 69 71  1  0  0  0
 40 36  1  0  0  0
 36 37  1  0  0  0
 37 38  2  0  0  0
 37  1  1  0  0  0
  1 76  1  0  0  0
 76 77  1  0  0  0
 77 78  2  0  0  0
 78 79  1  0  0  0
 79 80  2  0  0  0
 80 81  1  0  0  0
 81 82  2  0  0  0
  1  2  1  0  0  0
  2  3  1  0  0  0
  3  4  2  0  0  0
  3  6  1  0  0  0
  6 29  1  0  0  0
 29 30  1  0  0  0
 30 31  2  0  0  0
 31 32  1  0  0  0
 32 33  2  0  0  0
 33 34  1  0  0  0
 34 35  2  0  0  0
  6  7  1  0  0  0
  7  8  1  0  0  0
  8  9  2  0  0  0
  8 11  1  0  0  0
 11 22  1  0  0  0
 22 23  1  0  0  0
 23 24  2  0  0  0
 24 25  1  0  0  0
 25 26  2  0  0  0
 26 27  1  0  0  0
 27 28  2  0  0  0
 11 12  1  0  0  0
 12 13  1  0  0  0
 13 14  2  0  0  0
 13 16  1  0  0  0
 16 17  1  0  0  0
 17 18  1  0  0  0
 18 19  1  0  0  0
 19 20  1  0  0  0
 64 59  1  0  0  0
 45 41  1  0  0  0
 82 77  1  0  0  0
 35 30  1  0  0  0
 28 23  1  0  0  0
 20 16  1  0  0  0
 54 57  1  0  0  0
 48 51  1  0  0  0
 70 72  1  0  0  0
 70 73  1  0  0  0
 71 74  1  0  0  0
 71 75  1  0  0  0
 36 39  1  0  0  0
  2  5  1  0  0  0
  7 10  1  0  0  0
 12 15  1  0  0  0
 20 21  1  0  0  0
M  END
> <minimizedAffinity>
25.14047

> <CNNscore>
0.6526327729

> <CNNaffinity>
7.8671026230

> <CNN_VS>
5.1343288422

> <CNNaffinity_variance>
1.7505127192

$$$$
[H]c1c([H])c([H])c(C([H])([H])[C@@]([H])(C(=O)N([H])C([H])([H])[H])N([H])C(=O)[C@@]2([H])N(C(=O)[C@]([H])(N([H])C(=O)[C@@]([H])(N([H])C(=O)[C@@]([H])(N([H])C(=O)[C@@]([H])(N([H])C(=O)[C@@]3([H])N([H])C([H])([H])C([H])([H])C3([H])[H])C([H])([H])c3c([H])c([H])c([H])c([H])c3[H])C([H])([H])c3c([H])c([H])c([H])c([H])c3[H])C([H])([H])c3c([H])c([H])c([H])c([H])c3[H])C([H])([H])C([H])([H])C([H])([H])N=C(N([H])[H])N([H])[H])C([H])([H])C([H])([H])C2([H])[H])c([H])c1[H]


 82 87  0  0  0  0  0  0  0  0999 V2000
   27.7454   10.5533   56.4968 C   0  0  0  0  0  0  0  0  0  0  0  0
   28.5951   10.4446   57.6621 N   0  0  0  0  0  0  0  0  0  0  0  0
   28.6898   11.5684   58.5640 C   0  0  0  0  0  0  0  0  0  0  0  0
   28.0346   12.5792   58.2802 O   0  0  0  0  0  0  0  0  0  0  0  0
   29.1372    9.5862   57.8658 H   0  0  0  0  0  0  0  0  0  0  0  0
   29.5378   11.5211   59.7765 C   0  0  0  0  0  0  0  0  0  0  0  0
   30.0861   12.7800   60.1418 N   0  0  0  0  0  0  0  0  0  0  0  0
   29.3471   13.8624   60.6425 C   0  0  0  0  0  0  0  0  0  0  0  0
   28.1205   13.8014   60.8326 O   0  0  0  0  0  0  0  0  0  0  0  0
   31.1675   12.9143   60.0209 H   0  0  0  0  0  0  0  0  0  0  0  0
   30.0899   15.1150   60.9387 C   0  0  0  0  0  0  0  0  0  0  0  0
   29.5540   16.1658   60.0852 N   0  0  0  0  0  0  0  0  0  0  0  0
   30.4339   17.0282   59.3584 C   0  0  0  0  0  0  0  0  0  0  0  0
   31.6813   16.8369   59.4894 O   0  0  0  0  0  0  0  0  0  0  0  0
   28.5211   16.2569   60.0350 H   0  0  0  0  0  0  0  0  0  0  0  0
   29.8827   18.0760   58.5107 C   0  0  0  0  0  0  0  0  0  0  0  0
   28.3704   18.1741   58.5319 C   0  0  0  0  0  0  0  0  0  0  0  0
   28.1617   19.1252   57.3439 C   0  0  0  0  0  0  0  0  0  0  0  0
   29.3066   18.7993   56.4335 C   0  0  0  0  0  0  0  0  0  0  0  0
   30.0916   17.7701   57.0830 N   0  0  0  0  0  0  0  0  0  0  0  0
   29.5799   16.8410   56.9649 H   0  0  0  0  0  0  0  0  0  0  0  0
   29.9655   15.5569   62.3813 C   0  0  0  0  0  0  0  0  0  0  0  0
   30.8330   16.7514   62.5419 C   0  0  0  0  0  0  0  0  0  0  0  0
   32.2205   16.6608   62.4879 C   0  0  0  0  0  0  0  0  0  0  0  0
   33.0339   17.7622   62.6277 C   0  0  0  0  0  0  0  0  0  0  0  0
   32.4900   19.0122   62.8286 C   0  0  0  0  0  0  0  0  0  0  0  0
   31.1015   19.1235   62.8861 C   0  0  0  0  0  0  0  0  0  0  0  0
   30.2983   17.9988   62.7422 C   0  0  0  0  0  0  0  0  0  0  0  0
   28.8808   10.7477   60.8905 C   0  0  0  0  0  0  0  0  0  0  0  0
   29.8053    9.7090   61.3793 C   0  0  0  0  0  0  0  0  0  0  0  0
   29.5231    8.3695   61.3607 C   0  0  0  0  0  0  0  0  0  0  0  0
   30.4023    7.3978   61.8556 C   0  0  0  0  0  0  0  0  0  0  0  0
   31.6100    7.7804   62.3874 C   0  0  0  0  0  0  0  0  0  0  0  0
   31.9230    9.1166   62.4189 C   0  0  0  0  0  0  0  0  0  0  0  0
   31.0452   10.0624   61.9276 C   0  0  0  0  0  0  0  0  0  0  0  0
   25.7792    9.5880   55.2945 N   0  0  0  0  0  0  0  0  0  0  0  0
   26.6473    9.6167   56.4126 C   0  0  0  0  0  0  0  0  0  0  0  0
   26.4240    8.7922   57.3288 O   0  0  0  0  0  0  0  0  0  0  0  0
   25.9233   10.2791   54.5268 H   0  0  0  0  0  0  0  0  0  0  0  0
   24.6762    8.6391   55.1408 C   0  0  0  0  0  0  0  0  0  0  0  0
   21.6786   10.2189   53.1216 C   0  0  0  0  0  0  0  0  0  0  0  0
   20.3153    9.7962   53.6304 C   0  0  0  0  0  0  0  0  0  0  0  0
   20.5276    9.4664   55.1081 C   0  0  0  0  0  0  0  0  0  0  0  0
   21.8559   10.1434   55.3856 C   0  0  0  0  0  0  0  0  0  0  0  0
   22.5858    9.7429   54.1749 N   0  0  0  0  0  0  0  0  0  0  0  0
   23.8073    9.0919   54.0232 C   0  0  0  0  0  0  0  0  0  0  0  0
   24.2111    8.8711   52.8441 O   0  0  0  0  0  0  0  0  0  0  0  0
   21.0632   12.4884   52.0872 N   0  0  0  0  0  0  0  0  0  0  0  0
   21.8132   11.6727   52.9473 C   0  0  0  0  0  0  0  0  0  0  0  0
   22.7041   12.2840   53.6506 O   0  0  0  0  0  0  0  0  0  0  0  0
   20.3305   12.0932   51.4836 H   0  0  0  0  0  0  0  0  0  0  0  0
   21.2842   13.9482   52.0088 C   0  0  0  0  0  0  0  0  0  0  0  0
   18.1979   16.2135   52.4264 C   0  0  0  0  0  0  0  0  0  0  0  0
   19.3986   15.5877   51.8871 N   0  0  0  0  0  0  0  0  0  0  0  0
   20.0759   14.5668   52.5860 C   0  0  0  0  0  0  0  0  0  0  0  0
   19.6398   14.2015   53.6989 O   0  0  0  0  0  0  0  0  0  0  0  0
   19.7937   15.9100   50.9662 H   0  0  0  0  0  0  0  0  0  0  0  0
   21.5482   14.3206   50.5752 C   0  0  0  0  0  0  0  0  0  0  0  0
   21.8773   15.7147   50.3150 C   0  0  0  0  0  0  0  0  0  0  0  0
   21.6960   16.3045   49.0720 C   0  0  0  0  0  0  0  0  0  0  0  0
   22.0023   17.6409   48.8860 C   0  0  0  0  0  0  0  0  0  0  0  0
   22.4915   18.4343   49.9025 C   0  0  0  0  0  0  0  0  0  0  0  0
   22.6771   17.8609   51.1459 C   0  0  0  0  0  0  0  0  0  0  0  0
   22.3703   16.5372   51.3184 C   0  0  0  0  0  0  0  0  0  0  0  0
   25.2685    7.2837   54.9533 C   0  0  0  0  0  0  0  0  0  0  0  0
   24.2062    6.2178   54.7781 C   0  0  0  0  0  0  0  0  0  0  0  0
   24.0767    5.8078   53.3477 C   0  0  0  0  0  0  0  0  0  0  0  0
   22.7355    6.0555   52.8799 N   0  0  0  0  0  0  0  0  0  0  0  0
   21.7439    6.2619   53.6504 C   0  0  0  0  0  0  0  0  0  0  0  0
   21.9451    6.2518   55.0484 N   0  0  0  0  0  0  0  0  0  0  0  0
   20.4584    6.5023   53.1355 N   0  0  0  0  0  0  0  0  0  0  0  0
   21.4769    5.5457   55.6385 H   0  0  0  0  0  0  0  0  0  0  0  0
   22.5684    6.9584   55.4744 H   0  0  0  0  0  0  0  0  0  0  0  0
   19.7797    7.0805   53.6592 H   0  0  0  0  0  0  0  0  0  0  0  0
   20.1814    6.0955   52.2208 H   0  0  0  0  0  0  0  0  0  0  0  0
   28.7155   10.3916   55.2930 C   0  0  0  0  0  0  0  0  0  0  0  0
   28.4572    9.1584   54.5369 C   0  0  0  0  0  0  0  0  0  0  0  0
   27.6604    9.2002   53.3917 C   0  0  0  0  0  0  0  0  0  0  0  0
   27.3842    8.0710   52.6602 C   0  0  0  0  0  0  0  0  0  0  0  0
   27.8993    6.8646   53.0539 C   0  0  0  0  0  0  0  0  0  0  0  0
   28.6948    6.7854   54.1854 C   0  0  0  0  0  0  0  0  0  0  0  0
   28.9596    7.9283   54.9055 C   0  0  0  0  0  0  0  0  0  0  0  0
 53 54  1  0  0  0
 54 55  1  0  0  0
 55 56  2  0  0  0
 55 52  1  0  0  0
 52 58  1  0  0  0
 58 59  1  0  0  0
 59 60  2  0  0  0
 60 61  1  0  0  0
 61 62  2  0  0  0
 62 63  1  0  0  0
 63 64  2  0  0  0
 52 48  1  0  0  0
 48 49  1  0  0  0
 49 50  2  0  0  0
 49 41  1  0  0  0
 41 42  1  0  0  0
 42 43  1  0  0  0
 43 44  1  0  0  0
 44 45  1  0  0  0
 45 46  1  0  0  0
 46 47  2  0  0  0
 46 40  1  0  0  0
 40 65  1  0  0  0
 65 66  1  0  0  0
 66 67  1  0  0  0
 67 68  1  0  0  0
 68 69  2  0  0  0
 69 70  1  0  0  0
 69 71  1  0  0  0
 40 36  1  0  0  0
 36 37  1  0  0  0
 37 38  2  0  0  0
 37  1  1  0  0  0
  1 76  1  0  0  0
 76 77  1  0  0  0
 77 78  2  0  0  0
 78 79  1  0  0  0
 79 80  2  0  0  0
 80 81  1  0  0  0
 81 82  2  0  0  0
  1  2  1  0  0  0
  2  3  1  0  0  0
  3  4  2  0  0  0
  3  6  1  0  0  0
  6 29  1  0  0  0
 29 30  1  0  0  0
 30 31  2  0  0  0
 31 32  1  0  0  0
 32 33  2  0  0  0
 33 34  1  0  0  0
 34 35  2  0  0  0
  6  7  1  0  0  0
  7  8  1  0  0  0
  8  9  2  0  0  0
  8 11  1  0  0  0
 11 22  1  0  0  0
 22 23  1  0  0  0
 23 24  2  0  0  0
 24 25  1  0  0  0
 25 26  2  0  0  0
 26 27  1  0  0  0
 27 28  2  0  0  0
 11 12  1  0  0  0
 12 13  1  0  0  0
 13 14  2  0  0  0
 13 16  1  0  0  0
 16 17  1  0  0  0
 17 18  1  0  0  0
 18 19  1  0  0  0
 19 20  1  0  0  0
 64 59  1  0  0  0
 45 41  1  0  0  0
 82 77  1  0  0  0
 35 30  1  0  0  0
 28 23  1  0  0  0
 20 16  1  0  0  0
 54 57  1  0  0  0
 48 51  1  0  0  0
 70 72  1  0  0  0
 70 73  1  0  0  0
 71 74  1  0  0  0
 71 75  1  0  0  0
 36 39  1  0  0  0
  2  5  1  0  0  0
  7 10  1  0  0  0
 12 15  1  0  0  0
 20 21  1  0  0  0
M  END
> <minimizedAffinity>
26.98600

> <CNNscore>
0.5871260762

> <CNNaffinity>
7.7780084610

> <CNN_VS>
4.5666713715

> <CNNaffinity_variance>
1.9156351089

$$$$
[H]c1c([H])c([H])c(C([H])([H])[C@@]([H])(C(=O)N([H])C([H])([H])[H])N([H])C(=O)[C@@]2([H])N(C(=O)[C@]([H])(N([H])C(=O)[C@@]([H])(N([H])C(=O)[C@@]([H])(N([H])C(=O)[C@@]([H])(N([H])C(=O)[C@@]3([H])N([H])C([H])([H])C([H])([H])C3([H])[H])C([H])([H])c3c([H])c([H])c([H])c([H])c3[H])C([H])([H])c3c([H])c([H])c([H])c([H])c3[H])C([H])([H])c3c([H])c([H])c([H])c([H])c3[H])C([H])([H])C([H])([H])C([H])([H])N=C(N([H])[H])N([H])[H])C([H])([H])C([H])([H])C2([H])[H])c([H])c1[H]


 82 87  0  0  0  0  0  0  0  0999 V2000
   27.7336    9.8796   56.5196 C   0  0  0  0  0  0  0  0  0  0  0  0
   28.3524    9.9343   57.8256 N   0  0  0  0  0  0  0  0  0  0  0  0
   28.5601   11.2216   58.4461 C   0  0  0  0  0  0  0  0  0  0  0  0
   28.1983   12.2209   57.8120 O   0  0  0  0  0  0  0  0  0  0  0  0
   28.6515    9.0782   58.3256 H   0  0  0  0  0  0  0  0  0  0  0  0
   29.1840   11.3473   59.7827 C   0  0  0  0  0  0  0  0  0  0  0  0
   29.2367   12.6819   60.2672 N   0  0  0  0  0  0  0  0  0  0  0  0
   30.3445   13.2614   60.9039 C   0  0  0  0  0  0  0  0  0  0  0  0
   31.4083   12.6447   61.0838 O   0  0  0  0  0  0  0  0  0  0  0  0
   28.3433   13.3034   60.1342 H   0  0  0  0  0  0  0  0  0  0  0  0
   30.2027   14.6640   61.3742 C   0  0  0  0  0  0  0  0  0  0  0  0
   31.1747   15.4770   60.6570 N   0  0  0  0  0  0  0  0  0  0  0  0
   32.1760   16.2075   61.3712 C   0  0  0  0  0  0  0  0  0  0  0  0
   32.1780   16.1143   62.6365 O   0  0  0  0  0  0  0  0  0  0  0  0
   31.1027   15.5012   59.6217 H   0  0  0  0  0  0  0  0  0  0  0  0
   33.1396   17.0181   60.6398 C   0  0  0  0  0  0  0  0  0  0  0  0
   32.9005   18.5123   60.7249 C   0  0  0  0  0  0  0  0  0  0  0  0
   33.8719   18.9868   59.6338 C   0  0  0  0  0  0  0  0  0  0  0  0
   33.8780   17.8504   58.6570 C   0  0  0  0  0  0  0  0  0  0  0  0
   32.9994   16.8268   59.1841 N   0  0  0  0  0  0  0  0  0  0  0  0
   31.9927   17.1312   59.0034 H   0  0  0  0  0  0  0  0  0  0  0  0
   28.8233   15.2390   61.1328 C   0  0  0  0  0  0  0  0  0  0  0  0
   29.0162   16.5776   60.5198 C   0  0  0  0  0  0  0  0  0  0  0  0
   28.8649   17.7486   61.2563 C   0  0  0  0  0  0  0  0  0  0  0  0
   29.0488   18.9941   60.7005 C   0  0  0  0  0  0  0  0  0  0  0  0
   29.3952   19.1234   59.3731 C   0  0  0  0  0  0  0  0  0  0  0  0
   29.5510   17.9617   58.6182 C   0  0  0  0  0  0  0  0  0  0  0  0
   29.3610   16.7137   59.1989 C   0  0  0  0  0  0  0  0  0  0  0  0
   28.6493   10.3228   60.7497 C   0  0  0  0  0  0  0  0  0  0  0  0
   29.7493    9.4515   61.2007 C   0  0  0  0  0  0  0  0  0  0  0  0
   29.5810    8.1450   61.5733 C   0  0  0  0  0  0  0  0  0  0  0  0
   30.6335    7.3393   62.0265 C   0  0  0  0  0  0  0  0  0  0  0  0
   31.9025    7.8599   62.1082 C   0  0  0  0  0  0  0  0  0  0  0  0
   32.1040    9.1669   61.7401 C   0  0  0  0  0  0  0  0  0  0  0  0
   31.0558    9.9483   61.2960 C   0  0  0  0  0  0  0  0  0  0  0  0
   25.7622    9.0510   55.2273 N   0  0  0  0  0  0  0  0  0  0  0  0
   26.4048    9.3128   56.4613 C   0  0  0  0  0  0  0  0  0  0  0  0
   25.7719    9.0304   57.5047 O   0  0  0  0  0  0  0  0  0  0  0  0
   26.2528    9.2991   54.3410 H   0  0  0  0  0  0  0  0  0  0  0  0
   24.4351    8.4462   55.1094 C   0  0  0  0  0  0  0  0  0  0  0  0
   21.8061   10.1670   52.7250 C   0  0  0  0  0  0  0  0  0  0  0  0
   20.3855    9.6863   52.9415 C   0  0  0  0  0  0  0  0  0  0  0  0
   20.3388    9.2288   54.3996 C   0  0  0  0  0  0  0  0  0  0  0  0
   21.5777    9.8927   54.9690 C   0  0  0  0  0  0  0  0  0  0  0  0
   22.5226    9.6091   53.8801 N   0  0  0  0  0  0  0  0  0  0  0  0
   23.7684    8.9872   53.8962 C   0  0  0  0  0  0  0  0  0  0  0  0
   24.3822    8.8763   52.7948 O   0  0  0  0  0  0  0  0  0  0  0  0
   21.4454   12.5012   51.7149 N   0  0  0  0  0  0  0  0  0  0  0  0
   21.9311   11.6319   52.7028 C   0  0  0  0  0  0  0  0  0  0  0  0
   22.5436   12.1994   53.6850 O   0  0  0  0  0  0  0  0  0  0  0  0
   20.9451   12.1437   50.8907 H   0  0  0  0  0  0  0  0  0  0  0  0
   21.6236   13.9659   51.8104 C   0  0  0  0  0  0  0  0  0  0  0  0
   18.4196   16.0293   52.3657 C   0  0  0  0  0  0  0  0  0  0  0  0
   19.6517   15.5052   51.7900 N   0  0  0  0  0  0  0  0  0  0  0  0
   20.3844   14.4800   52.4235 C   0  0  0  0  0  0  0  0  0  0  0  0
   19.9705   14.0213   53.5101 O   0  0  0  0  0  0  0  0  0  0  0  0
   20.0272   15.9066   50.8922 H   0  0  0  0  0  0  0  0  0  0  0  0
   21.9081   14.5087   50.4363 C   0  0  0  0  0  0  0  0  0  0  0  0
   22.1130   15.9464   50.3341 C   0  0  0  0  0  0  0  0  0  0  0  0
   22.3340   16.7492   51.4442 C   0  0  0  0  0  0  0  0  0  0  0  0
   22.5477   18.1072   51.2878 C   0  0  0  0  0  0  0  0  0  0  0  0
   22.5514   18.7160   50.0502 C   0  0  0  0  0  0  0  0  0  0  0  0
   22.3328   17.9294   48.9356 C   0  0  0  0  0  0  0  0  0  0  0  0
   22.1227   16.5862   49.1024 C   0  0  0  0  0  0  0  0  0  0  0  0
   24.6114    6.9656   55.1098 C   0  0  0  0  0  0  0  0  0  0  0  0
   23.8475    6.3014   53.9825 C   0  0  0  0  0  0  0  0  0  0  0  0
   22.4169    6.0801   54.3503 C   0  0  0  0  0  0  0  0  0  0  0  0
   21.5533    6.7481   53.4084 N   0  0  0  0  0  0  0  0  0  0  0  0
   20.5129    6.2177   52.9026 C   0  0  0  0  0  0  0  0  0  0  0  0
   20.1648    4.8991   53.2701 N   0  0  0  0  0  0  0  0  0  0  0  0
   19.7063    6.9205   51.9911 N   0  0  0  0  0  0  0  0  0  0  0  0
   20.1489    4.1467   52.5633 H   0  0  0  0  0  0  0  0  0  0  0  0
   19.9279    4.6951   54.2558 H   0  0  0  0  0  0  0  0  0  0  0  0
   18.6944    6.7200   51.9181 H   0  0  0  0  0  0  0  0  0  0  0  0
   20.1262    7.6483   51.3805 H   0  0  0  0  0  0  0  0  0  0  0  0
   28.7315    9.0628   55.6514 C   0  0  0  0  0  0  0  0  0  0  0  0
   28.3896    9.1116   54.2232 C   0  0  0  0  0  0  0  0  0  0  0  0
   28.9569   10.0911   53.4066 C   0  0  0  0  0  0  0  0  0  0  0  0
   28.6584   10.1807   52.0689 C   0  0  0  0  0  0  0  0  0  0  0  0
   27.7822    9.2900   51.5082 C   0  0  0  0  0  0  0  0  0  0  0  0
   27.2001    8.3040   52.2882 C   0  0  0  0  0  0  0  0  0  0  0  0
   27.5116    8.2311   53.6270 C   0  0  0  0  0  0  0  0  0  0  0  0
 53 54  1  0  0  0
 54 55  1  0  0  0
 55 56  2  0  0  0
 55 52  1  0  0  0
 52 58  1  0  0  0
 58 59  1  0  0  0
 59 60  2  0  0  0
 60 61  1  0  0  0
 61 62  2  0  0  0
 62 63  1  0  0  0
 63 64  2  0  0  0
 52 48  1  0  0  0
 48 49  1  0  0  0
 49 50  2  0  0  0
 49 41  1  0  0  0
 41 42  1  0  0  0
 42 43  1  0  0  0
 43 44  1  0  0  0
 44 45  1  0  0  0
 45 46  1  0  0  0
 46 47  2  0  0  0
 46 40  1  0  0  0
 40 65  1  0  0  0
 65 66  1  0  0  0
 66 67  1  0  0  0
 67 68  1  0  0  0
 68 69  2  0  0  0
 69 70  1  0  0  0
 69 71  1  0  0  0
 40 36  1  0  0  0
 36 37  1  0  0  0
 37 38  2  0  0  0
 37  1  1  0  0  0
  1 76  1  0  0  0
 76 77  1  0  0  0
 77 78  2  0  0  0
 78 79  1  0  0  0
 79 80  2  0  0  0
 80 81  1  0  0  0
 81 82  2  0  0  0
  1  2  1  0  0  0
  2  3  1  0  0  0
  3  4  2  0  0  0
  3  6  1  0  0  0
  6 29  1  0  0  0
 29 30  1  0  0  0
 30 31  2  0  0  0
 31 32  1  0  0  0
 32 33  2  0  0  0
 33 34  1  0  0  0
 34 35  2  0  0  0
  6  7  1  0  0  0
  7  8  1  0  0  0
  8  9  2  0  0  0
  8 11  1  0  0  0
 11 22  1  0  0  0
 22 23  1  0  0  0
 23 24  2  0  0  0
 24 25  1  0  0  0
 25 26  2  0  0  0
 26 27  1  0  0  0
 27 28  2  0  0  0
 11 12  1  0  0  0
 12 13  1  0  0  0
 13 14  2  0  0  0
 13 16  1  0  0  0
 16 17  1  0  0  0
 17 18  1  0  0  0
 18 19  1  0  0  0
 19 20  1  0  0  0
 64 59  1  0  0  0
 45 41  1  0  0  0
 82 77  1  0  0  0
 35 30  1  0  0  0
 28 23  1  0  0  0
 20 16  1  0  0  0
 54 57  1  0  0  0
 48 51  1  0  0  0
 70 72  1  0  0  0
 70 73  1  0  0  0
 71 74  1  0  0  0
 71 75  1  0  0  0
 36 39  1  0  0  0
  2  5  1  0  0  0
  7 10  1  0  0  0
 12 15  1  0  0  0
 20 21  1  0  0  0
M  END
> <minimizedAffinity>
23.70526

> <CNNscore>
0.5323219299

> <CNNaffinity>
7.6607999802

> <CNN_VS>
4.0780119896

> <CNNaffinity_variance>
1.2473565340

$$$$
[H]c1c([H])c([H])c(C([H])([H])[C@@]([H])(C(=O)N([H])C([H])([H])[H])N([H])C(=O)[C@@]2([H])N(C(=O)[C@]([H])(N([H])C(=O)[C@@]([H])(N([H])C(=O)[C@@]([H])(N([H])C(=O)[C@@]([H])(N([H])C(=O)[C@@]3([H])N([H])C([H])([H])C([H])([H])C3([H])[H])C([H])([H])c3c([H])c([H])c([H])c([H])c3[H])C([H])([H])c3c([H])c([H])c([H])c([H])c3[H])C([H])([H])c3c([H])c([H])c([H])c([H])c3[H])C([H])([H])C([H])([H])C([H])([H])N=C(N([H])[H])N([H])[H])C([H])([H])C([H])([H])C2([H])[H])c([H])c1[H]


 82 87  0  0  0  0  0  0  0  0999 V2000
   25.7577    8.9303   55.8518 C   0  0  0  0  0  0  0  0  0  0  0  0
   24.7117    9.9291   55.8533 N   0  0  0  0  0  0  0  0  0  0  0  0
   23.6647    9.8446   54.8623 C   0  0  0  0  0  0  0  0  0  0  0  0
   23.7271    8.9125   54.0506 O   0  0  0  0  0  0  0  0  0  0  0  0
   24.6941   10.7019   56.5422 H   0  0  0  0  0  0  0  0  0  0  0  0
   22.5629   10.8320   54.8113 C   0  0  0  0  0  0  0  0  0  0  0  0
   22.2819   11.3099   53.5031 N   0  0  0  0  0  0  0  0  0  0  0  0
   21.3357   12.2994   53.1962 C   0  0  0  0  0  0  0  0  0  0  0  0
   20.6606   12.8702   54.0694 O   0  0  0  0  0  0  0  0  0  0  0  0
   22.8464   10.8702   52.6724 H   0  0  0  0  0  0  0  0  0  0  0  0
   21.1553   12.6475   51.7627 C   0  0  0  0  0  0  0  0  0  0  0  0
   21.6481   14.0034   51.5659 N   0  0  0  0  0  0  0  0  0  0  0  0
   20.7329   15.0941   51.4278 C   0  0  0  0  0  0  0  0  0  0  0  0
   19.4935   14.8292   51.4851 O   0  0  0  0  0  0  0  0  0  0  0  0
   22.6772   14.1344   51.5284 H   0  0  0  0  0  0  0  0  0  0  0  0
   21.2412   16.4441   51.2292 C   0  0  0  0  0  0  0  0  0  0  0  0
   22.3183   16.5630   50.1695 C   0  0  0  0  0  0  0  0  0  0  0  0
   22.7984   17.9937   50.4557 C   0  0  0  0  0  0  0  0  0  0  0  0
   22.5771   18.1452   51.9301 C   0  0  0  0  0  0  0  0  0  0  0  0
   21.9997   16.9056   52.4069 N   0  0  0  0  0  0  0  0  0  0  0  0
   22.7823   16.1836   52.4795 H   0  0  0  0  0  0  0  0  0  0  0  0
   21.9020   11.7235   50.8245 C   0  0  0  0  0  0  0  0  0  0  0  0
   21.4077   10.3487   51.0905 C   0  0  0  0  0  0  0  0  0  0  0  0
   20.1151    9.9579   50.7546 C   0  0  0  0  0  0  0  0  0  0  0  0
   19.6491    8.6844   50.9894 C   0  0  0  0  0  0  0  0  0  0  0  0
   20.4626    7.7388   51.5747 C   0  0  0  0  0  0  0  0  0  0  0  0
   21.7612    8.1113   51.9191 C   0  0  0  0  0  0  0  0  0  0  0  0
   22.2122    9.4023   51.6730 C   0  0  0  0  0  0  0  0  0  0  0  0
   21.3685   10.3812   55.6118 C   0  0  0  0  0  0  0  0  0  0  0  0
   21.1510    8.9389   55.4001 C   0  0  0  0  0  0  0  0  0  0  0  0
   21.7361    7.9617   56.1598 C   0  0  0  0  0  0  0  0  0  0  0  0
   21.5403    6.5944   55.9266 C   0  0  0  0  0  0  0  0  0  0  0  0
   20.7271    6.1895   54.8957 C   0  0  0  0  0  0  0  0  0  0  0  0
   20.1245    7.1456   54.1167 C   0  0  0  0  0  0  0  0  0  0  0  0
   20.3281    8.4896   54.3590 C   0  0  0  0  0  0  0  0  0  0  0  0
   27.1917    9.7644   57.7203 N   0  0  0  0  0  0  0  0  0  0  0  0
   27.0400    9.3419   56.3776 C   0  0  0  0  0  0  0  0  0  0  0  0
   28.0679    9.3382   55.6617 O   0  0  0  0  0  0  0  0  0  0  0  0
   26.3496    9.8032   58.3345 H   0  0  0  0  0  0  0  0  0  0  0  0
   28.4702   10.1565   58.3139 C   0  0  0  0  0  0  0  0  0  0  0  0
   28.2679   13.1596   60.8633 C   0  0  0  0  0  0  0  0  0  0  0  0
   27.3551   12.8930   62.0430 C   0  0  0  0  0  0  0  0  0  0  0  0
   27.3541   11.3730   62.2089 C   0  0  0  0  0  0  0  0  0  0  0  0
   28.5813   10.9768   61.4110 C   0  0  0  0  0  0  0  0  0  0  0  0
   28.3899   11.8369   60.2352 N   0  0  0  0  0  0  0  0  0  0  0  0
   28.3361   11.5245   58.8793 C   0  0  0  0  0  0  0  0  0  0  0  0
   28.1631   12.4779   58.0648 O   0  0  0  0  0  0  0  0  0  0  0  0
   30.6170   14.0848   60.3892 N   0  0  0  0  0  0  0  0  0  0  0  0
   29.5923   13.6671   61.2512 C   0  0  0  0  0  0  0  0  0  0  0  0
   29.8612   13.7495   62.5093 O   0  0  0  0  0  0  0  0  0  0  0  0
   30.4988   14.0544   59.3682 H   0  0  0  0  0  0  0  0  0  0  0  0
   31.9084   14.5902   60.9020 C   0  0  0  0  0  0  0  0  0  0  0  0
   33.3516   11.0806   61.5588 C   0  0  0  0  0  0  0  0  0  0  0  0
   32.7239   12.2251   60.9107 N   0  0  0  0  0  0  0  0  0  0  0  0
   32.5401   13.4479   61.5891 C   0  0  0  0  0  0  0  0  0  0  0  0
   32.9148   13.5444   62.7777 O   0  0  0  0  0  0  0  0  0  0  0  0
   32.3747   12.1452   59.9209 H   0  0  0  0  0  0  0  0  0  0  0  0
   31.6454   15.7787   61.7862 C   0  0  0  0  0  0  0  0  0  0  0  0
   30.9853   16.9182   61.1656 C   0  0  0  0  0  0  0  0  0  0  0  0
   31.5102   17.5736   60.0608 C   0  0  0  0  0  0  0  0  0  0  0  0
   30.8285   18.6364   59.4949 C   0  0  0  0  0  0  0  0  0  0  0  0
   29.6222   19.0865   59.9892 C   0  0  0  0  0  0  0  0  0  0  0  0
   29.0870   18.4436   61.0889 C   0  0  0  0  0  0  0  0  0  0  0  0
   29.7704   17.3926   61.6406 C   0  0  0  0  0  0  0  0  0  0  0  0
   28.8467    9.1109   59.3080 C   0  0  0  0  0  0  0  0  0  0  0  0
   30.1009    9.4794   60.0739 C   0  0  0  0  0  0  0  0  0  0  0  0
   30.7779    8.2677   60.6258 C   0  0  0  0  0  0  0  0  0  0  0  0
   29.8235    7.4388   61.3195 N   0  0  0  0  0  0  0  0  0  0  0  0
   30.0042    6.9821   62.4936 C   0  0  0  0  0  0  0  0  0  0  0  0
   31.2017    7.2917   63.1755 N   0  0  0  0  0  0  0  0  0  0  0  0
   29.0346    6.1814   63.1213 N   0  0  0  0  0  0  0  0  0  0  0  0
   31.8603    6.5422   63.4412 H   0  0  0  0  0  0  0  0  0  0  0  0
   31.4126    8.2778   63.4041 H   0  0  0  0  0  0  0  0  0  0  0  0
   28.9424    6.1738   64.1512 H   0  0  0  0  0  0  0  0  0  0  0  0
   28.4028    5.5872   62.5495 H   0  0  0  0  0  0  0  0  0  0  0  0
   25.8743    8.4929   54.3647 C   0  0  0  0  0  0  0  0  0  0  0  0
   25.0322    7.3268   54.0640 C   0  0  0  0  0  0  0  0  0  0  0  0
   24.6068    7.0968   52.7548 C   0  0  0  0  0  0  0  0  0  0  0  0
   23.8107    6.0258   52.4296 C   0  0  0  0  0  0  0  0  0  0  0  0
   23.4169    5.1515   53.4075 C   0  0  0  0  0  0  0  0  0  0  0  0
   23.8204    5.3482   54.7182 C   0  0  0  0  0  0  0  0  0  0  0  0
   24.6177    6.4279   55.0240 C   0  0  0  0  0  0  0  0  0  0  0  0
 53 54  1  0  0  0
 54 55  1  0  0  0
 55 56  2  0  0  0
 55 52  1  0  0  0
 52 58  1  0  0  0
 58 59  1  0  0  0
 59 60  2  0  0  0
 60 61  1  0  0  0
 61 62  2  0  0  0
 62 63  1  0  0  0
 63 64  2  0  0  0
 52 48  1  0  0  0
 48 49  1  0  0  0
 49 50  2  0  0  0
 49 41  1  0  0  0
 41 42  1  0  0  0
 42 43  1  0  0  0
 43 44  1  0  0  0
 44 45  1  0  0  0
 45 46  1  0  0  0
 46 47  2  0  0  0
 46 40  1  0  0  0
 40 65  1  0  0  0
 65 66  1  0  0  0
 66 67  1  0  0  0
 67 68  1  0  0  0
 68 69  2  0  0  0
 69 70  1  0  0  0
 69 71  1  0  0  0
 40 36  1  0  0  0
 36 37  1  0  0  0
 37 38  2  0  0  0
 37  1  1  0  0  0
  1 76  1  0  0  0
 76 77  1  0  0  0
 77 78  2  0  0  0
 78 79  1  0  0  0
 79 80  2  0  0  0
 80 81  1  0  0  0
 81 82  2  0  0  0
  1  2  1  0  0  0
  2  3  1  0  0  0
  3  4  2  0  0  0
  3  6  1  0  0  0
  6 29  1  0  0  0
 29 30  1  0  0  0
 30 31  2  0  0  0
 31 32  1  0  0  0
 32 33  2  0  0  0
 33 34  1  0  0  0
 34 35  2  0  0  0
  6  7  1  0  0  0
  7  8  1  0  0  0
  8  9  2  0  0  0
  8 11  1  0  0  0
 11 22  1  0  0  0
 22 23  1  0  0  0
 23 24  2  0  0  0
 24 25  1  0  0  0
 25 26  2  0  0  0
 26 27  1  0  0  0
 27 28  2  0  0  0
 11 12  1  0  0  0
 12 13  1  0  0  0
 13 14  2  0  0  0
 13 16  1  0  0  0
 16 17  1  0  0  0
 17 18  1  0  0  0
 18 19  1  0  0  0
 19 20  1  0  0  0
 64 59  1  0  0  0
 45 41  1  0  0  0
 82 77  1  0  0  0
 35 30  1  0  0  0
 28 23  1  0  0  0
 20 16  1  0  0  0
 54 57  1  0  0  0
 48 51  1  0  0  0
 70 72  1  0  0  0
 70 73  1  0  0  0
 71 74  1  0  0  0
 71 75  1  0  0  0
 36 39  1  0  0  0
  2  5  1  0  0  0
  7 10  1  0  0  0
 12 15  1  0  0  0
 20 21  1  0  0  0
M  END
> <minimizedAffinity>
20.30806

> <CNNscore>
0.5045745373

> <CNNaffinity>
7.9960708618

> <CNN_VS>
4.0346136093

> <CNNaffinity_variance>
2.3852005005

$$$$
[H]c1c([H])c([H])c(C([H])([H])[C@@]([H])(C(=O)N([H])C([H])([H])[H])N([H])C(=O)[C@@]2([H])N(C(=O)[C@]([H])(N([H])C(=O)[C@@]([H])(N([H])C(=O)[C@@]([H])(N([H])C(=O)[C@@]([H])(N([H])C(=O)[C@@]3([H])N([H])C([H])([H])C([H])([H])C3([H])[H])C([H])([H])c3c([H])c([H])c([H])c([H])c3[H])C([H])([H])c3c([H])c([H])c([H])c([H])c3[H])C([H])([H])c3c([H])c([H])c([H])c([H])c3[H])C([H])([H])C([H])([H])C([H])([H])N=C(N([H])[H])N([H])[H])C([H])([H])C([H])([H])C2([H])[H])c([H])c1[H]


 82 87  0  0  0  0  0  0  0  0999 V2000
   26.1043    9.3170   55.9055 C   0  0  0  0  0  0  0  0  0  0  0  0
   25.0221   10.2726   55.8212 N   0  0  0  0  0  0  0  0  0  0  0  0
   23.7808    9.8687   55.2036 C   0  0  0  0  0  0  0  0  0  0  0  0
   23.7152    8.7123   54.7677 O   0  0  0  0  0  0  0  0  0  0  0  0
   25.1133   11.2363   56.1889 H   0  0  0  0  0  0  0  0  0  0  0  0
   22.6329   10.7964   55.0892 C   0  0  0  0  0  0  0  0  0  0  0  0
   22.3976   11.2564   53.7656 N   0  0  0  0  0  0  0  0  0  0  0  0
   21.4089   12.1829   53.4018 C   0  0  0  0  0  0  0  0  0  0  0  0
   20.6490   12.7081   54.2330 O   0  0  0  0  0  0  0  0  0  0  0  0
   23.0364   10.8548   52.9701 H   0  0  0  0  0  0  0  0  0  0  0  0
   21.2894   12.5199   51.9593 C   0  0  0  0  0  0  0  0  0  0  0  0
   21.7596   13.8860   51.7784 N   0  0  0  0  0  0  0  0  0  0  0  0
   20.8462   14.9240   51.4114 C   0  0  0  0  0  0  0  0  0  0  0  0
   19.6285   14.6040   51.2550 O   0  0  0  0  0  0  0  0  0  0  0  0
   22.7721   14.0634   51.9232 H   0  0  0  0  0  0  0  0  0  0  0  0
   21.3321   16.2849   51.2318 C   0  0  0  0  0  0  0  0  0  0  0  0
   22.5410   16.4086   50.3260 C   0  0  0  0  0  0  0  0  0  0  0  0
   22.9292   17.8656   50.6194 C   0  0  0  0  0  0  0  0  0  0  0  0
   22.5010   18.0586   52.0424 C   0  0  0  0  0  0  0  0  0  0  0  0
   21.9046   16.8148   52.4836 N   0  0  0  0  0  0  0  0  0  0  0  0
   22.6931   16.1262   52.6908 H   0  0  0  0  0  0  0  0  0  0  0  0
   22.1015   11.6091   51.0633 C   0  0  0  0  0  0  0  0  0  0  0  0
   21.5390   10.2432   51.2146 C   0  0  0  0  0  0  0  0  0  0  0  0
   22.2688    9.2115   51.7972 C   0  0  0  0  0  0  0  0  0  0  0  0
   21.7547    7.9440   51.9496 C   0  0  0  0  0  0  0  0  0  0  0  0
   20.4777    7.6513   51.5227 C   0  0  0  0  0  0  0  0  0  0  0  0
   19.7306    8.6717   50.9359 C   0  0  0  0  0  0  0  0  0  0  0  0
   20.2684    9.9448   50.7919 C   0  0  0  0  0  0  0  0  0  0  0  0
   21.4227   10.2848   55.8269 C   0  0  0  0  0  0  0  0  0  0  0  0
   21.1713    8.8833   55.4462 C   0  0  0  0  0  0  0  0  0  0  0  0
   20.3483    8.5102   54.4177 C   0  0  0  0  0  0  0  0  0  0  0  0
   20.0985    7.1721   54.0874 C   0  0  0  0  0  0  0  0  0  0  0  0
   20.6960    6.1693   54.8124 C   0  0  0  0  0  0  0  0  0  0  0  0
   21.5280    6.5112   55.8493 C   0  0  0  0  0  0  0  0  0  0  0  0
   21.7636    7.8351   56.1627 C   0  0  0  0  0  0  0  0  0  0  0  0
   27.4352   10.4177   57.7111 N   0  0  0  0  0  0  0  0  0  0  0  0
   27.3563    9.8089   56.4354 C   0  0  0  0  0  0  0  0  0  0  0  0
   28.4213    9.7126   55.7829 O   0  0  0  0  0  0  0  0  0  0  0  0
   26.5613   10.5358   58.2680 H   0  0  0  0  0  0  0  0  0  0  0  0
   28.6797   10.8999   58.3107 C   0  0  0  0  0  0  0  0  0  0  0  0
   28.9176   13.4892   61.2767 C   0  0  0  0  0  0  0  0  0  0  0  0
   29.3057   12.8613   62.6000 C   0  0  0  0  0  0  0  0  0  0  0  0
   30.1086   11.6145   62.2278 C   0  0  0  0  0  0  0  0  0  0  0  0
   30.4625   11.8985   60.7807 C   0  0  0  0  0  0  0  0  0  0  0  0
   29.1661   12.4080   60.3132 N   0  0  0  0  0  0  0  0  0  0  0  0
   28.3613   12.0067   59.2501 C   0  0  0  0  0  0  0  0  0  0  0  0
   27.2771   12.6337   59.0667 O   0  0  0  0  0  0  0  0  0  0  0  0
   29.5377   15.9779   61.4212 N   0  0  0  0  0  0  0  0  0  0  0  0
   29.7175   14.6747   60.9346 C   0  0  0  0  0  0  0  0  0  0  0  0
   30.6935   14.5244   60.1060 O   0  0  0  0  0  0  0  0  0  0  0  0
   28.7841   16.1988   62.0850 H   0  0  0  0  0  0  0  0  0  0  0  0
   30.4195   17.0912   61.0100 C   0  0  0  0  0  0  0  0  0  0  0  0
   33.6196   17.2666   63.1454 C   0  0  0  0  0  0  0  0  0  0  0  0
   32.6990   17.0370   62.0390 N   0  0  0  0  0  0  0  0  0  0  0  0
   31.3234   17.3275   62.1514 C   0  0  0  0  0  0  0  0  0  0  0  0
   30.8856   17.7810   63.2308 O   0  0  0  0  0  0  0  0  0  0  0  0
   33.0508   16.6248   61.1366 H   0  0  0  0  0  0  0  0  0  0  0  0
   29.5650   18.2729   60.6396 C   0  0  0  0  0  0  0  0  0  0  0  0
   29.2788   18.4505   59.2232 C   0  0  0  0  0  0  0  0  0  0  0  0
   30.1904   18.1197   58.2307 C   0  0  0  0  0  0  0  0  0  0  0  0
   29.8572   18.2857   56.8981 C   0  0  0  0  0  0  0  0  0  0  0  0
   28.6315   18.7768   56.4996 C   0  0  0  0  0  0  0  0  0  0  0  0
   27.7134   19.1105   57.4767 C   0  0  0  0  0  0  0  0  0  0  0  0
   28.0541   18.9417   58.7926 C   0  0  0  0  0  0  0  0  0  0  0  0
   29.3609    9.7319   58.9394 C   0  0  0  0  0  0  0  0  0  0  0  0
   28.6242    9.2370   60.1673 C   0  0  0  0  0  0  0  0  0  0  0  0
   29.4362    8.2371   60.9235 C   0  0  0  0  0  0  0  0  0  0  0  0
   30.7231    8.7944   61.2588 N   0  0  0  0  0  0  0  0  0  0  0  0
   31.4754    8.3362   62.1774 C   0  0  0  0  0  0  0  0  0  0  0  0
   31.0451    7.2179   62.9251 N   0  0  0  0  0  0  0  0  0  0  0  0
   32.7232    8.9198   62.4563 N   0  0  0  0  0  0  0  0  0  0  0  0
   30.8822    7.3003   63.9413 H   0  0  0  0  0  0  0  0  0  0  0  0
   30.8930    6.3159   62.4430 H   0  0  0  0  0  0  0  0  0  0  0  0
   33.4970    8.3522   62.8414 H   0  0  0  0  0  0  0  0  0  0  0  0
   32.8743    9.9318   62.2777 H   0  0  0  0  0  0  0  0  0  0  0  0
   26.2758    8.7959   54.4510 C   0  0  0  0  0  0  0  0  0  0  0  0
   25.3572    7.6896   54.1484 C   0  0  0  0  0  0  0  0  0  0  0  0
   25.0573    6.7472   55.1333 C   0  0  0  0  0  0  0  0  0  0  0  0
   24.2124    5.6915   54.8920 C   0  0  0  0  0  0  0  0  0  0  0  0
   23.6413    5.5484   53.6555 C   0  0  0  0  0  0  0  0  0  0  0  0
   23.9159    6.4652   52.6536 C   0  0  0  0  0  0  0  0  0  0  0  0
   24.7657    7.5160   52.9150 C   0  0  0  0  0  0  0  0  0  0  0  0
 53 54  1  0  0  0
 54 55  1  0  0  0
 55 56  2  0  0  0
 55 52  1  0  0  0
 52 58  1  0  0  0
 58 59  1  0  0  0
 59 60  2  0  0  0
 60 61  1  0  0  0
 61 62  2  0  0  0
 62 63  1  0  0  0
 63 64  2  0  0  0
 52 48  1  0  0  0
 48 49  1  0  0  0
 49 50  2  0  0  0
 49 41  1  0  0  0
 41 42  1  0  0  0
 42 43  1  0  0  0
 43 44  1  0  0  0
 44 45  1  0  0  0
 45 46  1  0  0  0
 46 47  2  0  0  0
 46 40  1  0  0  0
 40 65  1  0  0  0
 65 66  1  0  0  0
 66 67  1  0  0  0
 67 68  1  0  0  0
 68 69  2  0  0  0
 69 70  1  0  0  0
 69 71  1  0  0  0
 40 36  1  0  0  0
 36 37  1  0  0  0
 37 38  2  0  0  0
 37  1  1  0  0  0
  1 76  1  0  0  0
 76 77  1  0  0  0
 77 78  2  0  0  0
 78 79  1  0  0  0
 79 80  2  0  0  0
 80 81  1  0  0  0
 81 82  2  0  0  0
  1  2  1  0  0  0
  2  3  1  0  0  0
  3  4  2  0  0  0
  3  6  1  0  0  0
  6 29  1  0  0  0
 29 30  1  0  0  0
 30 31  2  0  0  0
 31 32  1  0  0  0
 32 33  2  0  0  0
 33 34  1  0  0  0
 34 35  2  0  0  0
  6  7  1  0  0  0
  7  8  1  0  0  0
  8  9  2  0  0  0
  8 11  1  0  0  0
 11 22  1  0  0  0
 22 23  1  0  0  0
 23 24  2  0  0  0
 24 25  1  0  0  0
 25 26  2  0  0  0
 26 27  1  0  0  0
 27 28  2  0  0  0
 11 12  1  0  0  0
 12 13  1  0  0  0
 13 14  2  0  0  0
 13 16  1  0  0  0
 16 17  1  0  0  0
 17 18  1  0  0  0
 18 19  1  0  0  0
 19 20  1  0  0  0
 64 59  1  0  0  0
 45 41  1  0  0  0
 82 77  1  0  0  0
 35 30  1  0  0  0
 28 23  1  0  0  0
 20 16  1  0  0  0
 54 57  1  0  0  0
 48 51  1  0  0  0
 70 72  1  0  0  0
 70 73  1  0  0  0
 71 74  1  0  0  0
 71 75  1  0  0  0
 36 39  1  0  0  0
  2  5  1  0  0  0
  7 10  1  0  0  0
 12 15  1  0  0  0
 20 21  1  0  0  0
M  END
> <minimizedAffinity>
21.51139

> <CNNscore>
0.4971278012

> <CNNaffinity>
7.8231611252

> <CNN_VS>
3.8891108036

> <CNNaffinity_variance>
2.8255310059

$$$$
[H]c1c([H])c([H])c(C([H])([H])[C@@]([H])(C(=O)N([H])C([H])([H])[H])N([H])C(=O)[C@@]2([H])N(C(=O)[C@]([H])(N([H])C(=O)[C@@]([H])(N([H])C(=O)[C@@]([H])(N([H])C(=O)[C@@]([H])(N([H])C(=O)[C@@]3([H])N([H])C([H])([H])C([H])([H])C3([H])[H])C([H])([H])c3c([H])c([H])c([H])c([H])c3[H])C([H])([H])c3c([H])c([H])c([H])c([H])c3[H])C([H])([H])c3c([H])c([H])c([H])c([H])c3[H])C([H])([H])C([H])([H])C([H])([H])N=C(N([H])[H])N([H])[H])C([H])([H])C([H])([H])C2([H])[H])c([H])c1[H]


 82 87  0  0  0  0  0  0  0  0999 V2000
   25.7694    8.9586   55.8438 C   0  0  0  0  0  0  0  0  0  0  0  0
   24.7340    9.9683   55.8381 N   0  0  0  0  0  0  0  0  0  0  0  0
   23.6437    9.8445   54.8993 C   0  0  0  0  0  0  0  0  0  0  0  0
   23.6615    8.8706   54.1359 O   0  0  0  0  0  0  0  0  0  0  0  0
   24.7540   10.7761   56.4855 H   0  0  0  0  0  0  0  0  0  0  0  0
   22.5500   10.8407   54.8443 C   0  0  0  0  0  0  0  0  0  0  0  0
   22.3011   11.3469   53.5402 N   0  0  0  0  0  0  0  0  0  0  0  0
   21.3344   12.3138   53.2257 C   0  0  0  0  0  0  0  0  0  0  0  0
   20.6094   12.8373   54.0886 O   0  0  0  0  0  0  0  0  0  0  0  0
   22.9098   10.9497   52.7194 H   0  0  0  0  0  0  0  0  0  0  0  0
   21.1948   12.6971   51.7966 C   0  0  0  0  0  0  0  0  0  0  0  0
   21.7094   14.0506   51.6439 N   0  0  0  0  0  0  0  0  0  0  0  0
   20.8212   15.1360   51.3623 C   0  0  0  0  0  0  0  0  0  0  0  0
   19.5856   14.8686   51.2549 O   0  0  0  0  0  0  0  0  0  0  0  0
   22.7339   14.1838   51.7446 H   0  0  0  0  0  0  0  0  0  0  0  0
   21.3513   16.4836   51.2099 C   0  0  0  0  0  0  0  0  0  0  0  0
   22.5169   16.5979   50.2478 C   0  0  0  0  0  0  0  0  0  0  0  0
   22.9772   18.0260   50.5761 C   0  0  0  0  0  0  0  0  0  0  0  0
   22.6297   18.1776   52.0259 C   0  0  0  0  0  0  0  0  0  0  0  0
   22.0071   16.9405   52.4495 N   0  0  0  0  0  0  0  0  0  0  0  0
   22.7770   16.2147   52.5889 H   0  0  0  0  0  0  0  0  0  0  0  0
   21.9534   11.7852   50.8561 C   0  0  0  0  0  0  0  0  0  0  0  0
   21.4617   10.4061   51.1038 C   0  0  0  0  0  0  0  0  0  0  0  0
   20.1782   10.0103   50.7400 C   0  0  0  0  0  0  0  0  0  0  0  0
   19.7147    8.7328   50.9576 C   0  0  0  0  0  0  0  0  0  0  0  0
   20.5219    7.7880   51.5531 C   0  0  0  0  0  0  0  0  0  0  0  0
   21.8113    8.1654   51.9254 C   0  0  0  0  0  0  0  0  0  0  0  0
   22.2598    9.4605   51.6962 C   0  0  0  0  0  0  0  0  0  0  0  0
   21.3353   10.3826   55.6093 C   0  0  0  0  0  0  0  0  0  0  0  0
   21.1015    8.9509   55.3488 C   0  0  0  0  0  0  0  0  0  0  0  0
   20.2843    8.4818   54.3557 C   0  0  0  0  0  0  0  0  0  0  0  0
   20.0513    7.1175   54.1401 C   0  0  0  0  0  0  0  0  0  0  0  0
   20.6604    6.1873   54.9475 C   0  0  0  0  0  0  0  0  0  0  0  0
   21.4872    6.6261   55.9515 C   0  0  0  0  0  0  0  0  0  0  0  0
   21.7061    7.9747   56.1515 C   0  0  0  0  0  0  0  0  0  0  0  0
   27.2168    9.6750   57.7504 N   0  0  0  0  0  0  0  0  0  0  0  0
   27.0515    9.3559   56.3810 C   0  0  0  0  0  0  0  0  0  0  0  0
   28.0672    9.4311   55.6516 O   0  0  0  0  0  0  0  0  0  0  0  0
   26.3846    9.6469   58.3784 H   0  0  0  0  0  0  0  0  0  0  0  0
   28.4967   10.0475   58.3537 C   0  0  0  0  0  0  0  0  0  0  0  0
   28.2510   12.9385   61.0258 C   0  0  0  0  0  0  0  0  0  0  0  0
   27.3013   12.6314   62.1658 C   0  0  0  0  0  0  0  0  0  0  0  0
   27.2794   11.1058   62.2645 C   0  0  0  0  0  0  0  0  0  0  0  0
   28.5254   10.7304   61.4857 C   0  0  0  0  0  0  0  0  0  0  0  0
   28.3776   11.6432   60.3439 N   0  0  0  0  0  0  0  0  0  0  0  0
   28.3604   11.3910   58.9746 C   0  0  0  0  0  0  0  0  0  0  0  0
   28.2214   12.3810   58.1981 O   0  0  0  0  0  0  0  0  0  0  0  0
   30.5843   13.9531   60.6709 N   0  0  0  0  0  0  0  0  0  0  0  0
   29.5687   13.4131   61.4738 C   0  0  0  0  0  0  0  0  0  0  0  0
   29.8403   13.3386   62.7318 O   0  0  0  0  0  0  0  0  0  0  0  0
   30.4634   14.0513   59.6545 H   0  0  0  0  0  0  0  0  0  0  0  0
   31.8694   14.4090   61.2425 C   0  0  0  0  0  0  0  0  0  0  0  0
   31.3055   18.0257   60.0453 C   0  0  0  0  0  0  0  0  0  0  0  0
   31.0887   16.7007   60.6125 N   0  0  0  0  0  0  0  0  0  0  0  0
   32.1190   15.7385   60.6543 C   0  0  0  0  0  0  0  0  0  0  0  0
   33.2393   16.0286   60.1819 O   0  0  0  0  0  0  0  0  0  0  0  0
   30.1403   16.4340   60.9833 H   0  0  0  0  0  0  0  0  0  0  0  0
   32.9266   13.3844   60.9327 C   0  0  0  0  0  0  0  0  0  0  0  0
   33.0553   12.2781   61.8703 C   0  0  0  0  0  0  0  0  0  0  0  0
   32.9782   12.4523   63.2448 C   0  0  0  0  0  0  0  0  0  0  0  0
   33.0825   11.3619   64.0901 C   0  0  0  0  0  0  0  0  0  0  0  0
   33.2639   10.0781   63.6196 C   0  0  0  0  0  0  0  0  0  0  0  0
   33.3424    9.8891   62.2532 C   0  0  0  0  0  0  0  0  0  0  0  0
   33.2376   10.9758   61.4260 C   0  0  0  0  0  0  0  0  0  0  0  0
   28.8815    8.9639   59.3029 C   0  0  0  0  0  0  0  0  0  0  0  0
   30.1881    9.2634   60.0088 C   0  0  0  0  0  0  0  0  0  0  0  0
   30.7927    8.0247   60.5842 C   0  0  0  0  0  0  0  0  0  0  0  0
   29.7913    7.2667   61.2927 N   0  0  0  0  0  0  0  0  0  0  0  0
   29.9006    6.9142   62.5107 C   0  0  0  0  0  0  0  0  0  0  0  0
   31.0616    7.2747   63.2298 N   0  0  0  0  0  0  0  0  0  0  0  0
   28.8880    6.1786   63.1501 N   0  0  0  0  0  0  0  0  0  0  0  0
   31.6955    6.5471   63.5971 H   0  0  0  0  0  0  0  0  0  0  0  0
   31.2710    8.2757   63.3825 H   0  0  0  0  0  0  0  0  0  0  0  0
   28.7383    6.2627   64.1698 H   0  0  0  0  0  0  0  0  0  0  0  0
   28.2824    5.5406   62.5978 H   0  0  0  0  0  0  0  0  0  0  0  0
   25.8939    8.5222   54.3570 C   0  0  0  0  0  0  0  0  0  0  0  0
   25.0579    7.3528   54.0525 C   0  0  0  0  0  0  0  0  0  0  0  0
   24.6092    7.1409   52.7479 C   0  0  0  0  0  0  0  0  0  0  0  0
   23.8177    6.0675   52.4197 C   0  0  0  0  0  0  0  0  0  0  0  0
   23.4520    5.1724   53.3896 C   0  0  0  0  0  0  0  0  0  0  0  0
   23.8792    5.3507   54.6955 C   0  0  0  0  0  0  0  0  0  0  0  0
   24.6714    6.4331   55.0045 C   0  0  0  0  0  0  0  0  0  0  0  0
 53 54  1  0  0  0
 54 55  1  0  0  0
 55 56  2  0  0  0
 55 52  1  0  0  0
 52 58  1  0  0  0
 58 59  1  0  0  0
 59 60  2  0  0  0
 60 61  1  0  0  0
 61 62  2  0  0  0
 62 63  1  0  0  0
 63 64  2  0  0  0
 52 48  1  0  0  0
 48 49  1  0  0  0
 49 50  2  0  0  0
 49 41  1  0  0  0
 41 42  1  0  0  0
 42 43  1  0  0  0
 43 44  1  0  0  0
 44 45  1  0  0  0
 45 46  1  0  0  0
 46 47  2  0  0  0
 46 40  1  0  0  0
 40 65  1  0  0  0
 65 66  1  0  0  0
 66 67  1  0  0  0
 67 68  1  0  0  0
 68 69  2  0  0  0
 69 70  1  0  0  0
 69 71  1  0  0  0
 40 36  1  0  0  0
 36 37  1  0  0  0
 37 38  2  0  0  0
 37  1  1  0  0  0
  1 76  1  0  0  0
 76 77  1  0  0  0
 77 78  2  0  0  0
 78 79  1  0  0  0
 79 80  2  0  0  0
 80 81  1  0  0  0
 81 82  2  0  0  0
  1  2  1  0  0  0
  2  3  1  0  0  0
  3  4  2  0  0  0
  3  6  1  0  0  0
  6 29  1  0  0  0
 29 30  1  0  0  0
 30 31  2  0  0  0
 31 32  1  0  0  0
 32 33  2  0  0  0
 33 34  1  0  0  0
 34 35  2  0  0  0
  6  7  1  0  0  0
  7  8  1  0  0  0
  8  9  2  0  0  0
  8 11  1  0  0  0
 11 22  1  0  0  0
 22 23  1  0  0  0
 23 24  2  0  0  0
 24 25  1  0  0  0
 25 26  2  0  0  0
 26 27  1  0  0  0
 27 28  2  0  0  0
 11 12  1  0  0  0
 12 13  1  0  0  0
 13 14  2  0  0  0
 13 16  1  0  0  0
 16 17  1  0  0  0
 17 18  1  0  0  0
 18 19  1  0  0  0
 19 20  1  0  0  0
 64 59  1  0  0  0
 45 41  1  0  0  0
 82 77  1  0  0  0
 35 30  1  0  0  0
 28 23  1  0  0  0
 20 16  1  0  0  0
 54 57  1  0  0  0
 48 51  1  0  0  0
 70 72  1  0  0  0
 70 73  1  0  0  0
 71 74  1  0  0  0
 71 75  1  0  0  0
 36 39  1  0  0  0
  2  5  1  0  0  0
  7 10  1  0  0  0
 12 15  1  0  0  0
 20 21  1  0  0  0
M  END
> <minimizedAffinity>
20.82378

> <CNNscore>
0.4910535514

> <CNNaffinity>
7.8664236069

> <CNN_VS>
3.8628351688

> <CNNaffinity_variance>
2.5482954979

$$$$
[H]c1c([H])c([H])c(C([H])([H])[C@@]([H])(C(=O)N([H])C([H])([H])[H])N([H])C(=O)[C@@]2([H])N(C(=O)[C@]([H])(N([H])C(=O)[C@@]([H])(N([H])C(=O)[C@@]([H])(N([H])C(=O)[C@@]([H])(N([H])C(=O)[C@@]3([H])N([H])C([H])([H])C([H])([H])C3([H])[H])C([H])([H])c3c([H])c([H])c([H])c([H])c3[H])C([H])([H])c3c([H])c([H])c([H])c([H])c3[H])C([H])([H])c3c([H])c([H])c([H])c([H])c3[H])C([H])([H])C([H])([H])C([H])([H])N=C(N([H])[H])N([H])[H])C([H])([H])C([H])([H])C2([H])[H])c([H])c1[H]


 82 87  0  0  0  0  0  0  0  0999 V2000
   28.5563   10.6801   58.3932 C   0  0  0  0  0  0  0  0  0  0  0  0
   27.8687    9.5610   57.7880 N   0  0  0  0  0  0  0  0  0  0  0  0
   27.6719    9.5538   56.3574 C   0  0  0  0  0  0  0  0  0  0  0  0
   28.1025   10.5243   55.7216 O   0  0  0  0  0  0  0  0  0  0  0  0
   27.5130    8.7681   58.3509 H   0  0  0  0  0  0  0  0  0  0  0  0
   26.9799    8.4372   55.6748 C   0  0  0  0  0  0  0  0  0  0  0  0
   25.6786    8.7679   55.2102 N   0  0  0  0  0  0  0  0  0  0  0  0
   24.6914    7.8355   54.8575 C   0  0  0  0  0  0  0  0  0  0  0  0
   24.8712    6.6089   54.9439 O   0  0  0  0  0  0  0  0  0  0  0  0
   25.4297    9.8318   55.1195 H   0  0  0  0  0  0  0  0  0  0  0  0
   23.3972    8.3699   54.3592 C   0  0  0  0  0  0  0  0  0  0  0  0
   22.3651    7.3842   54.6475 N   0  0  0  0  0  0  0  0  0  0  0  0
   21.8853    6.5151   53.6176 C   0  0  0  0  0  0  0  0  0  0  0  0
   22.3932    6.6407   52.4618 O   0  0  0  0  0  0  0  0  0  0  0  0
   22.0006    7.3478   55.6188 H   0  0  0  0  0  0  0  0  0  0  0  0
   20.8510    5.5360   53.9210 C   0  0  0  0  0  0  0  0  0  0  0  0
   20.9014    4.2815   53.0719 C   0  0  0  0  0  0  0  0  0  0  0  0
   19.5443    3.6673   53.4467 C   0  0  0  0  0  0  0  0  0  0  0  0
   18.6874    4.8644   53.7267 C   0  0  0  0  0  0  0  0  0  0  0  0
   19.5164    6.0377   53.5434 N   0  0  0  0  0  0  0  0  0  0  0  0
   19.6182    6.2091   52.4950 H   0  0  0  0  0  0  0  0  0  0  0  0
   23.0035    9.6813   55.0048 C   0  0  0  0  0  0  0  0  0  0  0  0
   22.3002   10.4777   53.9676 C   0  0  0  0  0  0  0  0  0  0  0  0
   22.1539   10.0147   52.6635 C   0  0  0  0  0  0  0  0  0  0  0  0
   21.4973   10.7408   51.6962 C   0  0  0  0  0  0  0  0  0  0  0  0
   20.9537   11.9715   51.9940 C   0  0  0  0  0  0  0  0  0  0  0  0
   21.0902   12.4530   53.2952 C   0  0  0  0  0  0  0  0  0  0  0  0
   21.7566   11.7037   54.2570 C   0  0  0  0  0  0  0  0  0  0  0  0
   27.8745    7.7503   54.6756 C   0  0  0  0  0  0  0  0  0  0  0  0
   28.0264    8.6039   53.4837 C   0  0  0  0  0  0  0  0  0  0  0  0
   27.2729    8.4669   52.3488 C   0  0  0  0  0  0  0  0  0  0  0  0
   27.4498    9.2690   51.2142 C   0  0  0  0  0  0  0  0  0  0  0  0
   28.4158   10.2462   51.2156 C   0  0  0  0  0  0  0  0  0  0  0  0
   29.1869   10.4095   52.3395 C   0  0  0  0  0  0  0  0  0  0  0  0
   29.0006    9.6101   53.4498 C   0  0  0  0  0  0  0  0  0  0  0  0
   30.7218   10.9100   59.6185 N   0  0  0  0  0  0  0  0  0  0  0  0
   29.4146   10.3760   59.5162 C   0  0  0  0  0  0  0  0  0  0  0  0
   29.0306    9.6270   60.4440 O   0  0  0  0  0  0  0  0  0  0  0  0
   31.0800   11.5163   58.8493 H   0  0  0  0  0  0  0  0  0  0  0  0
   31.6183   10.6648   60.7484 C   0  0  0  0  0  0  0  0  0  0  0  0
   31.5993    7.1601   62.5581 C   0  0  0  0  0  0  0  0  0  0  0  0
   32.4434    7.1226   63.8159 C   0  0  0  0  0  0  0  0  0  0  0  0
   32.4668    8.5652   64.3217 C   0  0  0  0  0  0  0  0  0  0  0  0
   31.2997    9.1732   63.5681 C   0  0  0  0  0  0  0  0  0  0  0  0
   31.5445    8.5936   62.2404 N   0  0  0  0  0  0  0  0  0  0  0  0
   31.6881    9.2009   60.9956 C   0  0  0  0  0  0  0  0  0  0  0  0
   31.8903    8.4498   59.9970 O   0  0  0  0  0  0  0  0  0  0  0  0
   29.8867    5.2772   62.9060 N   0  0  0  0  0  0  0  0  0  0  0  0
   30.2430    6.6246   62.7475 C   0  0  0  0  0  0  0  0  0  0  0  0
   29.2634    7.4621   62.7784 O   0  0  0  0  0  0  0  0  0  0  0  0
   30.5971    4.5339   62.8932 H   0  0  0  0  0  0  0  0  0  0  0  0
   28.4815    4.8612   63.1023 C   0  0  0  0  0  0  0  0  0  0  0  0
   29.8296    1.4674   64.3256 C   0  0  0  0  0  0  0  0  0  0  0  0
   29.7335    2.7782   63.6959 N   0  0  0  0  0  0  0  0  0  0  0  0
   28.5436    3.5339   63.7430 C   0  0  0  0  0  0  0  0  0  0  0  0
   27.5467    3.0596   64.3292 O   0  0  0  0  0  0  0  0  0  0  0  0
   30.5562    3.1734   63.1714 H   0  0  0  0  0  0  0  0  0  0  0  0
   27.7827    4.8755   61.7701 C   0  0  0  0  0  0  0  0  0  0  0  0
   26.5535    4.1016   61.6716 C   0  0  0  0  0  0  0  0  0  0  0  0
   26.0576    3.3515   62.7285 C   0  0  0  0  0  0  0  0  0  0  0  0
   24.8708    2.6540   62.5886 C   0  0  0  0  0  0  0  0  0  0  0  0
   24.1394    2.6691   61.4194 C   0  0  0  0  0  0  0  0  0  0  0  0
   24.6206    3.4118   60.3583 C   0  0  0  0  0  0  0  0  0  0  0  0
   25.7963    4.0984   60.5083 C   0  0  0  0  0  0  0  0  0  0  0  0
   32.9290   11.3015   60.4321 C   0  0  0  0  0  0  0  0  0  0  0  0
   33.2765   12.4046   61.4107 C   0  0  0  0  0  0  0  0  0  0  0  0
   32.1106   13.3068   61.6511 C   0  0  0  0  0  0  0  0  0  0  0  0
   32.5685   14.6435   61.9388 N   0  0  0  0  0  0  0  0  0  0  0  0
   32.3884   15.6359   61.1626 C   0  0  0  0  0  0  0  0  0  0  0  0
   31.7034   15.4400   59.9431 N   0  0  0  0  0  0  0  0  0  0  0  0
   32.8547   16.9183   61.4991 N   0  0  0  0  0  0  0  0  0  0  0  0
   32.1825   15.6020   59.0429 H   0  0  0  0  0  0  0  0  0  0  0  0
   30.7169   15.1305   59.9616 H   0  0  0  0  0  0  0  0  0  0  0  0
   32.3714   17.7637   61.1513 H   0  0  0  0  0  0  0  0  0  0  0  0
   33.6944   17.0237   62.1014 H   0  0  0  0  0  0  0  0  0  0  0  0
   27.4197   11.6581   58.8034 C   0  0  0  0  0  0  0  0  0  0  0  0
   27.8224   12.5422   59.9057 C   0  0  0  0  0  0  0  0  0  0  0  0
   27.5113   12.1969   61.2218 C   0  0  0  0  0  0  0  0  0  0  0  0
   27.8589   12.9978   62.2821 C   0  0  0  0  0  0  0  0  0  0  0  0
   28.5301   14.1699   62.0556 C   0  0  0  0  0  0  0  0  0  0  0  0
   28.8560   14.5446   60.7622 C   0  0  0  0  0  0  0  0  0  0  0  0
   28.4984   13.7286   59.7129 C   0  0  0  0  0  0  0  0  0  0  0  0
 53 54  1  0  0  0
 54 55  1  0  0  0
 55 56  2  0  0  0
 55 52  1  0  0  0
 52 58  1  0  0  0
 58 59  1  0  0  0
 59 60  2  0  0  0
 60 61  1  0  0  0
 61 62  2  0  0  0
 62 63  1  0  0  0
 63 64  2  0  0  0
 52 48  1  0  0  0
 48 49  1  0  0  0
 49 50  2  0  0  0
 49 41  1  0  0  0
 41 42  1  0  0  0
 42 43  1  0  0  0
 43 44  1  0  0  0
 44 45  1  0  0  0
 45 46  1  0  0  0
 46 47  2  0  0  0
 46 40  1  0  0  0
 40 65  1  0  0  0
 65 66  1  0  0  0
 66 67  1  0  0  0
 67 68  1  0  0  0
 68 69  2  0  0  0
 69 70  1  0  0  0
 69 71  1  0  0  0
 40 36  1  0  0  0
 36 37  1  0  0  0
 37 38  2  0  0  0
 37  1  1  0  0  0
  1 76  1  0  0  0
 76 77  1  0  0  0
 77 78  2  0  0  0
 78 79  1  0  0  0
 79 80  2  0  0  0
 80 81  1  0  0  0
 81 82  2  0  0  0
  1  2  1  0  0  0
  2  3  1  0  0  0
  3  4  2  0  0  0
  3  6  1  0  0  0
  6 29  1  0  0  0
 29 30  1  0  0  0
 30 31  2  0  0  0
 31 32  1  0  0  0
 32 33  2  0  0  0
 33 34  1  0  0  0
 34 35  2  0  0  0
  6  7  1  0  0  0
  7  8  1  0  0  0
  8  9  2  0  0  0
  8 11  1  0  0  0
 11 22  1  0  0  0
 22 23  1  0  0  0
 23 24  2  0  0  0
 24 25  1  0  0  0
 25 26  2  0  0  0
 26 27  1  0  0  0
 27 28  2  0  0  0
 11 12  1  0  0  0
 12 13  1  0  0  0
 13 14  2  0  0  0
 13 16  1  0  0  0
 16 17  1  0  0  0
 17 18  1  0  0  0
 18 19  1  0  0  0
 19 20  1  0  0  0
 64 59  1  0  0  0
 45 41  1  0  0  0
 82 77  1  0  0  0
 35 30  1  0  0  0
 28 23  1  0  0  0
 20 16  1  0  0  0
 54 57  1  0  0  0
 48 51  1  0  0  0
 70 72  1  0  0  0
 70 73  1  0  0  0
 71 74  1  0  0  0
 71 75  1  0  0  0
 36 39  1  0  0  0
  2  5  1  0  0  0
  7 10  1  0  0  0
 12 15  1  0  0  0
 20 21  1  0  0  0
M  END
> <minimizedAffinity>
24.39207

> <CNNscore>
0.4840556085

> <CNNaffinity>
7.4422364235

> <CNN_VS>
3.6024563313

> <CNNaffinity_variance>
2.0837471485

$$$$
[H]C([H])=C([H])C([H])([H])N([H])c1nc2nc([H])c([H])c([H])n2c(=O)c1C([H])([H])C([H])([H])N1C([H])([H])C([H])([H])C([H])([H])C1([H])[H]


 23 25  0  0  0  0  0  0  0  0999 V2000
   23.0943    8.5009   52.9724 C   0  0  0  0  0  0  0  0  0  0  0  0
   24.3919    8.2974   52.6848 N   0  0  0  0  0  0  0  0  0  0  0  0
   25.3690    8.4621   53.5953 C   0  0  0  0  0  0  0  0  0  0  0  0
   26.6747    8.2452   53.2708 N   0  0  0  0  0  0  0  0  0  0  0  0
   27.6527    8.4061   54.1734 C   0  0  0  0  0  0  0  0  0  0  0  0
   27.3536    8.7962   55.4544 C   0  0  0  0  0  0  0  0  0  0  0  0
   26.0601    9.0180   55.8008 C   0  0  0  0  0  0  0  0  0  0  0  0
   25.0936    8.8429   54.8525 N   0  0  0  0  0  0  0  0  0  0  0  0
   23.8132    9.0589   55.1883 C   0  0  0  0  0  0  0  0  0  0  0  0
   23.5769    9.4171   56.3780 O   0  0  0  0  0  0  0  0  0  0  0  0
   22.8068    8.8914   54.2594 C   0  0  0  0  0  0  0  0  0  0  0  0
   22.0761    8.3131   51.9667 N   0  0  0  0  0  0  0  0  0  0  0  0
   21.9715    7.3754   51.5225 H   0  0  0  0  0  0  0  0  0  0  0  0
   21.2057    9.4003   51.5788 C   0  0  0  0  0  0  0  0  0  0  0  0
   21.6122   11.8537   51.6323 C   0  0  0  0  0  0  0  0  0  0  0  0
   21.6600   10.6658   52.2010 C   0  0  0  0  0  0  0  0  0  0  0  0
   21.4028    9.1300   54.6643 C   0  0  0  0  0  0  0  0  0  0  0  0
   20.4648    8.0353   54.2151 C   0  0  0  0  0  0  0  0  0  0  0  0
   21.0269    6.7665   54.5977 N   0  0  0  0  0  0  0  0  0  0  0  0
   21.8988    6.8786   55.7444 C   0  0  0  0  0  0  0  0  0  0  0  0
   22.8863    5.7408   55.6435 C   0  0  0  0  0  0  0  0  0  0  0  0
   23.0203    5.5258   54.1493 C   0  0  0  0  0  0  0  0  0  0  0  0
   21.7263    6.0663   53.5778 C   0  0  0  0  0  0  0  0  0  0  0  0
 15 16  2  0  0  0
 16 14  1  0  0  0
 14 12  1  0  0  0
 12  1  1  0  0  0
  1  2  1  0  0  0
  2  3  2  0  0  0
  3  4  1  0  0  0
  4  5  2  0  0  0
  5  6  1  0  0  0
  6  7  2  0  0  0
  7  8  1  0  0  0
  8  9  1  0  0  0
  9 10  2  0  0  0
  9 11  1  0  0  0
 11 17  1  0  0  0
 17 18  1  0  0  0
 18 19  1  0  0  0
 19 20  1  0  0  0
 20 21  1  0  0  0
 21 22  1  0  0  0
 22 23  1  0  0  0
 11  1  2  0  0  0
 23 19  1  0  0  0
  8  3  1  0  0  0
 12 13  1  0  0  0
M  END
> <minimizedAffinity>
1.92578

> <CNNscore>
0.5529783368

> <CNNaffinity>
6.1714992523

> <CNN_VS>
3.4127054214

> <CNNaffinity_variance>
0.1516092718

$$$$
[H]C([H])=C([H])C([H])([H])N([H])c1nc2nc([H])c([H])c([H])n2c(=O)c1C([H])([H])C([H])([H])N1C([H])([H])C([H])([H])C([H])([H])C1([H])[H]


 23 25  0  0  0  0  0  0  0  0999 V2000
   25.2996    8.1949   54.3513 C   0  0  0  0  0  0  0  0  0  0  0  0
   24.4231    7.5842   53.5348 N   0  0  0  0  0  0  0  0  0  0  0  0
   23.0951    7.7851   53.6191 C   0  0  0  0  0  0  0  0  0  0  0  0
   22.2342    7.1512   52.7740 N   0  0  0  0  0  0  0  0  0  0  0  0
   20.9105    7.3479   52.8517 C   0  0  0  0  0  0  0  0  0  0  0  0
   20.3926    8.2005   53.7938 C   0  0  0  0  0  0  0  0  0  0  0  0
   21.2308    8.8432   54.6465 C   0  0  0  0  0  0  0  0  0  0  0  0
   22.5724    8.6158   54.5345 N   0  0  0  0  0  0  0  0  0  0  0  0
   23.4064    9.2486   55.3728 C   0  0  0  0  0  0  0  0  0  0  0  0
   22.8920   10.0264   56.2272 O   0  0  0  0  0  0  0  0  0  0  0  0
   24.7689    9.0472   55.2912 C   0  0  0  0  0  0  0  0  0  0  0  0
   26.7171    7.9523   54.2281 N   0  0  0  0  0  0  0  0  0  0  0  0
   27.1210    7.0896   54.6525 H   0  0  0  0  0  0  0  0  0  0  0  0
   27.5714    8.8820   53.5236 C   0  0  0  0  0  0  0  0  0  0  0  0
   29.3355    8.1302   55.1079 C   0  0  0  0  0  0  0  0  0  0  0  0
   28.9631    8.7743   54.0201 C   0  0  0  0  0  0  0  0  0  0  0  0
   25.6631    9.7673   56.2261 C   0  0  0  0  0  0  0  0  0  0  0  0
   26.7330    8.8822   56.8193 C   0  0  0  0  0  0  0  0  0  0  0  0
   27.8478    9.7080   57.2034 N   0  0  0  0  0  0  0  0  0  0  0  0
   28.3685    9.3527   58.5035 C   0  0  0  0  0  0  0  0  0  0  0  0
   29.0103   10.6000   59.0624 C   0  0  0  0  0  0  0  0  0  0  0  0
   28.1923   11.7189   58.4492 C   0  0  0  0  0  0  0  0  0  0  0  0
   27.6139   11.1097   57.1891 C   0  0  0  0  0  0  0  0  0  0  0  0
 15 16  2  0  0  0
 16 14  1  0  0  0
 14 12  1  0  0  0
 12  1  1  0  0  0
  1  2  1  0  0  0
  2  3  2  0  0  0
  3  4  1  0  0  0
  4  5  2  0  0  0
  5  6  1  0  0  0
  6  7  2  0  0  0
  7  8  1  0  0  0
  8  9  1  0  0  0
  9 10  2  0  0  0
  9 11  1  0  0  0
 11 17  1  0  0  0
 17 18  1  0  0  0
 18 19  1  0  0  0
 19 20  1  0  0  0
 20 21  1  0  0  0
 21 22  1  0  0  0
 22 23  1  0  0  0
 11  1  2  0  0  0
 23 19  1  0  0  0
  8  3  1  0  0  0
 12 13  1  0  0  0
M  END
> <minimizedAffinity>
5.94371

> <CNNscore>
0.5431200266

> <CNNaffinity>
5.9471240044

> <CNN_VS>
3.2300021648

> <CNNaffinity_variance>
0.4289198518

$$$$
[H]C([H])=C([H])C([H])([H])N([H])c1nc2nc([H])c([H])c([H])n2c(=O)c1C([H])([H])C([H])([H])N1C([H])([H])C([H])([H])C([H])([H])C1([H])[H]


 23 25  0  0  0  0  0  0  0  0999 V2000
   23.1023    7.8024   52.6685 C   0  0  0  0  0  0  0  0  0  0  0  0
   24.2511    8.4109   52.3251 N   0  0  0  0  0  0  0  0  0  0  0  0
   25.3841    8.2724   53.0379 C   0  0  0  0  0  0  0  0  0  0  0  0
   26.5323    8.9019   52.6604 N   0  0  0  0  0  0  0  0  0  0  0  0
   27.6645    8.7671   53.3652 C   0  0  0  0  0  0  0  0  0  0  0  0
   27.6884    7.9841   54.4917 C   0  0  0  0  0  0  0  0  0  0  0  0
   26.5568    7.3471   54.8870 C   0  0  0  0  0  0  0  0  0  0  0  0
   25.4244    7.5101   54.1418 N   0  0  0  0  0  0  0  0  0  0  0  0
   24.3031    6.8825   54.5258 C   0  0  0  0  0  0  0  0  0  0  0  0
   24.3642    6.1698   55.5688 O   0  0  0  0  0  0  0  0  0  0  0  0
   23.1384    7.0202   53.7991 C   0  0  0  0  0  0  0  0  0  0  0  0
   21.9082    7.9768   51.8766 N   0  0  0  0  0  0  0  0  0  0  0  0
   21.7012    7.2928   51.1171 H   0  0  0  0  0  0  0  0  0  0  0  0
   21.0036    9.0761   52.1286 C   0  0  0  0  0  0  0  0  0  0  0  0
   21.5942   11.4918   52.0750 C   0  0  0  0  0  0  0  0  0  0  0  0
   21.5123   10.3130   51.4913 C   0  0  0  0  0  0  0  0  0  0  0  0
   21.9198    6.3075   54.2452 C   0  0  0  0  0  0  0  0  0  0  0  0
   21.6397    6.4825   55.7186 C   0  0  0  0  0  0  0  0  0  0  0  0
   21.4019    7.8787   55.9757 N   0  0  0  0  0  0  0  0  0  0  0  0
   20.5922    8.4933   54.9488 C   0  0  0  0  0  0  0  0  0  0  0  0
   20.9519    9.9598   54.9413 C   0  0  0  0  0  0  0  0  0  0  0  0
   22.4027    9.9661   55.3794 C   0  0  0  0  0  0  0  0  0  0  0  0
   22.5606    8.6799   56.1631 C   0  0  0  0  0  0  0  0  0  0  0  0
 15 16  2  0  0  0
 16 14  1  0  0  0
 14 12  1  0  0  0
 12  1  1  0  0  0
  1  2  1  0  0  0
  2  3  2  0  0  0
  3  4  1  0  0  0
  4  5  2  0  0  0
  5  6  1  0  0  0
  6  7  2  0  0  0
  7  8  1  0  0  0
  8  9  1  0  0  0
  9 10  2  0  0  0
  9 11  1  0  0  0
 11 17  1  0  0  0
 17 18  1  0  0  0
 18 19  1  0  0  0
 19 20  1  0  0  0
 20 21  1  0  0  0
 21 22  1  0  0  0
 22 23  1  0  0  0
 11  1  2  0  0  0
 23 19  1  0  0  0
  8  3  1  0  0  0
 12 13  1  0  0  0
M  END
> <minimizedAffinity>
4.93661

> <CNNscore>
0.5353572965

> <CNNaffinity>
5.9321951866

> <CNN_VS>
3.1758439541

> <CNNaffinity_variance>
0.1782691628

$$$$
[H]C([H])=C([H])C([H])([H])N([H])c1nc2nc([H])c([H])c([H])n2c(=O)c1C([H])([H])C([H])([H])N1C([H])([H])C([H])([H])C([H])([H])C1([H])[H]


 23 25  0  0  0  0  0  0  0  0999 V2000
   24.1991    9.1059   54.8160 C   0  0  0  0  0  0  0  0  0  0  0  0
   24.8139    9.6790   55.8655 N   0  0  0  0  0  0  0  0  0  0  0  0
   26.1236    9.5042   56.1204 C   0  0  0  0  0  0  0  0  0  0  0  0
   26.7160   10.1017   57.1925 N   0  0  0  0  0  0  0  0  0  0  0  0
   28.0203    9.9328   57.4513 C   0  0  0  0  0  0  0  0  0  0  0  0
   28.7913    9.1469   56.6324 C   0  0  0  0  0  0  0  0  0  0  0  0
   28.2232    8.5415   55.5584 C   0  0  0  0  0  0  0  0  0  0  0  0
   26.8918    8.7389   55.3295 N   0  0  0  0  0  0  0  0  0  0  0  0
   26.3242    8.1451   54.2693 C   0  0  0  0  0  0  0  0  0  0  0  0
   27.0667    7.4287   53.5379 O   0  0  0  0  0  0  0  0  0  0  0  0
   24.9820    8.3207   54.0024 C   0  0  0  0  0  0  0  0  0  0  0  0
   22.7916    9.3188   54.5773 N   0  0  0  0  0  0  0  0  0  0  0  0
   22.4518    9.3969   53.5945 H   0  0  0  0  0  0  0  0  0  0  0  0
   21.8583    9.4175   55.6771 C   0  0  0  0  0  0  0  0  0  0  0  0
   21.8419    6.9746   56.1449 C   0  0  0  0  0  0  0  0  0  0  0  0
   21.2088    8.1075   55.9155 C   0  0  0  0  0  0  0  0  0  0  0  0
   24.3878    7.6578   52.8193 C   0  0  0  0  0  0  0  0  0  0  0  0
   23.4829    6.5045   53.1813 C   0  0  0  0  0  0  0  0  0  0  0  0
   22.2460    6.6503   52.4596 N   0  0  0  0  0  0  0  0  0  0  0  0
   22.0773    7.9833   51.9282 C   0  0  0  0  0  0  0  0  0  0  0  0
   20.5893    8.2107   51.8084 C   0  0  0  0  0  0  0  0  0  0  0  0
   20.0157    7.3699   52.9313 C   0  0  0  0  0  0  0  0  0  0  0  0
   21.0672    6.3078   53.1757 C   0  0  0  0  0  0  0  0  0  0  0  0
 15 16  2  0  0  0
 16 14  1  0  0  0
 14 12  1  0  0  0
 12  1  1  0  0  0
  1  2  1  0  0  0
  2  3  2  0  0  0
  3  4  1  0  0  0
  4  5  2  0  0  0
  5  6  1  0  0  0
  6  7  2  0  0  0
  7  8  1  0  0  0
  8  9  1  0  0  0
  9 10  2  0  0  0
  9 11  1  0  0  0
 11 17  1  0  0  0
 17 18  1  0  0  0
 18 19  1  0  0  0
 19 20  1  0  0  0
 20 21  1  0  0  0
 21 22  1  0  0  0
 22 23  1  0  0  0
 11  1  2  0  0  0
 23 19  1  0  0  0
  8  3  1  0  0  0
 12 13  1  0  0  0
M  END
> <minimizedAffinity>
7.27728

> <CNNscore>
0.5305587053

> <CNNaffinity>
5.7551383972

> <CNN_VS>
3.0534386635

> <CNNaffinity_variance>
0.3404318988

$$$$
[H]C([H])=C([H])C([H])([H])N([H])c1nc2nc([H])c([H])c([H])n2c(=O)c1C([H])([H])C([H])([H])N1C([H])([H])C([H])([H])C([H])([H])C1([H])[H]


 23 25  0  0  0  0  0  0  0  0999 V2000
   22.1078    7.9818   52.7964 C   0  0  0  0  0  0  0  0  0  0  0  0
   21.7703    8.8087   51.7913 N   0  0  0  0  0  0  0  0  0  0  0  0
   21.6215   10.1348   51.9646 C   0  0  0  0  0  0  0  0  0  0  0  0
   21.2806   10.9450   50.9232 N   0  0  0  0  0  0  0  0  0  0  0  0
   21.1321   12.2669   51.0888 C   0  0  0  0  0  0  0  0  0  0  0  0
   21.3231   12.8346   52.3233 C   0  0  0  0  0  0  0  0  0  0  0  0
   21.6633   12.0475   53.3755 C   0  0  0  0  0  0  0  0  0  0  0  0
   21.8049   10.7059   53.1653 N   0  0  0  0  0  0  0  0  0  0  0  0
   22.1423    9.9225   54.2002 C   0  0  0  0  0  0  0  0  0  0  0  0
   22.3099   10.4818   55.3221 O   0  0  0  0  0  0  0  0  0  0  0  0
   22.2967    8.5622   54.0288 C   0  0  0  0  0  0  0  0  0  0  0  0
   22.2576    6.5644   52.5687 N   0  0  0  0  0  0  0  0  0  0  0  0
   22.8732    6.2396   51.7922 H   0  0  0  0  0  0  0  0  0  0  0  0
   21.5737    5.6017   53.4028 C   0  0  0  0  0  0  0  0  0  0  0  0
   19.3854    6.7797   53.2990 C   0  0  0  0  0  0  0  0  0  0  0  0
   20.1106    5.6851   53.1855 C   0  0  0  0  0  0  0  0  0  0  0  0
   22.6778    7.7263   55.1899 C   0  0  0  0  0  0  0  0  0  0  0  0
   24.0596    7.1313   55.0607 C   0  0  0  0  0  0  0  0  0  0  0  0
   24.9599    8.1605   54.6107 N   0  0  0  0  0  0  0  0  0  0  0  0
   25.5246    7.8639   53.3143 C   0  0  0  0  0  0  0  0  0  0  0  0
   26.8527    8.5797   53.2526 C   0  0  0  0  0  0  0  0  0  0  0  0
   27.3088    8.5954   54.6978 C   0  0  0  0  0  0  0  0  0  0  0  0
   26.0259    8.4803   55.4943 C   0  0  0  0  0  0  0  0  0  0  0  0
 15 16  2  0  0  0
 16 14  1  0  0  0
 14 12  1  0  0  0
 12  1  1  0  0  0
  1  2  1  0  0  0
  2  3  2  0  0  0
  3  4  1  0  0  0
  4  5  2  0  0  0
  5  6  1  0  0  0
  6  7  2  0  0  0
  7  8  1  0  0  0
  8  9  1  0  0  0
  9 10  2  0  0  0
  9 11  1  0  0  0
 11 17  1  0  0  0
 17 18  1  0  0  0
 18 19  1  0  0  0
 19 20  1  0  0  0
 20 21  1  0  0  0
 21 22  1  0  0  0
 22 23  1  0  0  0
 11  1  2  0  0  0
 23 19  1  0  0  0
  8  3  1  0  0  0
 12 13  1  0  0  0
M  END
> <minimizedAffinity>
6.89411

> <CNNscore>
0.5076241493

> <CNNaffinity>
5.7813248634

> <CNN_VS>
2.9347400665

> <CNNaffinity_variance>
0.2022015601

$$$$
[H]C([H])=C([H])C([H])([H])N([H])c1nc2nc([H])c([H])c([H])n2c(=O)c1C([H])([H])C([H])([H])N1C([H])([H])C([H])([H])C([H])([H])C1([H])[H]


 23 25  0  0  0  0  0  0  0  0999 V2000
   23.8081    9.4080   55.2500 C   0  0  0  0  0  0  0  0  0  0  0  0
   24.8178    9.5409   56.1278 N   0  0  0  0  0  0  0  0  0  0  0  0
   26.0851    9.2000   55.8297 C   0  0  0  0  0  0  0  0  0  0  0  0
   27.0856    9.3496   56.7428 N   0  0  0  0  0  0  0  0  0  0  0  0
   28.3501    9.0132   56.4518 C   0  0  0  0  0  0  0  0  0  0  0  0
   28.6636    8.5068   55.2157 C   0  0  0  0  0  0  0  0  0  0  0  0
   27.6836    8.3489   54.2898 C   0  0  0  0  0  0  0  0  0  0  0  0
   26.4085    8.7035   54.6254 N   0  0  0  0  0  0  0  0  0  0  0  0
   25.4355    8.5516   53.7150 C   0  0  0  0  0  0  0  0  0  0  0  0
   25.7630    8.0821   52.5873 O   0  0  0  0  0  0  0  0  0  0  0  0
   24.1344    8.8996   54.0145 C   0  0  0  0  0  0  0  0  0  0  0  0
   22.4621    9.7857   55.6091 N   0  0  0  0  0  0  0  0  0  0  0  0
   21.8341    9.0717   56.0374 H   0  0  0  0  0  0  0  0  0  0  0  0
   21.9844   11.1322   55.3881 C   0  0  0  0  0  0  0  0  0  0  0  0
   21.3844   11.1765   52.9745 C   0  0  0  0  0  0  0  0  0  0  0  0
   21.0403   11.1588   54.2466 C   0  0  0  0  0  0  0  0  0  0  0  0
   23.0850    8.7272   52.9844 C   0  0  0  0  0  0  0  0  0  0  0  0
   21.8396    8.0595   53.5166 C   0  0  0  0  0  0  0  0  0  0  0  0
   22.0594    6.6371   53.5424 N   0  0  0  0  0  0  0  0  0  0  0  0
   22.0413    6.1057   54.8859 C   0  0  0  0  0  0  0  0  0  0  0  0
   22.8927    4.8588   54.8640 C   0  0  0  0  0  0  0  0  0  0  0  0
   23.9187    5.1550   53.7886 C   0  0  0  0  0  0  0  0  0  0  0  0
   23.2443    6.1820   52.9033 C   0  0  0  0  0  0  0  0  0  0  0  0
 15 16  2  0  0  0
 16 14  1  0  0  0
 14 12  1  0  0  0
 12  1  1  0  0  0
  1  2  1  0  0  0
  2  3  2  0  0  0
  3  4  1  0  0  0
  4  5  2  0  0  0
  5  6  1  0  0  0
  6  7  2  0  0  0
  7  8  1  0  0  0
  8  9  1  0  0  0
  9 10  2  0  0  0
  9 11  1  0  0  0
 11 17  1  0  0  0
 17 18  1  0  0  0
 18 19  1  0  0  0
 19 20  1  0  0  0
 20 21  1  0  0  0
 21 22  1  0  0  0
 22 23  1  0  0  0
 11  1  2  0  0  0
 23 19  1  0  0  0
  8  3  1  0  0  0
 12 13  1  0  0  0
M  END
> <minimizedAffinity>
9.53403

> <CNNscore>
0.4754856825

> <CNNaffinity>
5.8225488663

> <CNN_VS>
2.7685387135

> <CNNaffinity_variance>
0.1729390919

$$$$
[H]C([H])=C([H])C([H])([H])N([H])c1nc2nc([H])c([H])c([H])n2c(=O)c1C([H])([H])C([H])([H])N1C([H])([H])C([H])([H])C([H])([H])C1([H])[H]


 23 25  0  0  0  0  0  0  0  0999 V2000
   22.0582    6.6530   53.9611 C   0  0  0  0  0  0  0  0  0  0  0  0
   20.9783    7.3729   54.3122 N   0  0  0  0  0  0  0  0  0  0  0  0
   21.0704    8.6221   54.8042 C   0  0  0  0  0  0  0  0  0  0  0  0
   19.9548    9.3250   55.1484 N   0  0  0  0  0  0  0  0  0  0  0  0
   20.0396   10.5702   55.6377 C   0  0  0  0  0  0  0  0  0  0  0  0
   21.2644   11.1661   55.8025 C   0  0  0  0  0  0  0  0  0  0  0  0
   22.3897   10.4854   55.4664 C   0  0  0  0  0  0  0  0  0  0  0  0
   22.2606    9.2195   54.9713 N   0  0  0  0  0  0  0  0  0  0  0  0
   23.3681    8.5416   54.6358 C   0  0  0  0  0  0  0  0  0  0  0  0
   24.4785    9.1239   54.8017 O   0  0  0  0  0  0  0  0  0  0  0  0
   23.2802    7.2608   54.1305 C   0  0  0  0  0  0  0  0  0  0  0  0
   21.9164    5.3157   53.4368 N   0  0  0  0  0  0  0  0  0  0  0  0
   22.7283    4.6633   53.4899 H   0  0  0  0  0  0  0  0  0  0  0  0
   20.6701    4.8758   52.8507 C   0  0  0  0  0  0  0  0  0  0  0  0
   18.6681    3.6751   53.7094 C   0  0  0  0  0  0  0  0  0  0  0  0
   19.9435    3.9958   53.7955 C   0  0  0  0  0  0  0  0  0  0  0  0
   24.5215    6.5426   53.7621 C   0  0  0  0  0  0  0  0  0  0  0  0
   25.6145    7.4641   53.2764 C   0  0  0  0  0  0  0  0  0  0  0  0
   26.6322    7.5405   54.2916 N   0  0  0  0  0  0  0  0  0  0  0  0
   26.2810    8.4603   55.3492 C   0  0  0  0  0  0  0  0  0  0  0  0
   27.5818    8.9502   55.9391 C   0  0  0  0  0  0  0  0  0  0  0  0
   28.5378    8.9043   54.7640 C   0  0  0  0  0  0  0  0  0  0  0  0
   27.9377    7.8688   53.8361 C   0  0  0  0  0  0  0  0  0  0  0  0
 15 16  2  0  0  0
 16 14  1  0  0  0
 14 12  1  0  0  0
 12  1  1  0  0  0
  1  2  1  0  0  0
  2  3  2  0  0  0
  3  4  1  0  0  0
  4  5  2  0  0  0
  5  6  1  0  0  0
  6  7  2  0  0  0
  7  8  1  0  0  0
  8  9  1  0  0  0
  9 10  2  0  0  0
  9 11  1  0  0  0
 11 17  1  0  0  0
 17 18  1  0  0  0
 18 19  1  0  0  0
 19 20  1  0  0  0
 20 21  1  0  0  0
 21 22  1  0  0  0
 22 23  1  0  0  0
 11  1  2  0  0  0
 23 19  1  0  0  0
  8  3  1  0  0  0
 12 13  1  0  0  0
M  END
> <minimizedAffinity>
12.37517

> <CNNscore>
0.4570865631

> <CNNaffinity>
5.9155478477

> <CNN_VS>
2.7039175034

> <CNNaffinity_variance>
0.4839844108

$$$$
[H]C([H])=C([H])C([H])([H])N([H])c1nc2nc([H])c([H])c([H])n2c(=O)c1C([H])([H])C([H])([H])N1C([H])([H])C([H])([H])C([H])([H])C1([H])[H]


 23 25  0  0  0  0  0  0  0  0999 V2000
   24.8244    9.0420   55.4681 C   0  0  0  0  0  0  0  0  0  0  0  0
   23.6149    9.6258   55.4044 N   0  0  0  0  0  0  0  0  0  0  0  0
   22.5729    9.0632   54.7651 C   0  0  0  0  0  0  0  0  0  0  0  0
   21.3592    9.6815   54.7215 N   0  0  0  0  0  0  0  0  0  0  0  0
   20.3169    9.1259   54.0876 C   0  0  0  0  0  0  0  0  0  0  0  0
   20.4544    7.9112   53.4646 C   0  0  0  0  0  0  0  0  0  0  0  0
   21.6539    7.2764   53.4949 C   0  0  0  0  0  0  0  0  0  0  0  0
   22.6905    7.8756   54.1510 N   0  0  0  0  0  0  0  0  0  0  0  0
   23.8780    7.2533   54.1861 C   0  0  0  0  0  0  0  0  0  0  0  0
   23.9660    6.1357   53.6008 O   0  0  0  0  0  0  0  0  0  0  0  0
   24.9501    7.8248   54.8402 C   0  0  0  0  0  0  0  0  0  0  0  0
   25.9167    9.6788   56.1641 N   0  0  0  0  0  0  0  0  0  0  0  0
   26.1786   10.6552   55.9078 H   0  0  0  0  0  0  0  0  0  0  0  0
   26.6390    8.9844   57.2065 C   0  0  0  0  0  0  0  0  0  0  0  0
   28.0375   10.9749   57.7252 C   0  0  0  0  0  0  0  0  0  0  0  0
   27.9126    9.6828   57.4982 C   0  0  0  0  0  0  0  0  0  0  0  0
   26.2454    7.1082   54.8675 C   0  0  0  0  0  0  0  0  0  0  0  0
   26.8836    6.9903   53.5042 C   0  0  0  0  0  0  0  0  0  0  0  0
   28.0197    7.8730   53.4537 N   0  0  0  0  0  0  0  0  0  0  0  0
   28.6958    7.9667   54.7272 C   0  0  0  0  0  0  0  0  0  0  0  0
   29.3746    9.3152   54.7527 C   0  0  0  0  0  0  0  0  0  0  0  0
   28.4691   10.1785   53.8972 C   0  0  0  0  0  0  0  0  0  0  0  0
   27.7589    9.1921   52.9939 C   0  0  0  0  0  0  0  0  0  0  0  0
 15 16  2  0  0  0
 16 14  1  0  0  0
 14 12  1  0  0  0
 12  1  1  0  0  0
  1  2  1  0  0  0
  2  3  2  0  0  0
  3  4  1  0  0  0
  4  5  2  0  0  0
  5  6  1  0  0  0
  6  7  2  0  0  0
  7  8  1  0  0  0
  8  9  1  0  0  0
  9 10  2  0  0  0
  9 11  1  0  0  0
 11 17  1  0  0  0
 17 18  1  0  0  0
 18 19  1  0  0  0
 19 20  1  0  0  0
 20 21  1  0  0  0
 21 22  1  0  0  0
 22 23  1  0  0  0
 11  1  2  0  0  0
 23 19  1  0  0  0
  8  3  1  0  0  0
 12 13  1  0  0  0
M  END
> <minimizedAffinity>
16.01341

> <CNNscore>
0.4567396939

> <CNNaffinity>
5.8220911026

> <CNN_VS>
2.6591801643

> <CNNaffinity_variance>
0.2478774041

$$$$
[H]C([H])=C([H])C([H])([H])N([H])c1nc2nc([H])c([H])c([H])n2c(=O)c1C([H])([H])C([H])([H])N1C([H])([H])C([H])([H])C([H])([H])C1([H])[H]


 23 25  0  0  0  0  0  0  0  0999 V2000
   22.7762    7.5554   52.5961 C   0  0  0  0  0  0  0  0  0  0  0  0
   23.9053    8.2479   52.3654 N   0  0  0  0  0  0  0  0  0  0  0  0
   24.9985    8.1283   53.1411 C   0  0  0  0  0  0  0  0  0  0  0  0
   26.1279    8.8440   52.8776 N   0  0  0  0  0  0  0  0  0  0  0  0
   27.2206    8.7286   53.6455 C   0  0  0  0  0  0  0  0  0  0  0  0
   27.2219    7.8782   54.7223 C   0  0  0  0  0  0  0  0  0  0  0  0
   26.1084    7.1549   55.0042 C   0  0  0  0  0  0  0  0  0  0  0  0
   25.0164    7.3010   54.1978 N   0  0  0  0  0  0  0  0  0  0  0  0
   23.9133    6.5883   54.4696 C   0  0  0  0  0  0  0  0  0  0  0  0
   23.9526    5.8154   55.4699 O   0  0  0  0  0  0  0  0  0  0  0  0
   22.7895    6.7062   53.6779 C   0  0  0  0  0  0  0  0  0  0  0  0
   21.6249    7.7123   51.7398 N   0  0  0  0  0  0  0  0  0  0  0  0
   21.3523    6.9266   51.1105 H   0  0  0  0  0  0  0  0  0  0  0  0
   20.8515    8.9337   51.7513 C   0  0  0  0  0  0  0  0  0  0  0  0
   21.3190   10.2420   53.8146 C   0  0  0  0  0  0  0  0  0  0  0  0
   21.5484    9.9725   52.5451 C   0  0  0  0  0  0  0  0  0  0  0  0
   21.5907    5.8993   54.0002 C   0  0  0  0  0  0  0  0  0  0  0  0
   20.3089    6.5206   53.4992 C   0  0  0  0  0  0  0  0  0  0  0  0
   19.3916    5.4644   53.1596 N   0  0  0  0  0  0  0  0  0  0  0  0
   18.1923    5.5025   53.9646 C   0  0  0  0  0  0  0  0  0  0  0  0
   17.6655    4.0882   54.0139 C   0  0  0  0  0  0  0  0  0  0  0  0
   18.9198    3.2441   53.9092 C   0  0  0  0  0  0  0  0  0  0  0  0
   19.9183    4.1456   53.2137 C   0  0  0  0  0  0  0  0  0  0  0  0
 15 16  2  0  0  0
 16 14  1  0  0  0
 14 12  1  0  0  0
 12  1  1  0  0  0
  1  2  1  0  0  0
  2  3  2  0  0  0
  3  4  1  0  0  0
  4  5  2  0  0  0
  5  6  1  0  0  0
  6  7  2  0  0  0
  7  8  1  0  0  0
  8  9  1  0  0  0
  9 10  2  0  0  0
  9 11  1  0  0  0
 11 17  1  0  0  0
 17 18  1  0  0  0
 18 19  1  0  0  0
 19 20  1  0  0  0
 20 21  1  0  0  0
 21 22  1  0  0  0
 22 23  1  0  0  0
 11  1  2  0  0  0
 23 19  1  0  0  0
  8  3  1  0  0  0
 12 13  1  0  0  0
M  END
> <minimizedAffinity>
9.44350

> <CNNscore>
0.4561829865

> <CNNaffinity>
6.1998152733

> <CNN_VS>
2.8282501698

> <CNNaffinity_variance>
0.6773513556

$$$$
[H]c1c([H])c(N2C([H])([H])C([H])([H])N(c3c([H])c([H])c(N([H])C(=O)N4C([H])([H])C([H])([H])N(C(=O)C([H])([H])[H])C([H])([H])C4([H])[H])c([H])c3[H])C([H])([H])C2([H])[H])c([H])c([H])c1C(=O)N1C([H])([H])C([H])([H])OC([H])([H])C1([H])[H]


 39 43  0  0  0  0  0  0  0  0999 V2000
   28.4055   10.5112   58.3907 N   0  0  0  0  0  0  0  0  0  0  0  0
   29.0081    9.7697   59.4596 C   0  0  0  0  0  0  0  0  0  0  0  0
   29.7058   10.5992   60.4958 C   0  0  0  0  0  0  0  0  0  0  0  0
   30.4012   11.7371   59.8978 N   0  0  0  0  0  0  0  0  0  0  0  0
   30.3344   11.9000   58.4682 C   0  0  0  0  0  0  0  0  0  0  0  0
   28.8291   11.8598   58.1337 C   0  0  0  0  0  0  0  0  0  0  0  0
   25.4650    8.5797   55.9992 C   0  0  0  0  0  0  0  0  0  0  0  0
   25.1163    9.3381   57.1231 C   0  0  0  0  0  0  0  0  0  0  0  0
   26.0508    9.9574   57.8930 C   0  0  0  0  0  0  0  0  0  0  0  0
   27.3954    9.8712   57.6070 C   0  0  0  0  0  0  0  0  0  0  0  0
   27.7379    9.1303   56.5092 C   0  0  0  0  0  0  0  0  0  0  0  0
   26.8026    8.4789   55.6938 C   0  0  0  0  0  0  0  0  0  0  0  0
   20.2363    3.5054   52.6041 C   0  0  0  0  0  0  0  0  0  0  0  0
   19.7117    4.8395   52.9584 C   0  0  0  0  0  0  0  0  0  0  0  0
   18.4894    4.8835   53.3305 O   0  0  0  0  0  0  0  0  0  0  0  0
   20.5191    5.9848   52.8876 N   0  0  0  0  0  0  0  0  0  0  0  0
   21.8839    5.8892   52.4677 C   0  0  0  0  0  0  0  0  0  0  0  0
   22.7371    6.3401   53.6440 C   0  0  0  0  0  0  0  0  0  0  0  0
   22.2798    7.6040   54.1165 N   0  0  0  0  0  0  0  0  0  0  0  0
   20.9799    8.1828   53.8814 C   0  0  0  0  0  0  0  0  0  0  0  0
   20.0067    7.2811   53.2250 C   0  0  0  0  0  0  0  0  0  0  0  0
   23.1909    8.3944   54.9187 C   0  0  0  0  0  0  0  0  0  0  0  0
   22.8265    9.5330   55.3344 O   0  0  0  0  0  0  0  0  0  0  0  0
   24.4697    7.9332   55.2497 N   0  0  0  0  0  0  0  0  0  0  0  0
   24.7250    6.9623   54.8882 H   0  0  0  0  0  0  0  0  0  0  0  0
   31.0873   12.6068   60.7424 C   0  0  0  0  0  0  0  0  0  0  0  0
   32.1506   12.1652   61.5137 C   0  0  0  0  0  0  0  0  0  0  0  0
   32.8499   12.9832   62.3558 C   0  0  0  0  0  0  0  0  0  0  0  0
   32.4944   14.3510   62.4659 C   0  0  0  0  0  0  0  0  0  0  0  0
   31.4488   14.8149   61.7159 C   0  0  0  0  0  0  0  0  0  0  0  0
   30.7773   13.9258   60.8760 C   0  0  0  0  0  0  0  0  0  0  0  0
   33.2546   15.1663   63.3621 C   0  0  0  0  0  0  0  0  0  0  0  0
   33.6473   14.5478   64.4493 O   0  0  0  0  0  0  0  0  0  0  0  0
   33.6412   16.4797   63.2788 N   0  0  0  0  0  0  0  0  0  0  0  0
   34.4412   17.0033   64.4299 C   0  0  0  0  0  0  0  0  0  0  0  0
   33.7246   18.2557   64.8810 C   0  0  0  0  0  0  0  0  0  0  0  0
   33.6770   19.2007   63.8727 O   0  0  0  0  0  0  0  0  0  0  0  0
   34.1493   18.7387   62.6709 C   0  0  0  0  0  0  0  0  0  0  0  0
   33.4053   17.4374   62.2634 C   0  0  0  0  0  0  0  0  0  0  0  0
 13 14  1  0  0  0
 14 15  2  0  0  0
 14 16  1  0  0  0
 16 17  1  0  0  0
 17 18  1  0  0  0
 18 19  1  0  0  0
 19 20  1  0  0  0
 20 21  1  0  0  0
 19 22  1  0  0  0
 22 23  2  0  0  0
 22 24  1  0  0  0
 24  7  1  0  0  0
  7  8  2  0  0  0
  8  9  1  0  0  0
  9 10  2  0  0  0
 10 11  1  0  0  0
 11 12  2  0  0  0
 10  1  1  0  0  0
  1  2  1  0  0  0
  2  3  1  0  0  0
  3  4  1  0  0  0
  4  5  1  0  0  0
  5  6  1  0  0  0
  4 26  1  0  0  0
 26 27  2  0  0  0
 27 28  1  0  0  0
 28 29  2  0  0  0
 29 30  1  0  0  0
 30 31  2  0  0  0
 29 32  1  0  0  0
 32 33  2  0  0  0
 32 34  1  0  0  0
 34 35  1  0  0  0
 35 36  1  0  0  0
 36 37  1  0  0  0
 37 38  1  0  0  0
 38 39  1  0  0  0
 21 16  1  0  0  0
 12  7  1  0  0  0
  6  1  1  0  0  0
 31 26  1  0  0  0
 39 34  1  0  0  0
 24 25  1  0  0  0
M  END
> <minimizedAffinity>
35.31946

> <CNNscore>
0.5596346855

> <CNNaffinity>
5.7160940170

> <CNN_VS>
3.1989245415

> <CNNaffinity_variance>
1.0961054564

$$$$
[H]c1c([H])c(N2C([H])([H])C([H])([H])N(c3c([H])c([H])c(N([H])C(=O)N4C([H])([H])C([H])([H])N(C(=O)C([H])([H])[H])C([H])([H])C4([H])[H])c([H])c3[H])C([H])([H])C2([H])[H])c([H])c([H])c1C(=O)N1C([H])([H])C([H])([H])OC([H])([H])C1([H])[H]


 39 43  0  0  0  0  0  0  0  0999 V2000
   25.2460    8.8794   55.3580 N   0  0  0  0  0  0  0  0  0  0  0  0
   25.5019    8.2458   54.0976 C   0  0  0  0  0  0  0  0  0  0  0  0
   24.4762    8.5047   53.0349 C   0  0  0  0  0  0  0  0  0  0  0  0
   23.1234    8.5390   53.5871 N   0  0  0  0  0  0  0  0  0  0  0  0
   22.9611    8.3245   55.0022 C   0  0  0  0  0  0  0  0  0  0  0  0
   23.9187    9.3330   55.6694 C   0  0  0  0  0  0  0  0  0  0  0  0
   28.4270    9.3815   58.1377 C   0  0  0  0  0  0  0  0  0  0  0  0
   28.6435    8.8503   56.8606 C   0  0  0  0  0  0  0  0  0  0  0  0
   27.6315    8.6858   55.9671 C   0  0  0  0  0  0  0  0  0  0  0  0
   26.3343    9.0343   56.2722 C   0  0  0  0  0  0  0  0  0  0  0  0
   26.1208    9.5534   57.5197 C   0  0  0  0  0  0  0  0  0  0  0  0
   27.1390    9.7368   58.4652 C   0  0  0  0  0  0  0  0  0  0  0  0
   33.8519   11.6185   63.6313 C   0  0  0  0  0  0  0  0  0  0  0  0
   33.3752   10.2236   63.7181 C   0  0  0  0  0  0  0  0  0  0  0  0
   33.2925    9.7289   64.8940 O   0  0  0  0  0  0  0  0  0  0  0  0
   33.0347    9.4946   62.5687 N   0  0  0  0  0  0  0  0  0  0  0  0
   33.1403   10.0892   61.2711 C   0  0  0  0  0  0  0  0  0  0  0  0
   31.7348   10.1241   60.6892 C   0  0  0  0  0  0  0  0  0  0  0  0
   31.1435    8.8308   60.7756 N   0  0  0  0  0  0  0  0  0  0  0  0
   31.5538    7.7625   61.6534 C   0  0  0  0  0  0  0  0  0  0  0  0
   32.5785    8.1376   62.6534 C   0  0  0  0  0  0  0  0  0  0  0  0
   30.0156    8.5455   59.9126 C   0  0  0  0  0  0  0  0  0  0  0  0
   29.4815    7.3984   59.9454 O   0  0  0  0  0  0  0  0  0  0  0  0
   29.4959    9.5066   59.0387 N   0  0  0  0  0  0  0  0  0  0  0  0
   29.9707   10.4619   59.0580 H   0  0  0  0  0  0  0  0  0  0  0  0
   22.0635    8.7826   52.7169 C   0  0  0  0  0  0  0  0  0  0  0  0
   21.7831   10.0646   52.2717 C   0  0  0  0  0  0  0  0  0  0  0  0
   20.7532   10.3483   51.4195 C   0  0  0  0  0  0  0  0  0  0  0  0
   19.9168    9.3035   50.9523 C   0  0  0  0  0  0  0  0  0  0  0  0
   20.1704    8.0275   51.3750 C   0  0  0  0  0  0  0  0  0  0  0  0
   21.2383    7.8075   52.2456 C   0  0  0  0  0  0  0  0  0  0  0  0
   18.8511    9.6507   50.0639 C   0  0  0  0  0  0  0  0  0  0  0  0
   17.8429    8.8130   50.0806 O   0  0  0  0  0  0  0  0  0  0  0  0
   18.7045   10.7063   49.2003 N   0  0  0  0  0  0  0  0  0  0  0  0
   17.4316   10.7402   48.4144 C   0  0  0  0  0  0  0  0  0  0  0  0
   17.8547   10.8772   46.9695 C   0  0  0  0  0  0  0  0  0  0  0  0
   18.5676   12.0434   46.7608 O   0  0  0  0  0  0  0  0  0  0  0  0
   18.8511   12.7225   47.9181 C   0  0  0  0  0  0  0  0  0  0  0  0
   19.5744   11.7893   48.9275 C   0  0  0  0  0  0  0  0  0  0  0  0
 13 14  1  0  0  0
 14 15  2  0  0  0
 14 16  1  0  0  0
 16 17  1  0  0  0
 17 18  1  0  0  0
 18 19  1  0  0  0
 19 20  1  0  0  0
 20 21  1  0  0  0
 19 22  1  0  0  0
 22 23  2  0  0  0
 22 24  1  0  0  0
 24  7  1  0  0  0
  7  8  2  0  0  0
  8  9  1  0  0  0
  9 10  2  0  0  0
 10 11  1  0  0  0
 11 12  2  0  0  0
 10  1  1  0  0  0
  1  2  1  0  0  0
  2  3  1  0  0  0
  3  4  1  0  0  0
  4  5  1  0  0  0
  5  6  1  0  0  0
  4 26  1  0  0  0
 26 27  2  0  0  0
 27 28  1  0  0  0
 28 29  2  0  0  0
 29 30  1  0  0  0
 30 31  2  0  0  0
 29 32  1  0  0  0
 32 33  2  0  0  0
 32 34  1  0  0  0
 34 35  1  0  0  0
 35 36  1  0  0  0
 36 37  1  0  0  0
 37 38  1  0  0  0
 38 39  1  0  0  0
 21 16  1  0  0  0
 12  7  1  0  0  0
  6  1  1  0  0  0
 31 26  1  0  0  0
 39 34  1  0  0  0
 24 25  1  0  0  0
M  END
> <minimizedAffinity>
55.86597

> <CNNscore>
0.5254133940

> <CNNaffinity>
5.7770957947

> <CNN_VS>
3.0353634357

> <CNNaffinity_variance>
0.2100634277

$$$$
[H]c1c([H])c(N2C([H])([H])C([H])([H])N(c3c([H])c([H])c(N([H])C(=O)N4C([H])([H])C([H])([H])N(C(=O)C([H])([H])[H])C([H])([H])C4([H])[H])c([H])c3[H])C([H])([H])C2([H])[H])c([H])c([H])c1C(=O)N1C([H])([H])C([H])([H])OC([H])([H])C1([H])[H]


 39 43  0  0  0  0  0  0  0  0999 V2000
   22.2173    8.1501   55.1423 N   0  0  0  0  0  0  0  0  0  0  0  0
   21.0391    7.5558   55.7026 C   0  0  0  0  0  0  0  0  0  0  0  0
   21.2798    6.6349   56.8612 C   0  0  0  0  0  0  0  0  0  0  0  0
   22.4950    5.8436   56.6786 N   0  0  0  0  0  0  0  0  0  0  0  0
   23.2571    6.0369   55.4717 C   0  0  0  0  0  0  0  0  0  0  0  0
   23.5017    7.5580   55.3955 C   0  0  0  0  0  0  0  0  0  0  0  0
   21.7545   11.6876   52.8251 C   0  0  0  0  0  0  0  0  0  0  0  0
   21.9856   10.4426   52.2280 C   0  0  0  0  0  0  0  0  0  0  0  0
   22.1357    9.3077   52.9623 C   0  0  0  0  0  0  0  0  0  0  0  0
   22.0682    9.3227   54.3379 C   0  0  0  0  0  0  0  0  0  0  0  0
   21.8426   10.5384   54.9230 C   0  0  0  0  0  0  0  0  0  0  0  0
   21.6833   11.7274   54.1984 C   0  0  0  0  0  0  0  0  0  0  0  0
   22.6667   18.5784   48.7878 C   0  0  0  0  0  0  0  0  0  0  0  0
   22.0088   17.4776   48.0558 C   0  0  0  0  0  0  0  0  0  0  0  0
   22.2350   17.4229   46.7987 O   0  0  0  0  0  0  0  0  0  0  0  0
   21.1861   16.5510   48.7139 N   0  0  0  0  0  0  0  0  0  0  0  0
   20.9621   16.6486   50.1241 C   0  0  0  0  0  0  0  0  0  0  0  0
   21.5254   15.3795   50.7463 C   0  0  0  0  0  0  0  0  0  0  0  0
   21.0027   14.2378   50.0731 N   0  0  0  0  0  0  0  0  0  0  0  0
   20.4191   14.2184   48.7544 C   0  0  0  0  0  0  0  0  0  0  0  0
   20.5418   15.4865   48.0009 C   0  0  0  0  0  0  0  0  0  0  0  0
   21.0617   12.9638   50.7600 C   0  0  0  0  0  0  0  0  0  0  0  0
   20.5841   11.9332   50.2017 O   0  0  0  0  0  0  0  0  0  0  0  0
   21.6348   12.8382   52.0302 N   0  0  0  0  0  0  0  0  0  0  0  0
   22.0362   13.7320   52.4527 H   0  0  0  0  0  0  0  0  0  0  0  0
   22.8546    4.9486   57.6834 C   0  0  0  0  0  0  0  0  0  0  0  0
   22.4463    5.1416   58.9935 C   0  0  0  0  0  0  0  0  0  0  0  0
   22.7770    4.2899   60.0097 C   0  0  0  0  0  0  0  0  0  0  0  0
   23.5728    3.1479   59.7412 C   0  0  0  0  0  0  0  0  0  0  0  0
   23.9900    2.9318   58.4566 C   0  0  0  0  0  0  0  0  0  0  0  0
   23.6164    3.8411   57.4665 C   0  0  0  0  0  0  0  0  0  0  0  0
   23.8942    2.2879   60.8379 C   0  0  0  0  0  0  0  0  0  0  0  0
   22.9650    1.4074   61.1207 O   0  0  0  0  0  0  0  0  0  0  0  0
   25.0042    2.2275   61.6415 N   0  0  0  0  0  0  0  0  0  0  0  0
   24.9857    1.1795   62.7095 C   0  0  0  0  0  0  0  0  0  0  0  0
   25.2925    1.9113   63.9963 C   0  0  0  0  0  0  0  0  0  0  0  0
   26.5361    2.5139   63.9500 O   0  0  0  0  0  0  0  0  0  0  0  0
   27.1324    2.4376   62.7173 C   0  0  0  0  0  0  0  0  0  0  0  0
   26.1862    3.0063   61.6245 C   0  0  0  0  0  0  0  0  0  0  0  0
 13 14  1  0  0  0
 14 15  2  0  0  0
 14 16  1  0  0  0
 16 17  1  0  0  0
 17 18  1  0  0  0
 18 19  1  0  0  0
 19 20  1  0  0  0
 20 21  1  0  0  0
 19 22  1  0  0  0
 22 23  2  0  0  0
 22 24  1  0  0  0
 24  7  1  0  0  0
  7  8  2  0  0  0
  8  9  1  0  0  0
  9 10  2  0  0  0
 10 11  1  0  0  0
 11 12  2  0  0  0
 10  1  1  0  0  0
  1  2  1  0  0  0
  2  3  1  0  0  0
  3  4  1  0  0  0
  4  5  1  0  0  0
  5  6  1  0  0  0
  4 26  1  0  0  0
 26 27  2  0  0  0
 27 28  1  0  0  0
 28 29  2  0  0  0
 29 30  1  0  0  0
 30 31  2  0  0  0
 29 32  1  0  0  0
 32 33  2  0  0  0
 32 34  1  0  0  0
 34 35  1  0  0  0
 35 36  1  0  0  0
 36 37  1  0  0  0
 37 38  1  0  0  0
 38 39  1  0  0  0
 21 16  1  0  0  0
 12  7  1  0  0  0
  6  1  1  0  0  0
 31 26  1  0  0  0
 39 34  1  0  0  0
 24 25  1  0  0  0
M  END
> <minimizedAffinity>
54.05279

> <CNNscore>
0.5094938874

> <CNNaffinity>
5.5199646950

> <CNN_VS>
2.8123881817

> <CNNaffinity_variance>
0.2588965595

$$$$
[H]c1c([H])c(N2C([H])([H])C([H])([H])N(c3c([H])c([H])c(N([H])C(=O)N4C([H])([H])C([H])([H])N(C(=O)C([H])([H])[H])C([H])([H])C4([H])[H])c([H])c3[H])C([H])([H])C2([H])[H])c([H])c([H])c1C(=O)N1C([H])([H])C([H])([H])OC([H])([H])C1([H])[H]


 39 43  0  0  0  0  0  0  0  0999 V2000
   22.2974    7.5412   55.8171 N   0  0  0  0  0  0  0  0  0  0  0  0
   21.1494    6.9079   56.3972 C   0  0  0  0  0  0  0  0  0  0  0  0
   21.4356    6.0294   57.5783 C   0  0  0  0  0  0  0  0  0  0  0  0
   22.6856    5.2906   57.4113 N   0  0  0  0  0  0  0  0  0  0  0  0
   23.4347    5.4875   56.1969 C   0  0  0  0  0  0  0  0  0  0  0  0
   23.6085    7.0158   56.0805 C   0  0  0  0  0  0  0  0  0  0  0  0
   21.6629   10.9915   53.4110 C   0  0  0  0  0  0  0  0  0  0  0  0
   21.9810    9.7503   52.8470 C   0  0  0  0  0  0  0  0  0  0  0  0
   22.1864    8.6433   53.6098 C   0  0  0  0  0  0  0  0  0  0  0  0
   22.0920    8.6843   54.9834 C   0  0  0  0  0  0  0  0  0  0  0  0
   21.7815    9.8965   55.5361 C   0  0  0  0  0  0  0  0  0  0  0  0
   21.5634   11.0571   54.7815 C   0  0  0  0  0  0  0  0  0  0  0  0
   22.1715   17.8991   49.3316 C   0  0  0  0  0  0  0  0  0  0  0  0
   21.6949   16.7272   48.5699 C   0  0  0  0  0  0  0  0  0  0  0  0
   22.0273   16.6843   47.3362 O   0  0  0  0  0  0  0  0  0  0  0  0
   20.9233   15.7252   49.1774 N   0  0  0  0  0  0  0  0  0  0  0  0
   20.5760   15.8126   50.5630 C   0  0  0  0  0  0  0  0  0  0  0  0
   21.2171   14.6170   51.2519 C   0  0  0  0  0  0  0  0  0  0  0  0
   20.8740   13.4194   50.5605 N   0  0  0  0  0  0  0  0  0  0  0  0
   20.4051   13.3247   49.2000 C   0  0  0  0  0  0  0  0  0  0  0  0
   20.4548   14.5910   48.4351 C   0  0  0  0  0  0  0  0  0  0  0  0
   21.0104   12.1659   51.2736 C   0  0  0  0  0  0  0  0  0  0  0  0
   20.6910   11.0847   50.6982 O   0  0  0  0  0  0  0  0  0  0  0  0
   21.4881   12.1148   52.5877 N   0  0  0  0  0  0  0  0  0  0  0  0
   21.7575   13.0504   53.0242 H   0  0  0  0  0  0  0  0  0  0  0  0
   23.0889    4.4395   58.4375 C   0  0  0  0  0  0  0  0  0  0  0  0
   23.7446    3.2495   58.1642 C   0  0  0  0  0  0  0  0  0  0  0  0
   24.1562    2.3853   59.1394 C   0  0  0  0  0  0  0  0  0  0  0  0
   23.9158    2.6938   60.5019 C   0  0  0  0  0  0  0  0  0  0  0  0
   23.2708    3.8622   60.8014 C   0  0  0  0  0  0  0  0  0  0  0  0
   22.8773    4.6996   59.7571 C   0  0  0  0  0  0  0  0  0  0  0  0
   24.3635    1.7569   61.4855 C   0  0  0  0  0  0  0  0  0  0  0  0
   25.6662    1.6230   61.5466 O   0  0  0  0  0  0  0  0  0  0  0  0
   23.6654    0.9772   62.3722 N   0  0  0  0  0  0  0  0  0  0  0  0
   24.4867    0.0992   63.2631 C   0  0  0  0  0  0  0  0  0  0  0  0
   23.9177   -1.2910   63.0930 C   0  0  0  0  0  0  0  0  0  0  0  0
   22.5900   -1.3432   63.4755 O   0  0  0  0  0  0  0  0  0  0  0  0
   22.0610   -0.1137   63.7745 C   0  0  0  0  0  0  0  0  0  0  0  0
   22.2707    0.8666   62.5880 C   0  0  0  0  0  0  0  0  0  0  0  0
 13 14  1  0  0  0
 14 15  2  0  0  0
 14 16  1  0  0  0
 16 17  1  0  0  0
 17 18  1  0  0  0
 18 19  1  0  0  0
 19 20  1  0  0  0
 20 21  1  0  0  0
 19 22  1  0  0  0
 22 23  2  0  0  0
 22 24  1  0  0  0
 24  7  1  0  0  0
  7  8  2  0  0  0
  8  9  1  0  0  0
  9 10  2  0  0  0
 10 11  1  0  0  0
 11 12  2  0  0  0
 10  1  1  0  0  0
  1  2  1  0  0  0
  2  3  1  0  0  0
  3  4  1  0  0  0
  4  5  1  0  0  0
  5  6  1  0  0  0
  4 26  1  0  0  0
 26 27  2  0  0  0
 27 28  1  0  0  0
 28 29  2  0  0  0
 29 30  1  0  0  0
 30 31  2  0  0  0
 29 32  1  0  0  0
 32 33  2  0  0  0
 32 34  1  0  0  0
 34 35  1  0  0  0
 35 36  1  0  0  0
 36 37  1  0  0  0
 37 38  1  0  0  0
 38 39  1  0  0  0
 21 16  1  0  0  0
 12  7  1  0  0  0
  6  1  1  0  0  0
 31 26  1  0  0  0
 39 34  1  0  0  0
 24 25  1  0  0  0
M  END
> <minimizedAffinity>
58.91892

> <CNNscore>
0.5082660317

> <CNNaffinity>
5.6102752686

> <CNN_VS>
2.8515124321

> <CNNaffinity_variance>
0.2652360499

$$$$
[H]c1c([H])c(N2C([H])([H])C([H])([H])N(c3c([H])c([H])c(N([H])C(=O)N4C([H])([H])C([H])([H])N(C(=O)C([H])([H])[H])C([H])([H])C4([H])[H])c([H])c3[H])C([H])([H])C2([H])[H])c([H])c([H])c1C(=O)N1C([H])([H])C([H])([H])OC([H])([H])C1([H])[H]


 39 43  0  0  0  0  0  0  0  0999 V2000
   22.4565    6.0790   56.5137 N   0  0  0  0  0  0  0  0  0  0  0  0
   23.2335    5.9735   55.3135 C   0  0  0  0  0  0  0  0  0  0  0  0
   23.2356    7.1971   54.4468 C   0  0  0  0  0  0  0  0  0  0  0  0
   21.9273    7.8484   54.4290 N   0  0  0  0  0  0  0  0  0  0  0  0
   20.8632    7.2576   55.1993 C   0  0  0  0  0  0  0  0  0  0  0  0
   21.4443    7.0932   56.6188 C   0  0  0  0  0  0  0  0  0  0  0  0
   23.2843    3.2812   59.6096 C   0  0  0  0  0  0  0  0  0  0  0  0
   22.4252    4.3681   59.8113 C   0  0  0  0  0  0  0  0  0  0  0  0
   22.1567    5.2671   58.8268 C   0  0  0  0  0  0  0  0  0  0  0  0
   22.7180    5.1560   57.5738 C   0  0  0  0  0  0  0  0  0  0  0  0
   23.5578    4.0947   57.3751 C   0  0  0  0  0  0  0  0  0  0  0  0
   23.8571    3.1496   58.3658 C   0  0  0  0  0  0  0  0  0  0  0  0
   24.1833   -2.9676   64.5854 C   0  0  0  0  0  0  0  0  0  0  0  0
   25.3214   -2.0301   64.5060 C   0  0  0  0  0  0  0  0  0  0  0  0
   26.4847   -2.5443   64.6359 O   0  0  0  0  0  0  0  0  0  0  0  0
   25.1240   -0.6566   64.2986 N   0  0  0  0  0  0  0  0  0  0  0  0
   23.8034   -0.1238   64.1561 C   0  0  0  0  0  0  0  0  0  0  0  0
   23.7185    0.4696   62.7577 C   0  0  0  0  0  0  0  0  0  0  0  0
   24.8135    1.3550   62.5410 N   0  0  0  0  0  0  0  0  0  0  0  0
   26.0526    1.3753   63.2787 C   0  0  0  0  0  0  0  0  0  0  0  0
   26.2296    0.2542   64.2288 C   0  0  0  0  0  0  0  0  0  0  0  0
   24.6925    2.3301   61.4766 C   0  0  0  0  0  0  0  0  0  0  0  0
   25.6360    3.1487   61.2724 O   0  0  0  0  0  0  0  0  0  0  0  0
   23.5562    2.3940   60.6627 N   0  0  0  0  0  0  0  0  0  0  0  0
   22.7950    1.6741   60.8647 H   0  0  0  0  0  0  0  0  0  0  0  0
   21.7802    9.0086   53.6724 C   0  0  0  0  0  0  0  0  0  0  0  0
   21.5679    8.9487   52.3043 C   0  0  0  0  0  0  0  0  0  0  0  0
   21.4196   10.0610   51.5244 C   0  0  0  0  0  0  0  0  0  0  0  0
   21.4805   11.3486   52.1143 C   0  0  0  0  0  0  0  0  0  0  0  0
   21.6887   11.4381   53.4632 C   0  0  0  0  0  0  0  0  0  0  0  0
   21.8319   10.2624   54.2008 C   0  0  0  0  0  0  0  0  0  0  0  0
   21.3218   12.4819   51.2564 C   0  0  0  0  0  0  0  0  0  0  0  0
   21.8266   12.3230   50.0570 O   0  0  0  0  0  0  0  0  0  0  0  0
   20.7342   13.7022   51.4735 N   0  0  0  0  0  0  0  0  0  0  0  0
   20.7606   14.6581   50.3225 C   0  0  0  0  0  0  0  0  0  0  0  0
   21.3525   15.9352   50.8738 C   0  0  0  0  0  0  0  0  0  0  0  0
   20.5769   16.4508   51.8959 O   0  0  0  0  0  0  0  0  0  0  0  0
   19.5487   15.6236   52.2692 C   0  0  0  0  0  0  0  0  0  0  0  0
   20.0937   14.2138   52.6275 C   0  0  0  0  0  0  0  0  0  0  0  0
 13 14  1  0  0  0
 14 15  2  0  0  0
 14 16  1  0  0  0
 16 17  1  0  0  0
 17 18  1  0  0  0
 18 19  1  0  0  0
 19 20  1  0  0  0
 20 21  1  0  0  0
 19 22  1  0  0  0
 22 23  2  0  0  0
 22 24  1  0  0  0
 24  7  1  0  0  0
  7  8  2  0  0  0
  8  9  1  0  0  0
  9 10  2  0  0  0
 10 11  1  0  0  0
 11 12  2  0  0  0
 10  1  1  0  0  0
  1  2  1  0  0  0
  2  3  1  0  0  0
  3  4  1  0  0  0
  4  5  1  0  0  0
  5  6  1  0  0  0
  4 26  1  0  0  0
 26 27  2  0  0  0
 27 28  1  0  0  0
 28 29  2  0  0  0
 29 30  1  0  0  0
 30 31  2  0  0  0
 29 32  1  0  0  0
 32 33  2  0  0  0
 32 34  1  0  0  0
 34 35  1  0  0  0
 35 36  1  0  0  0
 36 37  1  0  0  0
 37 38  1  0  0  0
 38 39  1  0  0  0
 21 16  1  0  0  0
 12  7  1  0  0  0
  6  1  1  0  0  0
 31 26  1  0  0  0
 39 34  1  0  0  0
 24 25  1  0  0  0
M  END
> <minimizedAffinity>
36.12102

> <CNNscore>
0.4682473242

> <CNNaffinity>
5.6694288254

> <CNN_VS>
2.6546947956

> <CNNaffinity_variance>
0.3961020410

$$$$
[H]c1c([H])c(N2C([H])([H])C([H])([H])N(c3c([H])c([H])c(N([H])C(=O)N4C([H])([H])C([H])([H])N(C(=O)C([H])([H])[H])C([H])([H])C4([H])[H])c([H])c3[H])C([H])([H])C2([H])[H])c([H])c([H])c1C(=O)N1C([H])([H])C([H])([H])OC([H])([H])C1([H])[H]


 39 43  0  0  0  0  0  0  0  0999 V2000
   20.6429    7.4347   52.8064 N   0  0  0  0  0  0  0  0  0  0  0  0
   21.6587    6.6649   53.4629 C   0  0  0  0  0  0  0  0  0  0  0  0
   21.5404    5.1796   53.2949 C   0  0  0  0  0  0  0  0  0  0  0  0
   20.1459    4.7428   53.3199 N   0  0  0  0  0  0  0  0  0  0  0  0
   19.1237    5.7416   53.4998 C   0  0  0  0  0  0  0  0  0  0  0  0
   19.4116    6.8038   52.4189 C   0  0  0  0  0  0  0  0  0  0  0  0
   21.4000   11.5725   52.1715 C   0  0  0  0  0  0  0  0  0  0  0  0
   21.0623   10.7165   51.1164 C   0  0  0  0  0  0  0  0  0  0  0  0
   20.8201    9.3925   51.3115 C   0  0  0  0  0  0  0  0  0  0  0  0
   20.8943    8.8208   52.5625 C   0  0  0  0  0  0  0  0  0  0  0  0
   21.2243    9.6558   53.5946 C   0  0  0  0  0  0  0  0  0  0  0  0
   21.4805   11.0239   53.4305 C   0  0  0  0  0  0  0  0  0  0  0  0
   24.5341   18.9113   51.2059 C   0  0  0  0  0  0  0  0  0  0  0  0
   23.6193   18.4495   50.1428 C   0  0  0  0  0  0  0  0  0  0  0  0
   23.8864   18.8479   48.9577 O   0  0  0  0  0  0  0  0  0  0  0  0
   22.5243   17.6206   50.4298 N   0  0  0  0  0  0  0  0  0  0  0  0
   22.2637   17.1964   51.7716 C   0  0  0  0  0  0  0  0  0  0  0  0
   22.3903   15.6802   51.7845 C   0  0  0  0  0  0  0  0  0  0  0  0
   21.5890   15.1194   50.7484 N   0  0  0  0  0  0  0  0  0  0  0  0
   21.0979   15.8103   49.5816 C   0  0  0  0  0  0  0  0  0  0  0  0
   21.6322   17.1784   49.3976 C   0  0  0  0  0  0  0  0  0  0  0  0
   21.2298   13.7202   50.8556 C   0  0  0  0  0  0  0  0  0  0  0  0
   20.4984   13.1956   49.9658 O   0  0  0  0  0  0  0  0  0  0  0  0
   21.6704   12.9267   51.9204 N   0  0  0  0  0  0  0  0  0  0  0  0
   22.2959   13.4105   52.6368 H   0  0  0  0  0  0  0  0  0  0  0  0
   19.8788    3.3847   53.1633 C   0  0  0  0  0  0  0  0  0  0  0  0
   18.5912    2.9315   52.9242 C   0  0  0  0  0  0  0  0  0  0  0  0
   18.2847    1.6093   52.7658 C   0  0  0  0  0  0  0  0  0  0  0  0
   19.3102    0.6338   52.8440 C   0  0  0  0  0  0  0  0  0  0  0  0
   20.5911    1.0524   53.0787 C   0  0  0  0  0  0  0  0  0  0  0  0
   20.8349    2.4177   53.2310 C   0  0  0  0  0  0  0  0  0  0  0  0
   18.9393   -0.7370   52.6738 C   0  0  0  0  0  0  0  0  0  0  0  0
   19.7130   -1.4052   51.8529 O   0  0  0  0  0  0  0  0  0  0  0  0
   17.9161   -1.4691   53.2202 N   0  0  0  0  0  0  0  0  0  0  0  0
   17.8365   -2.9029   52.7993 C   0  0  0  0  0  0  0  0  0  0  0  0
   16.4188   -3.1012   52.3134 C   0  0  0  0  0  0  0  0  0  0  0  0
   15.5018   -2.8544   53.3184 O   0  0  0  0  0  0  0  0  0  0  0  0
   16.0689   -2.3513   54.4612 C   0  0  0  0  0  0  0  0  0  0  0  0
   16.9066   -1.0845   54.1349 C   0  0  0  0  0  0  0  0  0  0  0  0
 13 14  1  0  0  0
 14 15  2  0  0  0
 14 16  1  0  0  0
 16 17  1  0  0  0
 17 18  1  0  0  0
 18 19  1  0  0  0
 19 20  1  0  0  0
 20 21  1  0  0  0
 19 22  1  0  0  0
 22 23  2  0  0  0
 22 24  1  0  0  0
 24  7  1  0  0  0
  7  8  2  0  0  0
  8  9  1  0  0  0
  9 10  2  0  0  0
 10 11  1  0  0  0
 11 12  2  0  0  0
 10  1  1  0  0  0
  1  2  1  0  0  0
  2  3  1  0  0  0
  3  4  1  0  0  0
  4  5  1  0  0  0
  5  6  1  0  0  0
  4 26  1  0  0  0
 26 27  2  0  0  0
 27 28  1  0  0  0
 28 29  2  0  0  0
 29 30  1  0  0  0
 30 31  2  0  0  0
 29 32  1  0  0  0
 32 33  2  0  0  0
 32 34  1  0  0  0
 34 35  1  0  0  0
 35 36  1  0  0  0
 36 37  1  0  0  0
 37 38  1  0  0  0
 38 39  1  0  0  0
 21 16  1  0  0  0
 12  7  1  0  0  0
  6  1  1  0  0  0
 31 26  1  0  0  0
 39 34  1  0  0  0
 24 25  1  0  0  0
M  END
> <minimizedAffinity>
75.15768

> <CNNscore>
0.4480551481

> <CNNaffinity>
5.8437137604

> <CNN_VS>
2.6183059216

> <CNNaffinity_variance>
0.4778331220

$$$$
[H]c1c([H])c(N2C([H])([H])C([H])([H])N(c3c([H])c([H])c(N([H])C(=O)N4C([H])([H])C([H])([H])N(C(=O)C([H])([H])[H])C([H])([H])C4([H])[H])c([H])c3[H])C([H])([H])C2([H])[H])c([H])c([H])c1C(=O)N1C([H])([H])C([H])([H])OC([H])([H])C1([H])[H]


 39 43  0  0  0  0  0  0  0  0999 V2000
   27.5123   10.1648   57.8671 N   0  0  0  0  0  0  0  0  0  0  0  0
   28.1932    9.1725   58.6462 C   0  0  0  0  0  0  0  0  0  0  0  0
   29.0351    9.7088   59.7651 C   0  0  0  0  0  0  0  0  0  0  0  0
   29.7119   10.9473   59.3858 N   0  0  0  0  0  0  0  0  0  0  0  0
   29.4983   11.4592   58.0564 C   0  0  0  0  0  0  0  0  0  0  0  0
   27.9654   11.5279   57.8987 C   0  0  0  0  0  0  0  0  0  0  0  0
   24.1364    9.0029   55.5540 C   0  0  0  0  0  0  0  0  0  0  0  0
   25.3859    8.3934   55.3887 C   0  0  0  0  0  0  0  0  0  0  0  0
   26.4698    8.7603   56.1237 C   0  0  0  0  0  0  0  0  0  0  0  0
   26.3959    9.7551   57.0735 C   0  0  0  0  0  0  0  0  0  0  0  0
   25.1758   10.3519   57.2361 C   0  0  0  0  0  0  0  0  0  0  0  0
   24.0383    9.9997   56.4970 C   0  0  0  0  0  0  0  0  0  0  0  0
   17.0208    7.7551   52.0290 C   0  0  0  0  0  0  0  0  0  0  0  0
   18.1633    7.9897   51.1233 C   0  0  0  0  0  0  0  0  0  0  0  0
   17.9027    8.6123   50.0376 O   0  0  0  0  0  0  0  0  0  0  0  0
   19.4557    7.5505   51.4480 N   0  0  0  0  0  0  0  0  0  0  0  0
   19.7029    6.8588   52.6763 C   0  0  0  0  0  0  0  0  0  0  0  0
   20.6626    7.7230   53.4807 C   0  0  0  0  0  0  0  0  0  0  0  0
   21.7895    8.0680   52.6800 N   0  0  0  0  0  0  0  0  0  0  0  0
   21.8541    8.0355   51.2396 C   0  0  0  0  0  0  0  0  0  0  0  0
   20.5634    7.7725   50.5645 C   0  0  0  0  0  0  0  0  0  0  0  0
   22.9923    8.5033   53.3597 C   0  0  0  0  0  0  0  0  0  0  0  0
   24.0202    8.7938   52.6808 O   0  0  0  0  0  0  0  0  0  0  0  0
   23.0515    8.6130   54.7533 N   0  0  0  0  0  0  0  0  0  0  0  0
   22.1557    8.3709   55.2801 H   0  0  0  0  0  0  0  0  0  0  0  0
   30.5234   11.5700   60.3314 C   0  0  0  0  0  0  0  0  0  0  0  0
   30.4263   12.9312   60.5724 C   0  0  0  0  0  0  0  0  0  0  0  0
   31.2029   13.5822   61.4892 C   0  0  0  0  0  0  0  0  0  0  0  0
   32.1600   12.8579   62.2433 C   0  0  0  0  0  0  0  0  0  0  0  0
   32.2775   11.5124   62.0267 C   0  0  0  0  0  0  0  0  0  0  0  0
   31.4532   10.9102   61.0755 C   0  0  0  0  0  0  0  0  0  0  0  0
   32.9504   13.5839   63.1888 C   0  0  0  0  0  0  0  0  0  0  0  0
   33.3109   12.8846   64.2375 O   0  0  0  0  0  0  0  0  0  0  0  0
   33.3936   14.8820   63.1859 N   0  0  0  0  0  0  0  0  0  0  0  0
   34.2099   15.3000   64.3683 C   0  0  0  0  0  0  0  0  0  0  0  0
   33.5458   16.5528   64.8927 C   0  0  0  0  0  0  0  0  0  0  0  0
   33.5438   17.5581   63.9433 O   0  0  0  0  0  0  0  0  0  0  0  0
   34.0015   17.1493   62.7168 C   0  0  0  0  0  0  0  0  0  0  0  0
   33.2040   15.9085   62.2298 C   0  0  0  0  0  0  0  0  0  0  0  0
 13 14  1  0  0  0
 14 15  2  0  0  0
 14 16  1  0  0  0
 16 17  1  0  0  0
 17 18  1  0  0  0
 18 19  1  0  0  0
 19 20  1  0  0  0
 20 21  1  0  0  0
 19 22  1  0  0  0
 22 23  2  0  0  0
 22 24  1  0  0  0
 24  7  1  0  0  0
  7  8  2  0  0  0
  8  9  1  0  0  0
  9 10  2  0  0  0
 10 11  1  0  0  0
 11 12  2  0  0  0
 10  1  1  0  0  0
  1  2  1  0  0  0
  2  3  1  0  0  0
  3  4  1  0  0  0
  4  5  1  0  0  0
  5  6  1  0  0  0
  4 26  1  0  0  0
 26 27  2  0  0  0
 27 28  1  0  0  0
 28 29  2  0  0  0
 29 30  1  0  0  0
 30 31  2  0  0  0
 29 32  1  0  0  0
 32 33  2  0  0  0
 32 34  1  0  0  0
 34 35  1  0  0  0
 35 36  1  0  0  0
 36 37  1  0  0  0
 37 38  1  0  0  0
 38 39  1  0  0  0
 21 16  1  0  0  0
 12  7  1  0  0  0
  6  1  1  0  0  0
 31 26  1  0  0  0
 39 34  1  0  0  0
 24 25  1  0  0  0
M  END
> <minimizedAffinity>
47.62763

> <CNNscore>
0.4407814145

> <CNNaffinity>
5.4854846001

> <CNN_VS>
2.4178996086

> <CNNaffinity_variance>
0.8019814491

$$$$
[H]c1c([H])c(N2C([H])([H])C([H])([H])N(c3c([H])c([H])c(N([H])C(=O)N4C([H])([H])C([H])([H])N(C(=O)C([H])([H])[H])C([H])([H])C4([H])[H])c([H])c3[H])C([H])([H])C2([H])[H])c([H])c([H])c1C(=O)N1C([H])([H])C([H])([H])OC([H])([H])C1([H])[H]


 39 43  0  0  0  0  0  0  0  0999 V2000
   23.7691   18.4816   50.9550 N   0  0  0  0  0  0  0  0  0  0  0  0
   22.7017   17.5288   50.8646 C   0  0  0  0  0  0  0  0  0  0  0  0
   22.2197   17.2425   49.4739 C   0  0  0  0  0  0  0  0  0  0  0  0
   22.2108   18.4475   48.6468 N   0  0  0  0  0  0  0  0  0  0  0  0
   22.6367   19.6863   49.2457 C   0  0  0  0  0  0  0  0  0  0  0  0
   24.0177   19.3770   49.8592 C   0  0  0  0  0  0  0  0  0  0  0  0
   26.1777   18.5358   54.4611 C   0  0  0  0  0  0  0  0  0  0  0  0
   24.8014   18.7873   54.5107 C   0  0  0  0  0  0  0  0  0  0  0  0
   24.0252   18.7728   53.3940 C   0  0  0  0  0  0  0  0  0  0  0  0
   24.5539   18.5090   52.1497 C   0  0  0  0  0  0  0  0  0  0  0  0
   25.8986   18.2633   52.0994 C   0  0  0  0  0  0  0  0  0  0  0  0
   26.7285   18.2700   53.2288 C   0  0  0  0  0  0  0  0  0  0  0  0
   29.1651   18.2344   61.9176 C   0  0  0  0  0  0  0  0  0  0  0  0
   30.0556   17.7583   60.8401 C   0  0  0  0  0  0  0  0  0  0  0  0
   30.8433   16.7981   61.1436 O   0  0  0  0  0  0  0  0  0  0  0  0
   30.0283   18.3344   59.5611 N   0  0  0  0  0  0  0  0  0  0  0  0
   29.1282   19.4067   59.2643 C   0  0  0  0  0  0  0  0  0  0  0  0
   28.1875   18.9022   58.1800 C   0  0  0  0  0  0  0  0  0  0  0  0
   28.9417   18.3567   57.1013 N   0  0  0  0  0  0  0  0  0  0  0  0
   30.3111   17.9083   57.1591 C   0  0  0  0  0  0  0  0  0  0  0  0
   30.8986   17.8761   58.5174 C   0  0  0  0  0  0  0  0  0  0  0  0
   28.2841   18.2245   55.8173 C   0  0  0  0  0  0  0  0  0  0  0  0
   28.9317   17.7668   54.8308 O   0  0  0  0  0  0  0  0  0  0  0  0
   26.9459   18.5899   55.6346 N   0  0  0  0  0  0  0  0  0  0  0  0
   26.4389   18.9565   56.4989 H   0  0  0  0  0  0  0  0  0  0  0  0
   21.7961   18.3332   47.3220 C   0  0  0  0  0  0  0  0  0  0  0  0
   20.6978   19.0361   46.8527 C   0  0  0  0  0  0  0  0  0  0  0  0
   20.2562   18.9525   45.5623 C   0  0  0  0  0  0  0  0  0  0  0  0
   20.9330   18.1169   44.6385 C   0  0  0  0  0  0  0  0  0  0  0  0
   22.0209   17.4114   45.0738 C   0  0  0  0  0  0  0  0  0  0  0  0
   22.4186   17.5427   46.4048 C   0  0  0  0  0  0  0  0  0  0  0  0
   20.4316   18.0612   43.3001 C   0  0  0  0  0  0  0  0  0  0  0  0
   20.0145   19.2133   42.8340 O   0  0  0  0  0  0  0  0  0  0  0  0
   20.3126   17.0121   42.4245 N   0  0  0  0  0  0  0  0  0  0  0  0
   19.7285   17.3369   41.0856 C   0  0  0  0  0  0  0  0  0  0  0  0
   18.5930   16.3575   40.8940 C   0  0  0  0  0  0  0  0  0  0  0  0
   19.0460   15.0512   40.9052 O   0  0  0  0  0  0  0  0  0  0  0  0
   20.3735   14.9382   41.2304 C   0  0  0  0  0  0  0  0  0  0  0  0
   20.6600   15.6488   42.5816 C   0  0  0  0  0  0  0  0  0  0  0  0
 13 14  1  0  0  0
 14 15  2  0  0  0
 14 16  1  0  0  0
 16 17  1  0  0  0
 17 18  1  0  0  0
 18 19  1  0  0  0
 19 20  1  0  0  0
 20 21  1  0  0  0
 19 22  1  0  0  0
 22 23  2  0  0  0
 22 24  1  0  0  0
 24  7  1  0  0  0
  7  8  2  0  0  0
  8  9  1  0  0  0
  9 10  2  0  0  0
 10 11  1  0  0  0
 11 12  2  0  0  0
 10  1  1  0  0  0
  1  2  1  0  0  0
  2  3  1  0  0  0
  3  4  1  0  0  0
  4  5  1  0  0  0
  5  6  1  0  0  0
  4 26  1  0  0  0
 26 27  2  0  0  0
 27 28  1  0  0  0
 28 29  2  0  0  0
 29 30  1  0  0  0
 30 31  2  0  0  0
 29 32  1  0  0  0
 32 33  2  0  0  0
 32 34  1  0  0  0
 34 35  1  0  0  0
 35 36  1  0  0  0
 36 37  1  0  0  0
 37 38  1  0  0  0
 38 39  1  0  0  0
 21 16  1  0  0  0
 12  7  1  0  0  0
  6  1  1  0  0  0
 31 26  1  0  0  0
 39 34  1  0  0  0
 24 25  1  0  0  0
M  END
> <minimizedAffinity>
2.18043

> <CNNscore>
0.4381004274

> <CNNaffinity>
5.1714906693

> <CNN_VS>
2.2656323910

> <CNNaffinity_variance>
0.0826056004

$$$$
[H]c1c([H])c(N2C([H])([H])C([H])([H])N(c3c([H])c([H])c(N([H])C(=O)N4C([H])([H])C([H])([H])N(C(=O)C([H])([H])[H])C([H])([H])C4([H])[H])c([H])c3[H])C([H])([H])C2([H])[H])c([H])c([H])c1C(=O)N1C([H])([H])C([H])([H])OC([H])([H])C1([H])[H]


 39 43  0  0  0  0  0  0  0  0999 V2000
   22.5340    7.8197   55.5087 N   0  0  0  0  0  0  0  0  0  0  0  0
   21.3536    7.4565   56.2369 C   0  0  0  0  0  0  0  0  0  0  0  0
   21.5816    6.5447   57.4052 C   0  0  0  0  0  0  0  0  0  0  0  0
   22.6132    5.5494   57.1201 N   0  0  0  0  0  0  0  0  0  0  0  0
   23.2372    5.5696   55.8220 C   0  0  0  0  0  0  0  0  0  0  0  0
   23.7222    7.0222   55.6369 C   0  0  0  0  0  0  0  0  0  0  0  0
   22.3677   11.2008   52.9324 C   0  0  0  0  0  0  0  0  0  0  0  0
   22.6741   11.3273   54.2926 C   0  0  0  0  0  0  0  0  0  0  0  0
   22.7280   10.2512   55.1225 C   0  0  0  0  0  0  0  0  0  0  0  0
   22.4829    8.9745   54.6673 C   0  0  0  0  0  0  0  0  0  0  0  0
   22.1832    8.8491   53.3385 C   0  0  0  0  0  0  0  0  0  0  0  0
   22.1188    9.9350   52.4548 C   0  0  0  0  0  0  0  0  0  0  0  0
   22.6098   16.7073   47.0813 C   0  0  0  0  0  0  0  0  0  0  0  0
   21.3807   16.6808   47.8994 C   0  0  0  0  0  0  0  0  0  0  0  0
   20.2943   16.9752   47.2932 O   0  0  0  0  0  0  0  0  0  0  0  0
   21.4167   16.3489   49.2621 N   0  0  0  0  0  0  0  0  0  0  0  0
   22.6557   16.0234   49.9002 C   0  0  0  0  0  0  0  0  0  0  0  0
   22.5389   14.5828   50.3757 C   0  0  0  0  0  0  0  0  0  0  0  0
   21.3439   14.4195   51.1342 N   0  0  0  0  0  0  0  0  0  0  0  0
   20.1897   15.2838   51.1037 C   0  0  0  0  0  0  0  0  0  0  0  0
   20.2234   16.3304   50.0575 C   0  0  0  0  0  0  0  0  0  0  0  0
   21.2581   13.2770   52.0205 C   0  0  0  0  0  0  0  0  0  0  0  0
   20.2210   13.1146   52.7277 O   0  0  0  0  0  0  0  0  0  0  0  0
   22.2942   12.3418   52.1183 N   0  0  0  0  0  0  0  0  0  0  0  0
   23.1407   12.5143   51.4919 H   0  0  0  0  0  0  0  0  0  0  0  0
   22.9422    4.6376   58.1204 C   0  0  0  0  0  0  0  0  0  0  0  0
   22.7870    4.9576   59.4598 C   0  0  0  0  0  0  0  0  0  0  0  0
   23.0982    4.0945   60.4724 C   0  0  0  0  0  0  0  0  0  0  0  0
   23.6044    2.8056   60.1693 C   0  0  0  0  0  0  0  0  0  0  0  0
   23.7676    2.4621   58.8554 C   0  0  0  0  0  0  0  0  0  0  0  0
   23.4303    3.3913   57.8708 C   0  0  0  0  0  0  0  0  0  0  0  0
   23.9174    1.9392   61.2635 C   0  0  0  0  0  0  0  0  0  0  0  0
   25.2015    1.7531   61.4513 O   0  0  0  0  0  0  0  0  0  0  0  0
   23.1067    1.2720   62.1461 N   0  0  0  0  0  0  0  0  0  0  0  0
   23.8025    0.4394   63.1766 C   0  0  0  0  0  0  0  0  0  0  0  0
   23.1783   -0.9336   63.0727 C   0  0  0  0  0  0  0  0  0  0  0  0
   21.8219   -0.8927   63.3383 O   0  0  0  0  0  0  0  0  0  0  0  0
   21.3343    0.3807   63.4857 C   0  0  0  0  0  0  0  0  0  0  0  0
   21.6949    1.2431   62.2451 C   0  0  0  0  0  0  0  0  0  0  0  0
 13 14  1  0  0  0
 14 15  2  0  0  0
 14 16  1  0  0  0
 16 17  1  0  0  0
 17 18  1  0  0  0
 18 19  1  0  0  0
 19 20  1  0  0  0
 20 21  1  0  0  0
 19 22  1  0  0  0
 22 23  2  0  0  0
 22 24  1  0  0  0
 24  7  1  0  0  0
  7  8  2  0  0  0
  8  9  1  0  0  0
  9 10  2  0  0  0
 10 11  1  0  0  0
 11 12  2  0  0  0
 10  1  1  0  0  0
  1  2  1  0  0  0
  2  3  1  0  0  0
  3  4  1  0  0  0
  4  5  1  0  0  0
  5  6  1  0  0  0
  4 26  1  0  0  0
 26 27  2  0  0  0
 27 28  1  0  0  0
 28 29  2  0  0  0
 29 30  1  0  0  0
 30 31  2  0  0  0
 29 32  1  0  0  0
 32 33  2  0  0  0
 32 34  1  0  0  0
 34 35  1  0  0  0
 35 36  1  0  0  0
 36 37  1  0  0  0
 37 38  1  0  0  0
 38 39  1  0  0  0
 21 16  1  0  0  0
 12  7  1  0  0  0
  6  1  1  0  0  0
 31 26  1  0  0  0
 39 34  1  0  0  0
 24 25  1  0  0  0
M  END
> <minimizedAffinity>
64.33310

> <CNNscore>
0.4295283258

> <CNNaffinity>
5.2773365974

> <CNN_VS>
2.2667655945

> <CNNaffinity_variance>
0.2069997042

$$$$
[H]ON([H])C(=O)[C@]1([H])C([H])([H])C([H])([H])[C@@]([H])(N([H])C(=O)c2c([H])c([H])c(OC([H])([H])C(F)(F)F)c([H])c2[H])C([H])([H])C1([H])[H]


 28 29  0  0  0  0  0  0  0  0999 V2000
   23.5711    9.4018   55.6236 N   0  0  0  0  0  0  0  0  0  0  0  0
   24.7972    8.8696   55.2095 C   0  0  0  0  0  0  0  0  0  0  0  0
   24.8393    8.1981   54.1607 O   0  0  0  0  0  0  0  0  0  0  0  0
   23.5146    9.9642   56.4943 H   0  0  0  0  0  0  0  0  0  0  0  0
   22.5310    7.2783   52.7274 C   0  0  0  0  0  0  0  0  0  0  0  0
   23.2720    8.5929   52.7245 C   0  0  0  0  0  0  0  0  0  0  0  0
   22.4202    9.6012   53.4571 C   0  0  0  0  0  0  0  0  0  0  0  0
   22.3212    9.2302   54.9150 C   0  0  0  0  0  0  0  0  0  0  0  0
   21.7422    7.8577   55.0515 C   0  0  0  0  0  0  0  0  0  0  0  0
   22.3399    6.8359   54.1413 C   0  0  0  0  0  0  0  0  0  0  0  0
   18.8236    7.0133   52.1625 O   0  0  0  0  0  0  0  0  0  0  0  0
   20.0349    6.9468   52.7263 N   0  0  0  0  0  0  0  0  0  0  0  0
   21.2058    7.3743   52.0530 C   0  0  0  0  0  0  0  0  0  0  0  0
   21.0824    7.8287   50.8865 O   0  0  0  0  0  0  0  0  0  0  0  0
   18.3136    7.8276   52.4394 H   0  0  0  0  0  0  0  0  0  0  0  0
   20.1032    6.5646   53.6954 H   0  0  0  0  0  0  0  0  0  0  0  0
   26.0132    9.0805   55.9689 C   0  0  0  0  0  0  0  0  0  0  0  0
   27.2680    8.9545   55.4461 C   0  0  0  0  0  0  0  0  0  0  0  0
   28.3723    9.1658   56.2136 C   0  0  0  0  0  0  0  0  0  0  0  0
   28.2352    9.5134   57.5427 C   0  0  0  0  0  0  0  0  0  0  0  0
   26.9942    9.6433   58.0803 C   0  0  0  0  0  0  0  0  0  0  0  0
   25.8816    9.4307   57.3083 C   0  0  0  0  0  0  0  0  0  0  0  0
   29.3603    9.7234   58.3044 O   0  0  0  0  0  0  0  0  0  0  0  0
   29.4048    9.4111   59.6755 C   0  0  0  0  0  0  0  0  0  0  0  0
   29.5702   10.6885   60.4770 C   0  0  0  0  0  0  0  0  0  0  0  0
   30.7316   10.6370   61.2042 F   0  0  0  0  0  0  0  0  0  0  0  0
   28.4876   10.8085   61.3292 F   0  0  0  0  0  0  0  0  0  0  0  0
   29.6159   11.7586   59.6009 F   0  0  0  0  0  0  0  0  0  0  0  0
 11 12  1  0  0  0
 12 13  1  0  0  0
 13 14  2  0  0  0
 13  5  1  0  0  0
  5  6  1  0  0  0
  6  7  1  0  0  0
  7  8  1  0  0  0
  8  9  1  0  0  0
  9 10  1  0  0  0
  8  1  1  0  0  0
  1  2  1  0  0  0
  2  3  2  0  0  0
  2 17  1  0  0  0
 17 18  2  0  0  0
 18 19  1  0  0  0
 19 20  2  0  0  0
 20 23  1  0  0  0
 23 24  1  0  0  0
 24 25  1  0  0  0
 25 26  1  0  0  0
 25 27  1  0  0  0
 25 28  1  0  0  0
 20 21  1  0  0  0
 21 22  2  0  0  0
 10  5  1  0  0  0
 22 17  1  0  0  0
 11 15  1  0  0  0
 12 16  1  0  0  0
  1  4  1  0  0  0
M  END
> <minimizedAffinity>
8.56847

> <CNNscore>
0.5726799965

> <CNNaffinity>
5.6850867271

> <CNN_VS>
3.2557353973

> <CNNaffinity_variance>
0.2203229368

$$$$
[H]ON([H])C(=O)[C@]1([H])C([H])([H])C([H])([H])[C@@]([H])(N([H])C(=O)c2c([H])c([H])c(OC([H])([H])C(F)(F)F)c([H])c2[H])C([H])([H])C1([H])[H]


 28 29  0  0  0  0  0  0  0  0999 V2000
   24.7738    7.5070   54.7318 N   0  0  0  0  0  0  0  0  0  0  0  0
   25.9362    8.1730   54.3277 C   0  0  0  0  0  0  0  0  0  0  0  0
   26.2246    8.2005   53.1158 O   0  0  0  0  0  0  0  0  0  0  0  0
   24.5154    7.4726   55.7366 H   0  0  0  0  0  0  0  0  0  0  0  0
   21.2067    8.0950   53.7783 C   0  0  0  0  0  0  0  0  0  0  0  0
   21.7628    7.4139   55.0047 C   0  0  0  0  0  0  0  0  0  0  0  0
   22.6474    6.2824   54.5396 C   0  0  0  0  0  0  0  0  0  0  0  0
   23.8606    6.8329   53.8342 C   0  0  0  0  0  0  0  0  0  0  0  0
   23.4346    7.6756   52.6740 C   0  0  0  0  0  0  0  0  0  0  0  0
   22.3406    8.6457   52.9768 C   0  0  0  0  0  0  0  0  0  0  0  0
   19.3079    5.0313   52.7098 O   0  0  0  0  0  0  0  0  0  0  0  0
   20.0283    5.8970   53.4317 N   0  0  0  0  0  0  0  0  0  0  0  0
   20.4033    7.1685   52.9319 C   0  0  0  0  0  0  0  0  0  0  0  0
   20.0374    7.4759   51.7683 O   0  0  0  0  0  0  0  0  0  0  0  0
   18.3331    5.0629   52.9303 H   0  0  0  0  0  0  0  0  0  0  0  0
   20.3162    5.6113   54.3936 H   0  0  0  0  0  0  0  0  0  0  0  0
   26.8079    8.8284   55.2819 C   0  0  0  0  0  0  0  0  0  0  0  0
   28.1507    8.9919   55.0980 C   0  0  0  0  0  0  0  0  0  0  0  0
   28.9160    9.6170   56.0344 C   0  0  0  0  0  0  0  0  0  0  0  0
   28.3379   10.0976   57.1924 C   0  0  0  0  0  0  0  0  0  0  0  0
   27.0028    9.9438   57.3926 C   0  0  0  0  0  0  0  0  0  0  0  0
   26.2313    9.3146   56.4503 C   0  0  0  0  0  0  0  0  0  0  0  0
   29.1244   10.7265   58.1282 O   0  0  0  0  0  0  0  0  0  0  0  0
   29.0623   10.4044   59.4963 C   0  0  0  0  0  0  0  0  0  0  0  0
   28.9902   11.6822   60.3109 C   0  0  0  0  0  0  0  0  0  0  0  0
   28.0830   11.5370   61.3288 F   0  0  0  0  0  0  0  0  0  0  0  0
   28.5950   12.7087   59.4726 F   0  0  0  0  0  0  0  0  0  0  0  0
   30.2432   11.9437   60.8369 F   0  0  0  0  0  0  0  0  0  0  0  0
 11 12  1  0  0  0
 12 13  1  0  0  0
 13 14  2  0  0  0
 13  5  1  0  0  0
  5  6  1  0  0  0
  6  7  1  0  0  0
  7  8  1  0  0  0
  8  9  1  0  0  0
  9 10  1  0  0  0
  8  1  1  0  0  0
  1  2  1  0  0  0
  2  3  2  0  0  0
  2 17  1  0  0  0
 17 18  2  0  0  0
 18 19  1  0  0  0
 19 20  2  0  0  0
 20 23  1  0  0  0
 23 24  1  0  0  0
 24 25  1  0  0  0
 25 26  1  0  0  0
 25 27  1  0  0  0
 25 28  1  0  0  0
 20 21  1  0  0  0
 21 22  2  0  0  0
 10  5  1  0  0  0
 22 17  1  0  0  0
 11 15  1  0  0  0
 12 16  1  0  0  0
  1  4  1  0  0  0
M  END
> <minimizedAffinity>
1.58843

> <CNNscore>
0.5637615323

> <CNNaffinity>
5.8446412086

> <CNN_VS>
3.2949838638

> <CNNaffinity_variance>
0.1348322332

$$$$
[H]ON([H])C(=O)[C@]1([H])C([H])([H])C([H])([H])[C@@]([H])(N([H])C(=O)c2c([H])c([H])c(OC([H])([H])C(F)(F)F)c([H])c2[H])C([H])([H])C1([H])[H]


 28 29  0  0  0  0  0  0  0  0999 V2000
   24.2063    8.1310   53.4942 N   0  0  0  0  0  0  0  0  0  0  0  0
   22.8694    8.5202   53.6339 C   0  0  0  0  0  0  0  0  0  0  0  0
   22.6098    9.7216   53.8387 O   0  0  0  0  0  0  0  0  0  0  0  0
   24.4439    7.1351   53.3229 H   0  0  0  0  0  0  0  0  0  0  0  0
   27.2137    8.2996   55.7091 C   0  0  0  0  0  0  0  0  0  0  0  0
   25.8047    8.7658   55.9823 C   0  0  0  0  0  0  0  0  0  0  0  0
   25.4265    9.7442   54.8966 C   0  0  0  0  0  0  0  0  0  0  0  0
   25.3353    9.0328   53.5705 C   0  0  0  0  0  0  0  0  0  0  0  0
   26.6429    8.3789   53.2541 C   0  0  0  0  0  0  0  0  0  0  0  0
   27.2450    7.6105   54.3842 C   0  0  0  0  0  0  0  0  0  0  0  0
   29.7977   10.7373   54.4783 O   0  0  0  0  0  0  0  0  0  0  0  0
   28.9100    9.7377   54.5281 N   0  0  0  0  0  0  0  0  0  0  0  0
   28.1914    9.4240   55.7081 C   0  0  0  0  0  0  0  0  0  0  0  0
   28.4089   10.1198   56.7332 O   0  0  0  0  0  0  0  0  0  0  0  0
   29.4115   11.5773   54.0973 H   0  0  0  0  0  0  0  0  0  0  0  0
   28.7527    9.1793   53.6602 H   0  0  0  0  0  0  0  0  0  0  0  0
   21.7854    7.5626   53.5463 C   0  0  0  0  0  0  0  0  0  0  0  0
   20.5269    7.8753   53.1194 C   0  0  0  0  0  0  0  0  0  0  0  0
   19.5506    6.9284   53.0605 C   0  0  0  0  0  0  0  0  0  0  0  0
   19.8240    5.6281   53.4353 C   0  0  0  0  0  0  0  0  0  0  0  0
   21.0709    5.2985   53.8629 C   0  0  0  0  0  0  0  0  0  0  0  0
   22.0547    6.2512   53.9226 C   0  0  0  0  0  0  0  0  0  0  0  0
   18.8273    4.6835   53.3700 O   0  0  0  0  0  0  0  0  0  0  0  0
   19.0310    3.3513   53.7737 C   0  0  0  0  0  0  0  0  0  0  0  0
   19.1910    2.4731   52.5470 C   0  0  0  0  0  0  0  0  0  0  0  0
   19.4211    3.2515   51.4418 F   0  0  0  0  0  0  0  0  0  0  0  0
   18.0247    1.7496   52.3771 F   0  0  0  0  0  0  0  0  0  0  0  0
   20.2626    1.6212   52.7485 F   0  0  0  0  0  0  0  0  0  0  0  0
 11 12  1  0  0  0
 12 13  1  0  0  0
 13 14  2  0  0  0
 13  5  1  0  0  0
  5  6  1  0  0  0
  6  7  1  0  0  0
  7  8  1  0  0  0
  8  9  1  0  0  0
  9 10  1  0  0  0
  8  1  1  0  0  0
  1  2  1  0  0  0
  2  3  2  0  0  0
  2 17  1  0  0  0
 17 18  2  0  0  0
 18 19  1  0  0  0
 19 20  2  0  0  0
 20 23  1  0  0  0
 23 24  1  0  0  0
 24 25  1  0  0  0
 25 26  1  0  0  0
 25 27  1  0  0  0
 25 28  1  0  0  0
 20 21  1  0  0  0
 21 22  2  0  0  0
 10  5  1  0  0  0
 22 17  1  0  0  0
 11 15  1  0  0  0
 12 16  1  0  0  0
  1  4  1  0  0  0
M  END
> <minimizedAffinity>
19.59396

> <CNNscore>
0.5191715956

> <CNNaffinity>
5.5035457611

> <CNN_VS>
2.8572845459

> <CNNaffinity_variance>
0.2020839006

$$$$
[H]ON([H])C(=O)[C@]1([H])C([H])([H])C([H])([H])[C@@]([H])(N([H])C(=O)c2c([H])c([H])c(OC([H])([H])C(F)(F)F)c([H])c2[H])C([H])([H])C1([H])[H]


 28 29  0  0  0  0  0  0  0  0999 V2000
   26.5781    9.0558   55.6388 N   0  0  0  0  0  0  0  0  0  0  0  0
   25.2457    9.4342   55.8375 C   0  0  0  0  0  0  0  0  0  0  0  0
   25.0025   10.4467   56.5219 O   0  0  0  0  0  0  0  0  0  0  0  0
   26.8021    8.2156   55.0716 H   0  0  0  0  0  0  0  0  0  0  0  0
   28.0446    9.3344   59.0667 C   0  0  0  0  0  0  0  0  0  0  0  0
   26.8644   10.0658   58.4755 C   0  0  0  0  0  0  0  0  0  0  0  0
   27.3402   10.7726   57.2293 C   0  0  0  0  0  0  0  0  0  0  0  0
   27.7205    9.7623   56.1769 C   0  0  0  0  0  0  0  0  0  0  0  0
   28.7872    8.8563   56.7048 C   0  0  0  0  0  0  0  0  0  0  0  0
   28.5321    8.3269   58.0776 C   0  0  0  0  0  0  0  0  0  0  0  0
   30.8401   10.9031   61.0309 O   0  0  0  0  0  0  0  0  0  0  0  0
   29.8349   10.1009   60.6629 N   0  0  0  0  0  0  0  0  0  0  0  0
   29.1582   10.2561   59.4278 C   0  0  0  0  0  0  0  0  0  0  0  0
   29.5292   11.1851   58.6652 O   0  0  0  0  0  0  0  0  0  0  0  0
   31.7385   10.5072   60.8415 H   0  0  0  0  0  0  0  0  0  0  0  0
   29.5512    9.3396   61.3185 H   0  0  0  0  0  0  0  0  0  0  0  0
   24.1476    8.6792   55.2684 C   0  0  0  0  0  0  0  0  0  0  0  0
   24.3092    7.5538   54.5128 C   0  0  0  0  0  0  0  0  0  0  0  0
   23.2349    6.8892   54.0054 C   0  0  0  0  0  0  0  0  0  0  0  0
   21.9568    7.3498   54.2512 C   0  0  0  0  0  0  0  0  0  0  0  0
   21.7767    8.4683   55.0011 C   0  0  0  0  0  0  0  0  0  0  0  0
   22.8577    9.1383   55.5125 C   0  0  0  0  0  0  0  0  0  0  0  0
   20.8824    6.6673   53.7317 O   0  0  0  0  0  0  0  0  0  0  0  0
   20.6583    6.5668   52.3464 C   0  0  0  0  0  0  0  0  0  0  0  0
   20.8246    7.9338   51.7098 C   0  0  0  0  0  0  0  0  0  0  0  0
   20.0187    8.8451   52.3425 F   0  0  0  0  0  0  0  0  0  0  0  0
   20.4679    7.8373   50.3771 F   0  0  0  0  0  0  0  0  0  0  0  0
   22.1480    8.3200   51.8287 F   0  0  0  0  0  0  0  0  0  0  0  0
 11 12  1  0  0  0
 12 13  1  0  0  0
 13 14  2  0  0  0
 13  5  1  0  0  0
  5  6  1  0  0  0
  6  7  1  0  0  0
  7  8  1  0  0  0
  8  9  1  0  0  0
  9 10  1  0  0  0
  8  1  1  0  0  0
  1  2  1  0  0  0
  2  3  2  0  0  0
  2 17  1  0  0  0
 17 18  2  0  0  0
 18 19  1  0  0  0
 19 20  2  0  0  0
 20 23  1  0  0  0
 23 24  1  0  0  0
 24 25  1  0  0  0
 25 26  1  0  0  0
 25 27  1  0  0  0
 25 28  1  0  0  0
 20 21  1  0  0  0
 21 22  2  0  0  0
 10  5  1  0  0  0
 22 17  1  0  0  0
 11 15  1  0  0  0
 12 16  1  0  0  0
  1  4  1  0  0  0
M  END
> <minimizedAffinity>
13.57615

> <CNNscore>
0.5086849928

> <CNNaffinity>
5.3818583488

> <CNN_VS>
2.7376706600

> <CNNaffinity_variance>
0.3164382875

$$$$
[H]ON([H])C(=O)[C@]1([H])C([H])([H])C([H])([H])[C@@]([H])(N([H])C(=O)c2c([H])c([H])c(OC([H])([H])C(F)(F)F)c([H])c2[H])C([H])([H])C1([H])[H]


 28 29  0  0  0  0  0  0  0  0999 V2000
   24.0560    8.0576   53.5541 N   0  0  0  0  0  0  0  0  0  0  0  0
   22.7038    8.3560   53.7553 C   0  0  0  0  0  0  0  0  0  0  0  0
   22.3854    9.5131   54.0909 O   0  0  0  0  0  0  0  0  0  0  0  0
   24.3422    7.0999   53.2740 H   0  0  0  0  0  0  0  0  0  0  0  0
   27.0616    8.1889   55.7741 C   0  0  0  0  0  0  0  0  0  0  0  0
   25.6316    8.5555   56.0875 C   0  0  0  0  0  0  0  0  0  0  0  0
   25.1980    9.6038   55.0915 C   0  0  0  0  0  0  0  0  0  0  0  0
   25.1372    9.0069   53.7084 C   0  0  0  0  0  0  0  0  0  0  0  0
   26.4753    8.4519   53.3356 C   0  0  0  0  0  0  0  0  0  0  0  0
   27.1220    7.6204   54.3941 C   0  0  0  0  0  0  0  0  0  0  0  0
   28.8209   11.1954   57.1881 O   0  0  0  0  0  0  0  0  0  0  0  0
   28.0139   10.1369   57.0541 N   0  0  0  0  0  0  0  0  0  0  0  0
   27.9797    9.3584   55.8709 C   0  0  0  0  0  0  0  0  0  0  0  0
   28.7407    9.6891   54.9255 O   0  0  0  0  0  0  0  0  0  0  0  0
   29.6661   10.9766   57.6756 H   0  0  0  0  0  0  0  0  0  0  0  0
   27.3947    9.8891   57.8571 H   0  0  0  0  0  0  0  0  0  0  0  0
   21.6702    7.3550   53.5831 C   0  0  0  0  0  0  0  0  0  0  0  0
   20.3784    7.6450   53.2501 C   0  0  0  0  0  0  0  0  0  0  0  0
   19.4531    6.6573   53.1037 C   0  0  0  0  0  0  0  0  0  0  0  0
   19.8134    5.3378   53.2919 C   0  0  0  0  0  0  0  0  0  0  0  0
   21.0946    5.0304   53.6237 C   0  0  0  0  0  0  0  0  0  0  0  0
   22.0271    6.0242   53.7714 C   0  0  0  0  0  0  0  0  0  0  0  0
   18.8673    4.3521   53.1402 O   0  0  0  0  0  0  0  0  0  0  0  0
   18.3242    3.6605   54.2385 C   0  0  0  0  0  0  0  0  0  0  0  0
   16.8360    3.9424   54.3243 C   0  0  0  0  0  0  0  0  0  0  0  0
   16.1536    3.1154   53.4695 F   0  0  0  0  0  0  0  0  0  0  0  0
   16.6240    5.2623   53.9697 F   0  0  0  0  0  0  0  0  0  0  0  0
   16.4167    3.7183   55.6238 F   0  0  0  0  0  0  0  0  0  0  0  0
 11 12  1  0  0  0
 12 13  1  0  0  0
 13 14  2  0  0  0
 13  5  1  0  0  0
  5  6  1  0  0  0
  6  7  1  0  0  0
  7  8  1  0  0  0
  8  9  1  0  0  0
  9 10  1  0  0  0
  8  1  1  0  0  0
  1  2  1  0  0  0
  2  3  2  0  0  0
  2 17  1  0  0  0
 17 18  2  0  0  0
 18 19  1  0  0  0
 19 20  2  0  0  0
 20 23  1  0  0  0
 23 24  1  0  0  0
 24 25  1  0  0  0
 25 26  1  0  0  0
 25 27  1  0  0  0
 25 28  1  0  0  0
 20 21  1  0  0  0
 21 22  2  0  0  0
 10  5  1  0  0  0
 22 17  1  0  0  0
 11 15  1  0  0  0
 12 16  1  0  0  0
  1  4  1  0  0  0
M  END
> <minimizedAffinity>
12.51227

> <CNNscore>
0.4989775419

> <CNNaffinity>
5.6056222916

> <CNN_VS>
2.7970795631

> <CNNaffinity_variance>
0.3090806901

$$$$
[H]ON([H])C(=O)[C@]1([H])C([H])([H])C([H])([H])[C@@]([H])(N([H])C(=O)c2c([H])c([H])c(OC([H])([H])C(F)(F)F)c([H])c2[H])C([H])([H])C1([H])[H]


 28 29  0  0  0  0  0  0  0  0999 V2000
   27.7417    8.8988   56.9255 N   0  0  0  0  0  0  0  0  0  0  0  0
   26.7351    9.7076   56.3863 C   0  0  0  0  0  0  0  0  0  0  0  0
   26.8316   10.9449   56.4980 O   0  0  0  0  0  0  0  0  0  0  0  0
   27.6804    7.8658   56.8429 H   0  0  0  0  0  0  0  0  0  0  0  0
   28.3604   10.0363   60.4330 C   0  0  0  0  0  0  0  0  0  0  0  0
   27.7353   10.7909   59.2853 C   0  0  0  0  0  0  0  0  0  0  0  0
   28.7258   10.7962   58.1460 C   0  0  0  0  0  0  0  0  0  0  0  0
   28.9110    9.3965   57.6175 C   0  0  0  0  0  0  0  0  0  0  0  0
   29.3812    8.4969   58.7162 C   0  0  0  0  0  0  0  0  0  0  0  0
   28.6275    8.6324   59.9982 C   0  0  0  0  0  0  0  0  0  0  0  0
   30.8752   12.6825   61.3315 O   0  0  0  0  0  0  0  0  0  0  0  0
   29.7561   12.0740   60.9228 N   0  0  0  0  0  0  0  0  0  0  0  0
   29.6298   10.6631   60.8975 C   0  0  0  0  0  0  0  0  0  0  0  0
   30.6135    9.9763   61.2756 O   0  0  0  0  0  0  0  0  0  0  0  0
   30.8268   12.9783   62.2855 H   0  0  0  0  0  0  0  0  0  0  0  0
   28.9581   12.6726   60.6154 H   0  0  0  0  0  0  0  0  0  0  0  0
   25.5885    9.1417   55.7044 C   0  0  0  0  0  0  0  0  0  0  0  0
   24.3014    9.5432   55.9189 C   0  0  0  0  0  0  0  0  0  0  0  0
   23.2664    8.9702   55.2454 C   0  0  0  0  0  0  0  0  0  0  0  0
   23.5081    7.9667   54.3286 C   0  0  0  0  0  0  0  0  0  0  0  0
   24.7827    7.5542   54.1021 C   0  0  0  0  0  0  0  0  0  0  0  0
   25.8257    8.1305   54.7797 C   0  0  0  0  0  0  0  0  0  0  0  0
   22.4520    7.3983   53.6566 O   0  0  0  0  0  0  0  0  0  0  0  0
   21.2404    8.0832   53.4502 C   0  0  0  0  0  0  0  0  0  0  0  0
   21.4265    9.1146   52.3534 C   0  0  0  0  0  0  0  0  0  0  0  0
   22.6797    8.9974   51.8094 F   0  0  0  0  0  0  0  0  0  0  0  0
   21.2718   10.3713   52.9097 F   0  0  0  0  0  0  0  0  0  0  0  0
   20.4717    8.8986   51.3754 F   0  0  0  0  0  0  0  0  0  0  0  0
 11 12  1  0  0  0
 12 13  1  0  0  0
 13 14  2  0  0  0
 13  5  1  0  0  0
  5  6  1  0  0  0
  6  7  1  0  0  0
  7  8  1  0  0  0
  8  9  1  0  0  0
  9 10  1  0  0  0
  8  1  1  0  0  0
  1  2  1  0  0  0
  2  3  2  0  0  0
  2 17  1  0  0  0
 17 18  2  0  0  0
 18 19  1  0  0  0
 19 20  2  0  0  0
 20 23  1  0  0  0
 23 24  1  0  0  0
 24 25  1  0  0  0
 25 26  1  0  0  0
 25 27  1  0  0  0
 25 28  1  0  0  0
 20 21  1  0  0  0
 21 22  2  0  0  0
 10  5  1  0  0  0
 22 17  1  0  0  0
 11 15  1  0  0  0
 12 16  1  0  0  0
  1  4  1  0  0  0
M  END
> <minimizedAffinity>
9.10757

> <CNNscore>
0.4810847044

> <CNNaffinity>
5.3433556557

> <CNN_VS>
2.5706067085

> <CNNaffinity_variance>
0.1788164526

$$$$
[H]ON([H])C(=O)[C@]1([H])C([H])([H])C([H])([H])[C@@]([H])(N([H])C(=O)c2c([H])c([H])c(OC([H])([H])C(F)(F)F)c([H])c2[H])C([H])([H])C1([H])[H]


 28 29  0  0  0  0  0  0  0  0999 V2000
   25.3100    7.8664   54.1137 N   0  0  0  0  0  0  0  0  0  0  0  0
   25.1959    8.8179   55.1334 C   0  0  0  0  0  0  0  0  0  0  0  0
   24.1486    9.4878   55.2182 O   0  0  0  0  0  0  0  0  0  0  0  0
   26.1741    7.2978   54.0259 H   0  0  0  0  0  0  0  0  0  0  0  0
   21.5855    7.5898   54.2896 C   0  0  0  0  0  0  0  0  0  0  0  0
   22.6329    6.5656   54.6521 C   0  0  0  0  0  0  0  0  0  0  0  0
   23.4986    6.3443   53.4353 C   0  0  0  0  0  0  0  0  0  0  0  0
   24.2859    7.5929   53.1287 C   0  0  0  0  0  0  0  0  0  0  0  0
   23.3521    8.7400   52.9056 C   0  0  0  0  0  0  0  0  0  0  0  0
   22.2672    8.8676   53.9238 C   0  0  0  0  0  0  0  0  0  0  0  0
   19.8870    7.5636   50.9358 O   0  0  0  0  0  0  0  0  0  0  0  0
   20.6450    7.9232   51.9778 N   0  0  0  0  0  0  0  0  0  0  0  0
   20.7255    7.1432   53.1578 C   0  0  0  0  0  0  0  0  0  0  0  0
   20.0545    6.0805   53.2088 O   0  0  0  0  0  0  0  0  0  0  0  0
   20.4090    7.0964   50.2223 H   0  0  0  0  0  0  0  0  0  0  0  0
   21.1894    8.8108   51.9036 H   0  0  0  0  0  0  0  0  0  0  0  0
   26.2628    9.0411   56.0883 C   0  0  0  0  0  0  0  0  0  0  0  0
   26.0605    9.2241   57.4259 C   0  0  0  0  0  0  0  0  0  0  0  0
   27.1069    9.4303   58.2719 C   0  0  0  0  0  0  0  0  0  0  0  0
   28.3976    9.4570   57.7827 C   0  0  0  0  0  0  0  0  0  0  0  0
   28.6181    9.2767   56.4543 C   0  0  0  0  0  0  0  0  0  0  0  0
   27.5652    9.0691   55.6015 C   0  0  0  0  0  0  0  0  0  0  0  0
   29.4435    9.6662   58.6502 O   0  0  0  0  0  0  0  0  0  0  0  0
   29.2503    9.7975   60.0376 C   0  0  0  0  0  0  0  0  0  0  0  0
   29.2155   11.2694   60.4033 C   0  0  0  0  0  0  0  0  0  0  0  0
   28.9705   12.0233   59.2844 F   0  0  0  0  0  0  0  0  0  0  0  0
   30.4432   11.6115   60.9404 F   0  0  0  0  0  0  0  0  0  0  0  0
   28.2092   11.4718   61.3313 F   0  0  0  0  0  0  0  0  0  0  0  0
 11 12  1  0  0  0
 12 13  1  0  0  0
 13 14  2  0  0  0
 13  5  1  0  0  0
  5  6  1  0  0  0
  6  7  1  0  0  0
  7  8  1  0  0  0
  8  9  1  0  0  0
  9 10  1  0  0  0
  8  1  1  0  0  0
  1  2  1  0  0  0
  2  3  2  0  0  0
  2 17  1  0  0  0
 17 18  2  0  0  0
 18 19  1  0  0  0
 19 20  2  0  0  0
 20 23  1  0  0  0
 23 24  1  0  0  0
 24 25  1  0  0  0
 25 26  1  0  0  0
 25 27  1  0  0  0
 25 28  1  0  0  0
 20 21  1  0  0  0
 21 22  2  0  0  0
 10  5  1  0  0  0
 22 17  1  0  0  0
 11 15  1  0  0  0
 12 16  1  0  0  0
  1  4  1  0  0  0
M  END
> <minimizedAffinity>
5.04337

> <CNNscore>
0.4710224867

> <CNNaffinity>
5.6597166061

> <CNN_VS>
2.6658537388

> <CNNaffinity_variance>
0.1242924780

$$$$
[H]ON([H])C(=O)[C@]1([H])C([H])([H])C([H])([H])[C@@]([H])(N([H])C(=O)c2c([H])c([H])c(OC([H])([H])C(F)(F)F)c([H])c2[H])C([H])([H])C1([H])[H]


 28 29  0  0  0  0  0  0  0  0999 V2000
   20.1754    5.7184   53.1605 N   0  0  0  0  0  0  0  0  0  0  0  0
   20.8389    6.8757   52.7381 C   0  0  0  0  0  0  0  0  0  0  0  0
   20.3312    7.5649   51.8326 O   0  0  0  0  0  0  0  0  0  0  0  0
   20.5814    5.1304   53.9137 H   0  0  0  0  0  0  0  0  0  0  0  0
   17.2202    3.9818   54.6539 C   0  0  0  0  0  0  0  0  0  0  0  0
   18.5423    3.4012   54.2153 C   0  0  0  0  0  0  0  0  0  0  0  0
   18.7407    3.7585   52.7621 C   0  0  0  0  0  0  0  0  0  0  0  0
   18.9193    5.2485   52.6172 C   0  0  0  0  0  0  0  0  0  0  0  0
   17.7263    5.9593   53.1732 C   0  0  0  0  0  0  0  0  0  0  0  0
   17.2743    5.4675   54.5088 C   0  0  0  0  0  0  0  0  0  0  0  0
   14.0264    3.8897   52.6729 O   0  0  0  0  0  0  0  0  0  0  0  0
   15.0713    4.3234   53.3868 N   0  0  0  0  0  0  0  0  0  0  0  0
   16.0768    3.4462   53.8628 C   0  0  0  0  0  0  0  0  0  0  0  0
   15.9661    2.2220   53.5953 O   0  0  0  0  0  0  0  0  0  0  0  0
   14.1584    4.0031   51.6882 H   0  0  0  0  0  0  0  0  0  0  0  0
   15.1337    5.3451   53.5917 H   0  0  0  0  0  0  0  0  0  0  0  0
   22.0970    7.2889   53.3268 C   0  0  0  0  0  0  0  0  0  0  0  0
   22.3051    8.5124   53.8954 C   0  0  0  0  0  0  0  0  0  0  0  0
   23.5126    8.8404   54.4317 C   0  0  0  0  0  0  0  0  0  0  0  0
   24.5511    7.9311   54.4067 C   0  0  0  0  0  0  0  0  0  0  0  0
   24.3623    6.7085   53.8448 C   0  0  0  0  0  0  0  0  0  0  0  0
   23.1468    6.3772   53.3045 C   0  0  0  0  0  0  0  0  0  0  0  0
   25.7644    8.2776   54.9525 O   0  0  0  0  0  0  0  0  0  0  0  0
   26.8834    8.5830   54.1562 C   0  0  0  0  0  0  0  0  0  0  0  0
   28.0842    8.8297   55.0501 C   0  0  0  0  0  0  0  0  0  0  0  0
   27.6662    9.1678   56.3115 F   0  0  0  0  0  0  0  0  0  0  0  0
   28.8231    9.8649   54.5070 F   0  0  0  0  0  0  0  0  0  0  0  0
   28.8414    7.6727   55.1043 F   0  0  0  0  0  0  0  0  0  0  0  0
 11 12  1  0  0  0
 12 13  1  0  0  0
 13 14  2  0  0  0
 13  5  1  0  0  0
  5  6  1  0  0  0
  6  7  1  0  0  0
  7  8  1  0  0  0
  8  9  1  0  0  0
  9 10  1  0  0  0
  8  1  1  0  0  0
  1  2  1  0  0  0
  2  3  2  0  0  0
  2 17  1  0  0  0
 17 18  2  0  0  0
 18 19  1  0  0  0
 19 20  2  0  0  0
 20 23  1  0  0  0
 23 24  1  0  0  0
 24 25  1  0  0  0
 25 26  1  0  0  0
 25 27  1  0  0  0
 25 28  1  0  0  0
 20 21  1  0  0  0
 21 22  2  0  0  0
 10  5  1  0  0  0
 22 17  1  0  0  0
 11 15  1  0  0  0
 12 16  1  0  0  0
  1  4  1  0  0  0
M  END
> <minimizedAffinity>
15.17187

> <CNNscore>
0.4620486200

> <CNNaffinity>
5.7659101486

> <CNN_VS>
2.6641309261

> <CNNaffinity_variance>
0.4223259985

$$$$
[H]ON([H])C(=O)[C@]1([H])C([H])([H])C([H])([H])[C@@]([H])(N([H])C(=O)c2c([H])c([H])c(OC([H])([H])C(F)(F)F)c([H])c2[H])C([H])([H])C1([H])[H]


 28 29  0  0  0  0  0  0  0  0999 V2000
   21.7250    7.4074   52.9440 N   0  0  0  0  0  0  0  0  0  0  0  0
   21.4409    6.1165   53.4034 C   0  0  0  0  0  0  0  0  0  0  0  0
   22.3864    5.3467   53.6606 O   0  0  0  0  0  0  0  0  0  0  0  0
   20.9518    8.0643   52.7243 H   0  0  0  0  0  0  0  0  0  0  0  0
   24.7271    7.7212   55.1504 C   0  0  0  0  0  0  0  0  0  0  0  0
   23.5067    8.6057   55.0743 C   0  0  0  0  0  0  0  0  0  0  0  0
   23.3782    9.0887   53.6498 C   0  0  0  0  0  0  0  0  0  0  0  0
   23.0587    7.9302   52.7395 C   0  0  0  0  0  0  0  0  0  0  0  0
   24.1291    6.8907   52.8457 C   0  0  0  0  0  0  0  0  0  0  0  0
   24.5315    6.5509   54.2430 C   0  0  0  0  0  0  0  0  0  0  0  0
   27.6527    8.8822   53.0946 O   0  0  0  0  0  0  0  0  0  0  0  0
   26.5357    8.2565   53.4823 N   0  0  0  0  0  0  0  0  0  0  0  0
   25.9736    8.4431   54.7693 C   0  0  0  0  0  0  0  0  0  0  0  0
   26.5586    9.2272   55.5601 O   0  0  0  0  0  0  0  0  0  0  0  0
   27.4672    9.7040   52.5560 H   0  0  0  0  0  0  0  0  0  0  0  0
   26.0745    7.6124   52.8025 H   0  0  0  0  0  0  0  0  0  0  0  0
   20.0788    5.6568   53.5859 C   0  0  0  0  0  0  0  0  0  0  0  0
   19.7385    4.3520   53.7986 C   0  0  0  0  0  0  0  0  0  0  0  0
   18.4381    3.9838   53.9622 C   0  0  0  0  0  0  0  0  0  0  0  0
   17.4383    4.9347   53.9145 C   0  0  0  0  0  0  0  0  0  0  0  0
   17.7583    6.2382   53.7036 C   0  0  0  0  0  0  0  0  0  0  0  0
   19.0674    6.6100   53.5388 C   0  0  0  0  0  0  0  0  0  0  0  0
   16.1301    4.5468   54.0816 O   0  0  0  0  0  0  0  0  0  0  0  0
   15.7773    3.2242   54.4067 C   0  0  0  0  0  0  0  0  0  0  0  0
   15.5270    2.4425   53.1307 C   0  0  0  0  0  0  0  0  0  0  0  0
   16.7053    2.2666   52.4517 F   0  0  0  0  0  0  0  0  0  0  0  0
   14.6382    3.1596   52.3507 F   0  0  0  0  0  0  0  0  0  0  0  0
   14.9923    1.2104   53.4635 F   0  0  0  0  0  0  0  0  0  0  0  0
 11 12  1  0  0  0
 12 13  1  0  0  0
 13 14  2  0  0  0
 13  5  1  0  0  0
  5  6  1  0  0  0
  6  7  1  0  0  0
  7  8  1  0  0  0
  8  9  1  0  0  0
  9 10  1  0  0  0
  8  1  1  0  0  0
  1  2  1  0  0  0
  2  3  2  0  0  0
  2 17  1  0  0  0
 17 18  2  0  0  0
 18 19  1  0  0  0
 19 20  2  0  0  0
 20 23  1  0  0  0
 23 24  1  0  0  0
 24 25  1  0  0  0
 25 26  1  0  0  0
 25 27  1  0  0  0
 25 28  1  0  0  0
 20 21  1  0  0  0
 21 22  2  0  0  0
 10  5  1  0  0  0
 22 17  1  0  0  0
 11 15  1  0  0  0
 12 16  1  0  0  0
  1  4  1  0  0  0
M  END
> <minimizedAffinity>
18.84492

> <CNNscore>
0.4543565810

> <CNNaffinity>
5.7700185776

> <CNN_VS>
2.6216459274

> <CNNaffinity_variance>
0.5868995786

$$$$
[H]c1c([H])c(C(F)(F)F)c([H])c([H])c1-c1c([H])c([H])c([C@]([H])(N([H])[C@]([H])(C(=O)N([H])C([H])([H])C#N)C([H])([H])C([H])(C([H])([H])[H])C([H])([H])[H])C(F)(F)F)c([H])c1[H]


 35 36  0  0  0  0  0  0  0  0999 V2000
   24.5270    7.6707   53.1185 C   0  0  0  0  0  0  0  0  0  0  0  0
   25.4531    8.2411   54.1849 C   0  0  0  0  0  0  0  0  0  0  0  0
   24.8578    8.7901   55.2982 C   0  0  0  0  0  0  0  0  0  0  0  0
   25.6369    9.2713   56.3581 C   0  0  0  0  0  0  0  0  0  0  0  0
   27.0094    9.1979   56.2955 C   0  0  0  0  0  0  0  0  0  0  0  0
   27.5693    8.6498   55.1737 C   0  0  0  0  0  0  0  0  0  0  0  0
   26.8069    8.1685   54.1110 C   0  0  0  0  0  0  0  0  0  0  0  0
   27.8298    9.6402   57.4111 C   0  0  0  0  0  0  0  0  0  0  0  0
   28.1897   10.9343   57.6019 C   0  0  0  0  0  0  0  0  0  0  0  0
   28.9389   11.2785   58.7257 C   0  0  0  0  0  0  0  0  0  0  0  0
   29.3398   10.3578   59.6688 C   0  0  0  0  0  0  0  0  0  0  0  0
   28.9654    9.0337   59.4609 C   0  0  0  0  0  0  0  0  0  0  0  0
   28.2279    8.6792   58.3589 C   0  0  0  0  0  0  0  0  0  0  0  0
   30.1262   10.7018   60.8872 C   0  0  0  0  0  0  0  0  0  0  0  0
   31.2696   11.4135   60.5416 F   0  0  0  0  0  0  0  0  0  0  0  0
   30.5533    9.5146   61.4828 F   0  0  0  0  0  0  0  0  0  0  0  0
   29.3287   11.4382   61.7175 F   0  0  0  0  0  0  0  0  0  0  0  0
   24.1572    6.2909   53.5154 C   0  0  0  0  0  0  0  0  0  0  0  0
   22.8763    5.9679   52.9433 F   0  0  0  0  0  0  0  0  0  0  0  0
   24.9715    5.3272   52.9501 F   0  0  0  0  0  0  0  0  0  0  0  0
   23.9326    6.0726   54.8457 F   0  0  0  0  0  0  0  0  0  0  0  0
   23.5687    8.5329   52.6911 N   0  0  0  0  0  0  0  0  0  0  0  0
   24.0034    9.4038   52.1749 H   0  0  0  0  0  0  0  0  0  0  0  0
   22.2523    8.7782   53.0218 C   0  0  0  0  0  0  0  0  0  0  0  0
   21.2143    7.9492   52.3350 C   0  0  0  0  0  0  0  0  0  0  0  0
   20.8248    8.0068   51.1751 O   0  0  0  0  0  0  0  0  0  0  0  0
   20.5530    6.9182   53.1225 N   0  0  0  0  0  0  0  0  0  0  0  0
   20.8283    6.7614   54.1208 H   0  0  0  0  0  0  0  0  0  0  0  0
   19.5347    6.0723   52.5666 C   0  0  0  0  0  0  0  0  0  0  0  0
   19.5503    4.7824   53.3161 C   0  0  0  0  0  0  0  0  0  0  0  0
   19.5387    3.7866   53.9035 N   0  0  0  0  0  0  0  0  0  0  0  0
   21.8348   10.1197   53.4654 C   0  0  0  0  0  0  0  0  0  0  0  0
   22.6509   10.4824   55.6822 C   0  0  0  0  0  0  0  0  0  0  0  0
   21.3522   10.4375   54.8076 C   0  0  0  0  0  0  0  0  0  0  0  0
   20.5828    9.2814   55.4667 C   0  0  0  0  0  0  0  0  0  0  0  0
 33 34  1  0  0  0
 34 35  1  0  0  0
 34 32  1  0  0  0
 32 24  1  0  0  0
 24 22  1  0  0  0
 22  1  1  0  0  0
  1  2  1  0  0  0
  2  3  2  0  0  0
  3  4  1  0  0  0
  4  5  2  0  0  0
  5  6  1  0  0  0
  6  7  2  0  0  0
  5  8  1  0  0  0
  8  9  2  0  0  0
  9 10  1  0  0  0
 10 11  2  0  0  0
 11 12  1  0  0  0
 12 13  2  0  0  0
 11 14  1  0  0  0
 14 15  1  0  0  0
 14 16  1  0  0  0
 14 17  1  0  0  0
  1 18  1  0  0  0
 18 19  1  0  0  0
 18 20  1  0  0  0
 18 21  1  0  0  0
 24 25  1  0  0  0
 25 26  2  0  0  0
 25 27  1  0  0  0
 27 29  1  0  0  0
 29 30  1  0  0  0
 30 31  3  0  0  0
  7  2  1  0  0  0
 13  8  1  0  0  0
 22 23  1  0  0  0
 27 28  1  0  0  0
M  END
> <minimizedAffinity>
3.55479

> <CNNscore>
0.5473426580

> <CNNaffinity>
6.5961141586

> <CNN_VS>
3.6103346348

> <CNNaffinity_variance>
0.2649725378

$$$$
[H]c1c([H])c(C(F)(F)F)c([H])c([H])c1-c1c([H])c([H])c([C@]([H])(N([H])[C@]([H])(C(=O)N([H])C([H])([H])C#N)C([H])([H])C([H])(C([H])([H])[H])C([H])([H])[H])C(F)(F)F)c([H])c1[H]


 35 36  0  0  0  0  0  0  0  0999 V2000
   23.2195    9.3713   54.5632 C   0  0  0  0  0  0  0  0  0  0  0  0
   22.1525    8.3331   54.2405 C   0  0  0  0  0  0  0  0  0  0  0  0
   22.1422    7.1908   55.0089 C   0  0  0  0  0  0  0  0  0  0  0  0
   21.1505    6.2187   54.8261 C   0  0  0  0  0  0  0  0  0  0  0  0
   20.1738    6.3986   53.8740 C   0  0  0  0  0  0  0  0  0  0  0  0
   20.2148    7.5432   53.1252 C   0  0  0  0  0  0  0  0  0  0  0  0
   21.1961    8.5180   53.2947 C   0  0  0  0  0  0  0  0  0  0  0  0
   19.1051    5.4266   53.7114 C   0  0  0  0  0  0  0  0  0  0  0  0
   19.3270    4.1185   53.4284 C   0  0  0  0  0  0  0  0  0  0  0  0
   18.2452    3.2444   53.3366 C   0  0  0  0  0  0  0  0  0  0  0  0
   16.9405    3.6460   53.5212 C   0  0  0  0  0  0  0  0  0  0  0  0
   16.7262    4.9905   53.8097 C   0  0  0  0  0  0  0  0  0  0  0  0
   17.7812    5.8635   53.9032 C   0  0  0  0  0  0  0  0  0  0  0  0
   15.7679    2.7292   53.4455 C   0  0  0  0  0  0  0  0  0  0  0  0
   14.6922    3.3668   52.8373 F   0  0  0  0  0  0  0  0  0  0  0  0
   15.3705    2.4176   54.7462 F   0  0  0  0  0  0  0  0  0  0  0  0
   16.1372    1.6195   52.7387 F   0  0  0  0  0  0  0  0  0  0  0  0
   22.5613   10.6958   54.6666 C   0  0  0  0  0  0  0  0  0  0  0  0
   23.5008   11.6432   55.2072 F   0  0  0  0  0  0  0  0  0  0  0  0
   22.2711   11.2549   53.4359 F   0  0  0  0  0  0  0  0  0  0  0  0
   21.5215   10.7990   55.5474 F   0  0  0  0  0  0  0  0  0  0  0  0
   24.1105    8.9813   55.5110 N   0  0  0  0  0  0  0  0  0  0  0  0
   23.6981    9.0856   56.5272 H   0  0  0  0  0  0  0  0  0  0  0  0
   25.4792    8.8188   55.5623 C   0  0  0  0  0  0  0  0  0  0  0  0
   26.2487    9.8005   56.3873 C   0  0  0  0  0  0  0  0  0  0  0  0
   25.9471   10.9444   56.7052 O   0  0  0  0  0  0  0  0  0  0  0  0
   27.5411    9.3725   56.9037 N   0  0  0  0  0  0  0  0  0  0  0  0
   27.8869    8.4017   56.7164 H   0  0  0  0  0  0  0  0  0  0  0  0
   28.3674   10.2374   57.6979 C   0  0  0  0  0  0  0  0  0  0  0  0
   28.6169    9.5612   59.0041 C   0  0  0  0  0  0  0  0  0  0  0  0
   28.8078    9.0591   60.0279 N   0  0  0  0  0  0  0  0  0  0  0  0
   26.1977    8.2033   54.4328 C   0  0  0  0  0  0  0  0  0  0  0  0
   27.2974    8.7534   52.3833 C   0  0  0  0  0  0  0  0  0  0  0  0
   27.4967    8.6487   53.9335 C   0  0  0  0  0  0  0  0  0  0  0  0
   28.5868    7.5689   54.0266 C   0  0  0  0  0  0  0  0  0  0  0  0
 33 34  1  0  0  0
 34 35  1  0  0  0
 34 32  1  0  0  0
 32 24  1  0  0  0
 24 22  1  0  0  0
 22  1  1  0  0  0
  1  2  1  0  0  0
  2  3  2  0  0  0
  3  4  1  0  0  0
  4  5  2  0  0  0
  5  6  1  0  0  0
  6  7  2  0  0  0
  5  8  1  0  0  0
  8  9  2  0  0  0
  9 10  1  0  0  0
 10 11  2  0  0  0
 11 12  1  0  0  0
 12 13  2  0  0  0
 11 14  1  0  0  0
 14 15  1  0  0  0
 14 16  1  0  0  0
 14 17  1  0  0  0
  1 18  1  0  0  0
 18 19  1  0  0  0
 18 20  1  0  0  0
 18 21  1  0  0  0
 24 25  1  0  0  0
 25 26  2  0  0  0
 25 27  1  0  0  0
 27 29  1  0  0  0
 29 30  1  0  0  0
 30 31  3  0  0  0
  7  2  1  0  0  0
 13  8  1  0  0  0
 22 23  1  0  0  0
 27 28  1  0  0  0
M  END
> <minimizedAffinity>
22.93416

> <CNNscore>
0.5177053809

> <CNNaffinity>
5.8460140228

> <CNN_VS>
3.0265128613

> <CNNaffinity_variance>
0.0776815861

$$$$
[H]c1c([H])c(C(F)(F)F)c([H])c([H])c1-c1c([H])c([H])c([C@]([H])(N([H])[C@]([H])(C(=O)N([H])C([H])([H])C#N)C([H])([H])C([H])(C([H])([H])[H])C([H])([H])[H])C(F)(F)F)c([H])c1[H]


 35 36  0  0  0  0  0  0  0  0999 V2000
   24.8182    7.4373   54.1510 C   0  0  0  0  0  0  0  0  0  0  0  0
   23.4250    6.8452   53.9817 C   0  0  0  0  0  0  0  0  0  0  0  0
   23.0059    5.9537   54.9434 C   0  0  0  0  0  0  0  0  0  0  0  0
   21.7123    5.4182   54.9025 C   0  0  0  0  0  0  0  0  0  0  0  0
   20.8458    5.7810   53.8973 C   0  0  0  0  0  0  0  0  0  0  0  0
   21.2948    6.6664   52.9555 C   0  0  0  0  0  0  0  0  0  0  0  0
   22.5794    7.2060   52.9826 C   0  0  0  0  0  0  0  0  0  0  0  0
   19.4818    5.2787   53.8732 C   0  0  0  0  0  0  0  0  0  0  0  0
   18.3933    6.0864   53.8158 C   0  0  0  0  0  0  0  0  0  0  0  0
   17.1220    5.5189   53.7479 C   0  0  0  0  0  0  0  0  0  0  0  0
   16.9095    4.1578   53.7358 C   0  0  0  0  0  0  0  0  0  0  0  0
   18.0341    3.3403   53.7964 C   0  0  0  0  0  0  0  0  0  0  0  0
   19.2925    3.8843   53.8639 C   0  0  0  0  0  0  0  0  0  0  0  0
   15.5628    3.5257   53.6466 C   0  0  0  0  0  0  0  0  0  0  0  0
   15.6554    2.2676   53.0618 F   0  0  0  0  0  0  0  0  0  0  0  0
   14.7677    4.3050   52.8056 F   0  0  0  0  0  0  0  0  0  0  0  0
   15.0469    3.4373   54.9089 F   0  0  0  0  0  0  0  0  0  0  0  0
   25.2589    7.9682   52.8388 C   0  0  0  0  0  0  0  0  0  0  0  0
   25.3134    6.8855   51.8915 F   0  0  0  0  0  0  0  0  0  0  0  0
   24.3305    8.8097   52.2546 F   0  0  0  0  0  0  0  0  0  0  0  0
   26.5308    8.4635   52.7711 F   0  0  0  0  0  0  0  0  0  0  0  0
   24.9746    8.1869   55.2726 N   0  0  0  0  0  0  0  0  0  0  0  0
   24.9849    7.5648   56.1818 H   0  0  0  0  0  0  0  0  0  0  0  0
   24.7836    9.5131   55.6001 C   0  0  0  0  0  0  0  0  0  0  0  0
   25.8648   10.1796   56.3897 C   0  0  0  0  0  0  0  0  0  0  0  0
   25.8495   11.2672   56.9531 O   0  0  0  0  0  0  0  0  0  0  0  0
   27.1261    9.4661   56.5316 N   0  0  0  0  0  0  0  0  0  0  0  0
   27.2411    8.5128   56.1131 H   0  0  0  0  0  0  0  0  0  0  0  0
   28.2343   10.0173   57.2595 C   0  0  0  0  0  0  0  0  0  0  0  0
   28.3906    9.2340   58.5196 C   0  0  0  0  0  0  0  0  0  0  0  0
   28.5119    8.6060   59.4827 N   0  0  0  0  0  0  0  0  0  0  0  0
   23.4214   10.0488   55.7679 C   0  0  0  0  0  0  0  0  0  0  0  0
   21.6449   11.0763   54.5430 C   0  0  0  0  0  0  0  0  0  0  0  0
   22.2813    9.6967   54.9244 C   0  0  0  0  0  0  0  0  0  0  0  0
   21.1308    9.0367   55.7014 C   0  0  0  0  0  0  0  0  0  0  0  0
 33 34  1  0  0  0
 34 35  1  0  0  0
 34 32  1  0  0  0
 32 24  1  0  0  0
 24 22  1  0  0  0
 22  1  1  0  0  0
  1  2  1  0  0  0
  2  3  2  0  0  0
  3  4  1  0  0  0
  4  5  2  0  0  0
  5  6  1  0  0  0
  6  7  2  0  0  0
  5  8  1  0  0  0
  8  9  2  0  0  0
  9 10  1  0  0  0
 10 11  2  0  0  0
 11 12  1  0  0  0
 12 13  2  0  0  0
 11 14  1  0  0  0
 14 15  1  0  0  0
 14 16  1  0  0  0
 14 17  1  0  0  0
  1 18  1  0  0  0
 18 19  1  0  0  0
 18 20  1  0  0  0
 18 21  1  0  0  0
 24 25  1  0  0  0
 25 26  2  0  0  0
 25 27  1  0  0  0
 27 29  1  0  0  0
 29 30  1  0  0  0
 30 31  3  0  0  0
  7  2  1  0  0  0
 13  8  1  0  0  0
 22 23  1  0  0  0
 27 28  1  0  0  0
M  END
> <minimizedAffinity>
23.38345

> <CNNscore>
0.5114228725

> <CNNaffinity>
5.9947686195

> <CNN_VS>
3.0658617020

> <CNNaffinity_variance>
0.1613418609

$$$$
[H]c1c([H])c(C(F)(F)F)c([H])c([H])c1-c1c([H])c([H])c([C@]([H])(N([H])[C@]([H])(C(=O)N([H])C([H])([H])C#N)C([H])([H])C([H])(C([H])([H])[H])C([H])([H])[H])C(F)(F)F)c([H])c1[H]


 35 36  0  0  0  0  0  0  0  0999 V2000
   28.4648    9.9178   56.3485 C   0  0  0  0  0  0  0  0  0  0  0  0
   27.1453    9.3405   55.8527 C   0  0  0  0  0  0  0  0  0  0  0  0
   25.9960    9.8187   56.4406 C   0  0  0  0  0  0  0  0  0  0  0  0
   24.7381    9.3943   55.9940 C   0  0  0  0  0  0  0  0  0  0  0  0
   24.6403    8.4931   54.9590 C   0  0  0  0  0  0  0  0  0  0  0  0
   25.8017    8.0350   54.3990 C   0  0  0  0  0  0  0  0  0  0  0  0
   27.0599    8.4470   54.8339 C   0  0  0  0  0  0  0  0  0  0  0  0
   23.3420    8.0869   54.4463 C   0  0  0  0  0  0  0  0  0  0  0  0
   22.2384    8.8734   54.5104 C   0  0  0  0  0  0  0  0  0  0  0  0
   21.0436    8.4241   53.9506 C   0  0  0  0  0  0  0  0  0  0  0  0
   20.9226    7.2027   53.3251 C   0  0  0  0  0  0  0  0  0  0  0  0
   22.0615    6.4050   53.2671 C   0  0  0  0  0  0  0  0  0  0  0  0
   23.2453    6.8334   53.8140 C   0  0  0  0  0  0  0  0  0  0  0  0
   19.6622    6.7061   52.7038 C   0  0  0  0  0  0  0  0  0  0  0  0
   19.5405    7.1855   51.4043 F   0  0  0  0  0  0  0  0  0  0  0  0
   18.5852    7.2197   53.4269 F   0  0  0  0  0  0  0  0  0  0  0  0
   19.6881    5.3398   52.7167 F   0  0  0  0  0  0  0  0  0  0  0  0
   29.4215    9.9272   55.2159 C   0  0  0  0  0  0  0  0  0  0  0  0
   28.6830    9.9835   53.9814 F   0  0  0  0  0  0  0  0  0  0  0  0
   30.1727   11.0860   55.1501 F   0  0  0  0  0  0  0  0  0  0  0  0
   30.1769    8.8022   55.0392 F   0  0  0  0  0  0  0  0  0  0  0  0
   28.3337   11.0177   57.1343 N   0  0  0  0  0  0  0  0  0  0  0  0
   28.1863   11.9315   56.5368 H   0  0  0  0  0  0  0  0  0  0  0  0
   28.6703   11.3413   58.4322 C   0  0  0  0  0  0  0  0  0  0  0  0
   28.8256   10.2080   59.3956 C   0  0  0  0  0  0  0  0  0  0  0  0
   28.1917    9.1622   59.4646 O   0  0  0  0  0  0  0  0  0  0  0  0
   29.8665   10.3277   60.4068 N   0  0  0  0  0  0  0  0  0  0  0  0
   30.4889   11.1699   60.4237 H   0  0  0  0  0  0  0  0  0  0  0  0
   30.0958    9.3043   61.3874 C   0  0  0  0  0  0  0  0  0  0  0  0
   30.9607    8.2594   60.7663 C   0  0  0  0  0  0  0  0  0  0  0  0
   31.6114    7.4344   60.2839 N   0  0  0  0  0  0  0  0  0  0  0  0
   28.2691   12.6390   59.0027 C   0  0  0  0  0  0  0  0  0  0  0  0
   29.5217   13.3329   60.9162 C   0  0  0  0  0  0  0  0  0  0  0  0
   28.0968   12.9007   60.4300 C   0  0  0  0  0  0  0  0  0  0  0  0
   27.8673   11.6264   61.2585 C   0  0  0  0  0  0  0  0  0  0  0  0
 33 34  1  0  0  0
 34 35  1  0  0  0
 34 32  1  0  0  0
 32 24  1  0  0  0
 24 22  1  0  0  0
 22  1  1  0  0  0
  1  2  1  0  0  0
  2  3  2  0  0  0
  3  4  1  0  0  0
  4  5  2  0  0  0
  5  6  1  0  0  0
  6  7  2  0  0  0
  5  8  1  0  0  0
  8  9  2  0  0  0
  9 10  1  0  0  0
 10 11  2  0  0  0
 11 12  1  0  0  0
 12 13  2  0  0  0
 11 14  1  0  0  0
 14 15  1  0  0  0
 14 16  1  0  0  0
 14 17  1  0  0  0
  1 18  1  0  0  0
 18 19  1  0  0  0
 18 20  1  0  0  0
 18 21  1  0  0  0
 24 25  1  0  0  0
 25 26  2  0  0  0
 25 27  1  0  0  0
 27 29  1  0  0  0
 29 30  1  0  0  0
 30 31  3  0  0  0
  7  2  1  0  0  0
 13  8  1  0  0  0
 22 23  1  0  0  0
 27 28  1  0  0  0
M  END
> <minimizedAffinity>
9.17073

> <CNNscore>
0.5050452948

> <CNNaffinity>
6.2629237175

> <CNN_VS>
3.1630601883

> <CNNaffinity_variance>
0.5898877382

$$$$
[H]c1c([H])c(C(F)(F)F)c([H])c([H])c1-c1c([H])c([H])c([C@]([H])(N([H])[C@]([H])(C(=O)N([H])C([H])([H])C#N)C([H])([H])C([H])(C([H])([H])[H])C([H])([H])[H])C(F)(F)F)c([H])c1[H]


 35 36  0  0  0  0  0  0  0  0999 V2000
   24.2667    7.5543   53.1449 C   0  0  0  0  0  0  0  0  0  0  0  0
   25.2216    8.1508   54.1709 C   0  0  0  0  0  0  0  0  0  0  0  0
   24.6566    8.8280   55.2280 C   0  0  0  0  0  0  0  0  0  0  0  0
   25.4590    9.3448   56.2532 C   0  0  0  0  0  0  0  0  0  0  0  0
   26.8241    9.1783   56.2126 C   0  0  0  0  0  0  0  0  0  0  0  0
   27.3539    8.5035   55.1465 C   0  0  0  0  0  0  0  0  0  0  0  0
   26.5683    7.9854   54.1187 C   0  0  0  0  0  0  0  0  0  0  0  0
   27.6649    9.6583   57.2970 C   0  0  0  0  0  0  0  0  0  0  0  0
   27.9795   10.9666   57.4702 C   0  0  0  0  0  0  0  0  0  0  0  0
   28.7533   11.3459   58.5657 C   0  0  0  0  0  0  0  0  0  0  0  0
   29.2233   10.4466   59.4975 C   0  0  0  0  0  0  0  0  0  0  0  0
   28.8947    9.1077   59.3078 C   0  0  0  0  0  0  0  0  0  0  0  0
   28.1337    8.7187   58.2338 C   0  0  0  0  0  0  0  0  0  0  0  0
   30.0375   10.8277   60.6863 C   0  0  0  0  0  0  0  0  0  0  0  0
   29.3022   11.6477   61.5350 F   0  0  0  0  0  0  0  0  0  0  0  0
   31.1302   11.5760   60.2475 F   0  0  0  0  0  0  0  0  0  0  0  0
   30.4197    9.6833   61.3280 F   0  0  0  0  0  0  0  0  0  0  0  0
   23.9425    6.1695   53.5635 C   0  0  0  0  0  0  0  0  0  0  0  0
   24.6853    5.2479   52.7440 F   0  0  0  0  0  0  0  0  0  0  0  0
   24.4077    5.8623   54.8287 F   0  0  0  0  0  0  0  0  0  0  0  0
   22.6575    5.7506   53.3616 F   0  0  0  0  0  0  0  0  0  0  0  0
   23.2742    8.3933   52.7509 N   0  0  0  0  0  0  0  0  0  0  0  0
   23.6414    9.4221   52.6079 H   0  0  0  0  0  0  0  0  0  0  0  0
   21.8963    8.3792   52.8124 C   0  0  0  0  0  0  0  0  0  0  0  0
   21.1635    8.0772   51.5443 C   0  0  0  0  0  0  0  0  0  0  0  0
   21.6054    7.6717   50.4762 O   0  0  0  0  0  0  0  0  0  0  0  0
   19.7216    8.2801   51.5404 N   0  0  0  0  0  0  0  0  0  0  0  0
   19.2330    8.5987   52.4103 H   0  0  0  0  0  0  0  0  0  0  0  0
   18.9214    8.0313   50.3744 C   0  0  0  0  0  0  0  0  0  0  0  0
   17.7717    8.9816   50.3958 C   0  0  0  0  0  0  0  0  0  0  0  0
   16.8669    9.7014   50.4001 N   0  0  0  0  0  0  0  0  0  0  0  0
   21.1876    9.2134   53.7987 C   0  0  0  0  0  0  0  0  0  0  0  0
   20.7967   10.7211   55.6114 C   0  0  0  0  0  0  0  0  0  0  0  0
   21.7145   10.4502   54.3713 C   0  0  0  0  0  0  0  0  0  0  0  0
   21.4302   11.6896   53.5074 C   0  0  0  0  0  0  0  0  0  0  0  0
 33 34  1  0  0  0
 34 35  1  0  0  0
 34 32  1  0  0  0
 32 24  1  0  0  0
 24 22  1  0  0  0
 22  1  1  0  0  0
  1  2  1  0  0  0
  2  3  2  0  0  0
  3  4  1  0  0  0
  4  5  2  0  0  0
  5  6  1  0  0  0
  6  7  2  0  0  0
  5  8  1  0  0  0
  8  9  2  0  0  0
  9 10  1  0  0  0
 10 11  2  0  0  0
 11 12  1  0  0  0
 12 13  2  0  0  0
 11 14  1  0  0  0
 14 15  1  0  0  0
 14 16  1  0  0  0
 14 17  1  0  0  0
  1 18  1  0  0  0
 18 19  1  0  0  0
 18 20  1  0  0  0
 18 21  1  0  0  0
 24 25  1  0  0  0
 25 26  2  0  0  0
 25 27  1  0  0  0
 27 29  1  0  0  0
 29 30  1  0  0  0
 30 31  3  0  0  0
  7  2  1  0  0  0
 13  8  1  0  0  0
 22 23  1  0  0  0
 27 28  1  0  0  0
M  END
> <minimizedAffinity>
12.55793

> <CNNscore>
0.4822427332

> <CNNaffinity>
6.2876358032

> <CNN_VS>
3.0321667194

> <CNNaffinity_variance>
0.1485598832

$$$$
[H]c1c([H])c(C(F)(F)F)c([H])c([H])c1-c1c([H])c([H])c([C@]([H])(N([H])[C@]([H])(C(=O)N([H])C([H])([H])C#N)C([H])([H])C([H])(C([H])([H])[H])C([H])([H])[H])C(F)(F)F)c([H])c1[H]


 35 36  0  0  0  0  0  0  0  0999 V2000
   28.4681    9.5679   56.2911 C   0  0  0  0  0  0  0  0  0  0  0  0
   27.1212    9.0732   55.7799 C   0  0  0  0  0  0  0  0  0  0  0  0
   25.9971    9.6059   56.3697 C   0  0  0  0  0  0  0  0  0  0  0  0
   24.7200    9.2595   55.9104 C   0  0  0  0  0  0  0  0  0  0  0  0
   24.5778    8.3813   54.8609 C   0  0  0  0  0  0  0  0  0  0  0  0
   25.7150    7.8675   54.2994 C   0  0  0  0  0  0  0  0  0  0  0  0
   26.9918    8.2017   54.7468 C   0  0  0  0  0  0  0  0  0  0  0  0
   23.2619    8.0564   54.3356 C   0  0  0  0  0  0  0  0  0  0  0  0
   22.3489    8.9965   53.9846 C   0  0  0  0  0  0  0  0  0  0  0  0
   21.1278    8.5974   53.4438 C   0  0  0  0  0  0  0  0  0  0  0  0
   20.7939    7.2759   53.2436 C   0  0  0  0  0  0  0  0  0  0  0  0
   21.7385    6.3214   53.6089 C   0  0  0  0  0  0  0  0  0  0  0  0
   22.9452    6.6988   54.1429 C   0  0  0  0  0  0  0  0  0  0  0  0
   19.5031    6.8233   52.6518 C   0  0  0  0  0  0  0  0  0  0  0  0
   19.4966    5.4409   52.5022 F   0  0  0  0  0  0  0  0  0  0  0  0
   19.3923    7.3689   51.3725 F   0  0  0  0  0  0  0  0  0  0  0  0
   18.4898    7.2272   53.4749 F   0  0  0  0  0  0  0  0  0  0  0  0
   29.3777    9.7188   55.1300 C   0  0  0  0  0  0  0  0  0  0  0  0
   28.6016    9.6640   53.9187 F   0  0  0  0  0  0  0  0  0  0  0  0
   29.9461   10.9763   55.0461 F   0  0  0  0  0  0  0  0  0  0  0  0
   30.2860    8.7184   54.9260 F   0  0  0  0  0  0  0  0  0  0  0  0
   28.3851   10.5552   57.2200 N   0  0  0  0  0  0  0  0  0  0  0  0
   28.4374   11.5548   56.7597 H   0  0  0  0  0  0  0  0  0  0  0  0
   28.5938   10.6412   58.5807 C   0  0  0  0  0  0  0  0  0  0  0  0
   28.2933   11.9537   59.2316 C   0  0  0  0  0  0  0  0  0  0  0  0
   27.8653   12.9846   58.7271 O   0  0  0  0  0  0  0  0  0  0  0  0
   28.5287   12.0590   60.6647 N   0  0  0  0  0  0  0  0  0  0  0  0
   28.8687   11.2281   61.2042 H   0  0  0  0  0  0  0  0  0  0  0  0
   28.2843   13.2747   61.3886 C   0  0  0  0  0  0  0  0  0  0  0  0
   29.5009   14.1303   61.2723 C   0  0  0  0  0  0  0  0  0  0  0  0
   30.4559   14.7774   61.1968 N   0  0  0  0  0  0  0  0  0  0  0  0
   29.6176    9.8042   59.2302 C   0  0  0  0  0  0  0  0  0  0  0  0
   30.9170    9.9799   61.2284 C   0  0  0  0  0  0  0  0  0  0  0  0
   29.5899    9.3980   60.6335 C   0  0  0  0  0  0  0  0  0  0  0  0
   29.8038    7.8890   60.8342 C   0  0  0  0  0  0  0  0  0  0  0  0
 33 34  1  0  0  0
 34 35  1  0  0  0
 34 32  1  0  0  0
 32 24  1  0  0  0
 24 22  1  0  0  0
 22  1  1  0  0  0
  1  2  1  0  0  0
  2  3  2  0  0  0
  3  4  1  0  0  0
  4  5  2  0  0  0
  5  6  1  0  0  0
  6  7  2  0  0  0
  5  8  1  0  0  0
  8  9  2  0  0  0
  9 10  1  0  0  0
 10 11  2  0  0  0
 11 12  1  0  0  0
 12 13  2  0  0  0
 11 14  1  0  0  0
 14 15  1  0  0  0
 14 16  1  0  0  0
 14 17  1  0  0  0
  1 18  1  0  0  0
 18 19  1  0  0  0
 18 20  1  0  0  0
 18 21  1  0  0  0
 24 25  1  0  0  0
 25 26  2  0  0  0
 25 27  1  0  0  0
 27 29  1  0  0  0
 29 30  1  0  0  0
 30 31  3  0  0  0
  7  2  1  0  0  0
 13  8  1  0  0  0
 22 23  1  0  0  0
 27 28  1  0  0  0
M  END
> <minimizedAffinity>
7.54865

> <CNNscore>
0.4778619707

> <CNNaffinity>
6.2078332901

> <CNN_VS>
2.9664874077

> <CNNaffinity_variance>
0.3223522007

$$$$
[H]c1c([H])c(C(F)(F)F)c([H])c([H])c1-c1c([H])c([H])c([C@]([H])(N([H])[C@]([H])(C(=O)N([H])C([H])([H])C#N)C([H])([H])C([H])(C([H])([H])[H])C([H])([H])[H])C(F)(F)F)c([H])c1[H]


 35 36  0  0  0  0  0  0  0  0999 V2000
   23.8994    8.0266   53.5051 C   0  0  0  0  0  0  0  0  0  0  0  0
   24.8218    8.4556   54.6389 C   0  0  0  0  0  0  0  0  0  0  0  0
   26.1581    8.1538   54.5029 C   0  0  0  0  0  0  0  0  0  0  0  0
   27.0848    8.5755   55.4648 C   0  0  0  0  0  0  0  0  0  0  0  0
   26.6656    9.2989   56.5575 C   0  0  0  0  0  0  0  0  0  0  0  0
   25.3305    9.5790   56.6642 C   0  0  0  0  0  0  0  0  0  0  0  0
   24.3970    9.1647   55.7161 C   0  0  0  0  0  0  0  0  0  0  0  0
   27.6223    9.7928   57.5343 C   0  0  0  0  0  0  0  0  0  0  0  0
   27.9898   11.0959   57.6215 C   0  0  0  0  0  0  0  0  0  0  0  0
   28.8780   11.4918   58.6200 C   0  0  0  0  0  0  0  0  0  0  0  0
   29.4112   10.6144   59.5385 C   0  0  0  0  0  0  0  0  0  0  0  0
   29.0273    9.2806   59.4376 C   0  0  0  0  0  0  0  0  0  0  0  0
   28.1537    8.8754   58.4596 C   0  0  0  0  0  0  0  0  0  0  0  0
   30.3488   11.0144   60.6258 C   0  0  0  0  0  0  0  0  0  0  0  0
   30.1370   10.2372   61.7591 F   0  0  0  0  0  0  0  0  0  0  0  0
   30.0691   12.3340   60.9823 F   0  0  0  0  0  0  0  0  0  0  0  0
   31.6268   10.8638   60.1659 F   0  0  0  0  0  0  0  0  0  0  0  0
   23.9840    6.5525   53.3712 C   0  0  0  0  0  0  0  0  0  0  0  0
   24.6000    6.0107   54.5543 F   0  0  0  0  0  0  0  0  0  0  0  0
   22.7474    5.9345   53.3870 F   0  0  0  0  0  0  0  0  0  0  0  0
   24.7985    6.0700   52.3856 F   0  0  0  0  0  0  0  0  0  0  0  0
   22.6869    8.6384   53.5090 N   0  0  0  0  0  0  0  0  0  0  0  0
   21.9907    8.1613   54.2171 H   0  0  0  0  0  0  0  0  0  0  0  0
   21.9999    9.4589   52.6387 C   0  0  0  0  0  0  0  0  0  0  0  0
   21.7429   10.8617   53.0887 C   0  0  0  0  0  0  0  0  0  0  0  0
   21.5483   11.2847   54.2217 O   0  0  0  0  0  0  0  0  0  0  0  0
   21.7138   11.8975   52.0657 N   0  0  0  0  0  0  0  0  0  0  0  0
   21.8958   11.6524   51.0638 H   0  0  0  0  0  0  0  0  0  0  0  0
   21.4653   13.2752   52.3848 C   0  0  0  0  0  0  0  0  0  0  0  0
   20.9144   13.9362   51.1662 C   0  0  0  0  0  0  0  0  0  0  0  0
   20.5022   14.4342   50.2076 N   0  0  0  0  0  0  0  0  0  0  0  0
   21.0344    8.8873   51.6838 C   0  0  0  0  0  0  0  0  0  0  0  0
   19.8920    7.8219   53.4927 C   0  0  0  0  0  0  0  0  0  0  0  0
   20.1825    7.7317   51.9561 C   0  0  0  0  0  0  0  0  0  0  0  0
   20.9294    6.3911   51.8670 C   0  0  0  0  0  0  0  0  0  0  0  0
 33 34  1  0  0  0
 34 35  1  0  0  0
 34 32  1  0  0  0
 32 24  1  0  0  0
 24 22  1  0  0  0
 22  1  1  0  0  0
  1  2  1  0  0  0
  2  3  2  0  0  0
  3  4  1  0  0  0
  4  5  2  0  0  0
  5  6  1  0  0  0
  6  7  2  0  0  0
  5  8  1  0  0  0
  8  9  2  0  0  0
  9 10  1  0  0  0
 10 11  2  0  0  0
 11 12  1  0  0  0
 12 13  2  0  0  0
 11 14  1  0  0  0
 14 15  1  0  0  0
 14 16  1  0  0  0
 14 17  1  0  0  0
  1 18  1  0  0  0
 18 19  1  0  0  0
 18 20  1  0  0  0
 18 21  1  0  0  0
 24 25  1  0  0  0
 25 26  2  0  0  0
 25 27  1  0  0  0
 27 29  1  0  0  0
 29 30  1  0  0  0
 30 31  3  0  0  0
  7  2  1  0  0  0
 13  8  1  0  0  0
 22 23  1  0  0  0
 27 28  1  0  0  0
M  END
> <minimizedAffinity>
10.25401

> <CNNscore>
0.4723508358

> <CNNaffinity>
6.0506954193

> <CNN_VS>
2.8580510616

> <CNNaffinity_variance>
0.1452108920

$$$$
[H]c1c([H])c(C(F)(F)F)c([H])c([H])c1-c1c([H])c([H])c([C@]([H])(N([H])[C@]([H])(C(=O)N([H])C([H])([H])C#N)C([H])([H])C([H])(C([H])([H])[H])C([H])([H])[H])C(F)(F)F)c([H])c1[H]


 35 36  0  0  0  0  0  0  0  0999 V2000
   22.7427    9.0496   54.2423 C   0  0  0  0  0  0  0  0  0  0  0  0
   24.0155    9.2780   55.0473 C   0  0  0  0  0  0  0  0  0  0  0  0
   23.9107   10.0731   56.1663 C   0  0  0  0  0  0  0  0  0  0  0  0
   25.0163   10.2754   57.0021 C   0  0  0  0  0  0  0  0  0  0  0  0
   26.2210    9.6778   56.7111 C   0  0  0  0  0  0  0  0  0  0  0  0
   26.2921    8.8966   55.5898 C   0  0  0  0  0  0  0  0  0  0  0  0
   25.2011    8.6877   54.7483 C   0  0  0  0  0  0  0  0  0  0  0  0
   27.3616    9.8313   57.5992 C   0  0  0  0  0  0  0  0  0  0  0  0
   27.9761   11.0204   57.8208 C   0  0  0  0  0  0  0  0  0  0  0  0
   29.0340   11.0865   58.7259 C   0  0  0  0  0  0  0  0  0  0  0  0
   29.4961    9.9892   59.4188 C   0  0  0  0  0  0  0  0  0  0  0  0
   28.8582    8.7753   59.1816 C   0  0  0  0  0  0  0  0  0  0  0  0
   27.8151    8.6942   58.2931 C   0  0  0  0  0  0  0  0  0  0  0  0
   30.6134   10.0359   60.4041 C   0  0  0  0  0  0  0  0  0  0  0  0
   31.0524    8.7503   60.7008 F   0  0  0  0  0  0  0  0  0  0  0  0
   30.1271   10.5815   61.5926 F   0  0  0  0  0  0  0  0  0  0  0  0
   31.6250   10.7828   59.8690 F   0  0  0  0  0  0  0  0  0  0  0  0
   21.8747   10.2413   54.3994 C   0  0  0  0  0  0  0  0  0  0  0  0
   22.6523   11.3145   54.9617 F   0  0  0  0  0  0  0  0  0  0  0  0
   21.4742   10.7835   53.1923 F   0  0  0  0  0  0  0  0  0  0  0  0
   20.8476   10.1406   55.2952 F   0  0  0  0  0  0  0  0  0  0  0  0
   22.9487    8.5188   53.0093 N   0  0  0  0  0  0  0  0  0  0  0  0
   23.2694    9.2832   52.2837 H   0  0  0  0  0  0  0  0  0  0  0  0
   22.5438    7.3744   52.3544 C   0  0  0  0  0  0  0  0  0  0  0  0
   21.0710    7.1671   52.1982 C   0  0  0  0  0  0  0  0  0  0  0  0
   20.3222    7.5835   51.3228 O   0  0  0  0  0  0  0  0  0  0  0  0
   20.3981    6.3618   53.2076 N   0  0  0  0  0  0  0  0  0  0  0  0
   20.9473    5.9310   53.9886 H   0  0  0  0  0  0  0  0  0  0  0  0
   18.9857    6.1078   53.1610 C   0  0  0  0  0  0  0  0  0  0  0  0
   18.7611    4.6895   53.5656 C   0  0  0  0  0  0  0  0  0  0  0  0
   18.6026    3.5936   53.8982 N   0  0  0  0  0  0  0  0  0  0  0  0
   23.3782    6.1608   52.3935 C   0  0  0  0  0  0  0  0  0  0  0  0
   22.6992    5.9036   54.6705 C   0  0  0  0  0  0  0  0  0  0  0  0
   23.7690    5.4611   53.6153 C   0  0  0  0  0  0  0  0  0  0  0  0
   25.0599    6.0099   54.2440 C   0  0  0  0  0  0  0  0  0  0  0  0
 33 34  1  0  0  0
 34 35  1  0  0  0
 34 32  1  0  0  0
 32 24  1  0  0  0
 24 22  1  0  0  0
 22  1  1  0  0  0
  1  2  1  0  0  0
  2  3  2  0  0  0
  3  4  1  0  0  0
  4  5  2  0  0  0
  5  6  1  0  0  0
  6  7  2  0  0  0
  5  8  1  0  0  0
  8  9  2  0  0  0
  9 10  1  0  0  0
 10 11  2  0  0  0
 11 12  1  0  0  0
 12 13  2  0  0  0
 11 14  1  0  0  0
 14 15  1  0  0  0
 14 16  1  0  0  0
 14 17  1  0  0  0
  1 18  1  0  0  0
 18 19  1  0  0  0
 18 20  1  0  0  0
 18 21  1  0  0  0
 24 25  1  0  0  0
 25 26  2  0  0  0
 25 27  1  0  0  0
 27 29  1  0  0  0
 29 30  1  0  0  0
 30 31  3  0  0  0
  7  2  1  0  0  0
 13  8  1  0  0  0
 22 23  1  0  0  0
 27 28  1  0  0  0
M  END
> <minimizedAffinity>
14.99995

> <CNNscore>
0.4691712260

> <CNNaffinity>
6.5475692749

> <CNN_VS>
3.0719311237

> <CNNaffinity_variance>
0.6389442086

$$$$
[H]c1c([H])c(C(F)(F)F)c([H])c([H])c1-c1c([H])c([H])c([C@]([H])(N([H])[C@]([H])(C(=O)N([H])C([H])([H])C#N)C([H])([H])C([H])(C([H])([H])[H])C([H])([H])[H])C(F)(F)F)c([H])c1[H]


 35 36  0  0  0  0  0  0  0  0999 V2000
   22.8110    9.8490   54.4099 C   0  0  0  0  0  0  0  0  0  0  0  0
   21.8289    8.6906   54.2919 C   0  0  0  0  0  0  0  0  0  0  0  0
   21.1393    8.5768   53.1058 C   0  0  0  0  0  0  0  0  0  0  0  0
   20.2709    7.4997   52.8875 C   0  0  0  0  0  0  0  0  0  0  0  0
   20.1002    6.5418   53.8602 C   0  0  0  0  0  0  0  0  0  0  0  0
   20.7977    6.6864   55.0285 C   0  0  0  0  0  0  0  0  0  0  0  0
   21.6637    7.7534   55.2603 C   0  0  0  0  0  0  0  0  0  0  0  0
   19.2471    5.3880   53.6267 C   0  0  0  0  0  0  0  0  0  0  0  0
   17.9403    5.3446   53.9885 C   0  0  0  0  0  0  0  0  0  0  0  0
   17.1821    4.2156   53.6833 C   0  0  0  0  0  0  0  0  0  0  0  0
   17.6990    3.1230   53.0223 C   0  0  0  0  0  0  0  0  0  0  0  0
   19.0410    3.1795   52.6577 C   0  0  0  0  0  0  0  0  0  0  0  0
   19.8005    4.2843   52.9516 C   0  0  0  0  0  0  0  0  0  0  0  0
   16.9064    1.9114   52.6688 C   0  0  0  0  0  0  0  0  0  0  0  0
   16.5559    1.9367   51.3235 F   0  0  0  0  0  0  0  0  0  0  0  0
   15.7168    1.9381   53.3973 F   0  0  0  0  0  0  0  0  0  0  0  0
   17.6612    0.8082   52.9530 F   0  0  0  0  0  0  0  0  0  0  0  0
   22.0356   11.1121   54.4474 C   0  0  0  0  0  0  0  0  0  0  0  0
   20.8649   10.9173   55.2623 F   0  0  0  0  0  0  0  0  0  0  0  0
   22.6858   12.1279   55.1233 F   0  0  0  0  0  0  0  0  0  0  0  0
   21.4887   11.5336   53.2680 F   0  0  0  0  0  0  0  0  0  0  0  0
   23.8142    9.6427   55.3017 N   0  0  0  0  0  0  0  0  0  0  0  0
   23.6896   10.2584   56.2067 H   0  0  0  0  0  0  0  0  0  0  0  0
   25.0970    9.1400   55.2355 C   0  0  0  0  0  0  0  0  0  0  0  0
   25.2865    7.8606   54.4848 C   0  0  0  0  0  0  0  0  0  0  0  0
   26.1288    7.5790   53.6411 O   0  0  0  0  0  0  0  0  0  0  0  0
   24.3603    6.7739   54.7705 N   0  0  0  0  0  0  0  0  0  0  0  0
   23.6155    6.8951   55.4968 H   0  0  0  0  0  0  0  0  0  0  0  0
   24.4443    5.5067   54.1006 C   0  0  0  0  0  0  0  0  0  0  0  0
   23.6609    5.6042   52.8347 C   0  0  0  0  0  0  0  0  0  0  0  0
   23.0751    5.6799   51.8409 N   0  0  0  0  0  0  0  0  0  0  0  0
   26.0611    9.4186   56.3141 C   0  0  0  0  0  0  0  0  0  0  0  0
   28.0795    9.6223   57.5778 C   0  0  0  0  0  0  0  0  0  0  0  0
   27.4048    8.8499   56.3937 C   0  0  0  0  0  0  0  0  0  0  0  0
   28.3066    9.2531   55.2159 C   0  0  0  0  0  0  0  0  0  0  0  0
 33 34  1  0  0  0
 34 35  1  0  0  0
 34 32  1  0  0  0
 32 24  1  0  0  0
 24 22  1  0  0  0
 22  1  1  0  0  0
  1  2  1  0  0  0
  2  3  2  0  0  0
  3  4  1  0  0  0
  4  5  2  0  0  0
  5  6  1  0  0  0
  6  7  2  0  0  0
  5  8  1  0  0  0
  8  9  2  0  0  0
  9 10  1  0  0  0
 10 11  2  0  0  0
 11 12  1  0  0  0
 12 13  2  0  0  0
 11 14  1  0  0  0
 14 15  1  0  0  0
 14 16  1  0  0  0
 14 17  1  0  0  0
  1 18  1  0  0  0
 18 19  1  0  0  0
 18 20  1  0  0  0
 18 21  1  0  0  0
 24 25  1  0  0  0
 25 26  2  0  0  0
 25 27  1  0  0  0
 27 29  1  0  0  0
 29 30  1  0  0  0
 30 31  3  0  0  0
  7  2  1  0  0  0
 13  8  1  0  0  0
 22 23  1  0  0  0
 27 28  1  0  0  0
M  END
> <minimizedAffinity>
28.08096

> <CNNscore>
0.4655570686

> <CNNaffinity>
5.9831514359

> <CNN_VS>
2.7854983807

> <CNNaffinity_variance>
0.1531682312

$$$$
[H]c1nc(N([H])C(=O)c2c([H])c([H])c(N3C([H])([H])C([H])([H])OC([H])([H])C3([H])[H])c([H])c2[H])nc(N([H])c2c([H])c([H])c([H])c([H])c2C(=O)N([H])C([H])([H])[H])c1Br


 36 39  0  0  0  0  0  0  0  0999 V2000
   25.4550    8.3027   54.9374 C   0  0  0  0  0  0  0  0  0  0  0  0
   25.9230    9.3321   55.6824 N   0  0  0  0  0  0  0  0  0  0  0  0
   27.2230    9.5625   55.8964 C   0  0  0  0  0  0  0  0  0  0  0  0
   28.1252    8.7236   55.3400 N   0  0  0  0  0  0  0  0  0  0  0  0
   27.7178    7.6756   54.5845 C   0  0  0  0  0  0  0  0  0  0  0  0
   26.3847    7.4234   54.3538 C   0  0  0  0  0  0  0  0  0  0  0  0
   25.8036    5.9515   53.3002 Br  0  0  0  0  0  0  0  0  0  0  0  0
   27.6975   10.6393   56.6777 N   0  0  0  0  0  0  0  0  0  0  0  0
   28.1973   10.4438   57.9730 C   0  0  0  0  0  0  0  0  0  0  0  0
   28.2303    9.2638   58.4691 O   0  0  0  0  0  0  0  0  0  0  0  0
   27.6629   11.5893   56.2587 H   0  0  0  0  0  0  0  0  0  0  0  0
   28.6903   11.5320   58.8022 C   0  0  0  0  0  0  0  0  0  0  0  0
   28.2607   12.8253   58.5606 C   0  0  0  0  0  0  0  0  0  0  0  0
   28.6920   13.8916   59.3088 C   0  0  0  0  0  0  0  0  0  0  0  0
   29.5884   13.7234   60.3541 C   0  0  0  0  0  0  0  0  0  0  0  0
   30.0163   12.4444   60.5967 C   0  0  0  0  0  0  0  0  0  0  0  0
   29.5747   11.3597   59.8323 C   0  0  0  0  0  0  0  0  0  0  0  0
   30.0485   14.8150   61.1334 N   0  0  0  0  0  0  0  0  0  0  0  0
   29.1610   15.5972   61.9656 C   0  0  0  0  0  0  0  0  0  0  0  0
   29.6977   17.0114   61.9950 C   0  0  0  0  0  0  0  0  0  0  0  0
   30.9777   17.1160   62.4565 O   0  0  0  0  0  0  0  0  0  0  0  0
   31.6817   15.9221   62.4536 C   0  0  0  0  0  0  0  0  0  0  0  0
   31.4449   15.1932   61.1318 C   0  0  0  0  0  0  0  0  0  0  0  0
   24.0857    8.0601   54.6745 N   0  0  0  0  0  0  0  0  0  0  0  0
   23.8483    7.0897   54.3848 H   0  0  0  0  0  0  0  0  0  0  0  0
   21.8838    8.8767   53.9743 C   0  0  0  0  0  0  0  0  0  0  0  0
   20.7756    9.6941   54.2026 C   0  0  0  0  0  0  0  0  0  0  0  0
   20.7617   10.5981   55.2649 C   0  0  0  0  0  0  0  0  0  0  0  0
   21.8484   10.6790   56.0875 C   0  0  0  0  0  0  0  0  0  0  0  0
   22.9440    9.8614   55.8540 C   0  0  0  0  0  0  0  0  0  0  0  0
   23.0000    8.9499   54.8123 C   0  0  0  0  0  0  0  0  0  0  0  0
   20.9129    7.5157   50.5024 C   0  0  0  0  0  0  0  0  0  0  0  0
   20.9666    8.3506   51.7175 N   0  0  0  0  0  0  0  0  0  0  0  0
   21.8544    8.0402   52.8002 C   0  0  0  0  0  0  0  0  0  0  0  0
   22.5706    7.0028   52.6192 O   0  0  0  0  0  0  0  0  0  0  0  0
   20.3261    9.1423   51.7134 H   0  0  0  0  0  0  0  0  0  0  0  0
 32 33  1  0  0  0
 33 34  1  0  0  0
 34 35  2  0  0  0
 34 26  1  0  0  0
 26 27  2  0  0  0
 27 28  1  0  0  0
 28 29  2  0  0  0
 29 30  1  0  0  0
 30 31  2  0  0  0
 31 24  1  0  0  0
 24  1  1  0  0  0
  1  2  2  0  0  0
  2  3  1  0  0  0
  3  8  1  0  0  0
  8  9  1  0  0  0
  9 10  2  0  0  0
  9 12  1  0  0  0
 12 13  2  0  0  0
 13 14  1  0  0  0
 14 15  2  0  0  0
 15 16  1  0  0  0
 16 17  2  0  0  0
 15 18  1  0  0  0
 18 19  1  0  0  0
 19 20  1  0  0  0
 20 21  1  0  0  0
 21 22  1  0  0  0
 22 23  1  0  0  0
  3  4  2  0  0  0
  4  5  1  0  0  0
  5  6  2  0  0  0
  6  7  1  0  0  0
 31 26  1  0  0  0
  6  1  1  0  0  0
 17 12  1  0  0  0
 23 18  1  0  0  0
 33 36  1  0  0  0
 24 25  1  0  0  0
  8 11  1  0  0  0
M  END
> <minimizedAffinity>
14.95913

> <CNNscore>
0.5803498626

> <CNNaffinity>
6.2518610954

> <CNN_VS>
3.6282668114

> <CNNaffinity_variance>
0.3044137955

$$$$
[H]c1nc(N([H])C(=O)c2c([H])c([H])c(N3C([H])([H])C([H])([H])OC([H])([H])C3([H])[H])c([H])c2[H])nc(N([H])c2c([H])c([H])c([H])c([H])c2C(=O)N([H])C([H])([H])[H])c1Br


 36 39  0  0  0  0  0  0  0  0999 V2000
   23.5026    8.1642   53.2741 C   0  0  0  0  0  0  0  0  0  0  0  0
   24.1430    8.7824   54.2948 N   0  0  0  0  0  0  0  0  0  0  0  0
   25.0040    8.1665   55.1123 C   0  0  0  0  0  0  0  0  0  0  0  0
   25.2529    6.8528   54.9131 N   0  0  0  0  0  0  0  0  0  0  0  0
   24.6424    6.1800   53.9082 C   0  0  0  0  0  0  0  0  0  0  0  0
   23.7539    6.7975   53.0577 C   0  0  0  0  0  0  0  0  0  0  0  0
   22.8877    5.8598   51.6489 Br  0  0  0  0  0  0  0  0  0  0  0  0
   25.6636    8.8230   56.1748 N   0  0  0  0  0  0  0  0  0  0  0  0
   27.0429    9.0723   56.1420 C   0  0  0  0  0  0  0  0  0  0  0  0
   27.7310    8.7011   55.1279 O   0  0  0  0  0  0  0  0  0  0  0  0
   25.0891    9.1168   56.9891 H   0  0  0  0  0  0  0  0  0  0  0  0
   27.7503    9.7434   57.2209 C   0  0  0  0  0  0  0  0  0  0  0  0
   28.2786    8.9981   58.2606 C   0  0  0  0  0  0  0  0  0  0  0  0
   28.9545    9.5759   59.3056 C   0  0  0  0  0  0  0  0  0  0  0  0
   29.1430   10.9487   59.3715 C   0  0  0  0  0  0  0  0  0  0  0  0
   28.6216   11.6904   58.3439 C   0  0  0  0  0  0  0  0  0  0  0  0
   27.9333   11.0984   57.2801 C   0  0  0  0  0  0  0  0  0  0  0  0
   29.8340   11.5624   60.4469 N   0  0  0  0  0  0  0  0  0  0  0  0
   29.4154   12.8265   61.0118 C   0  0  0  0  0  0  0  0  0  0  0  0
   30.6594   13.5422   61.4905 C   0  0  0  0  0  0  0  0  0  0  0  0
   31.3902   12.8441   62.4075 O   0  0  0  0  0  0  0  0  0  0  0  0
   31.0968   11.4903   62.4558 C   0  0  0  0  0  0  0  0  0  0  0  0
   30.9993   10.9383   61.0345 C   0  0  0  0  0  0  0  0  0  0  0  0
   22.6121    8.8052   52.3803 N   0  0  0  0  0  0  0  0  0  0  0  0
   22.3574    8.2606   51.5314 H   0  0  0  0  0  0  0  0  0  0  0  0
   21.6360   10.5631   53.7812 C   0  0  0  0  0  0  0  0  0  0  0  0
   21.1186   11.8535   53.9057 C   0  0  0  0  0  0  0  0  0  0  0  0
   20.9366   12.6612   52.7831 C   0  0  0  0  0  0  0  0  0  0  0  0
   21.2710   12.1777   51.5508 C   0  0  0  0  0  0  0  0  0  0  0  0
   21.7861   10.8952   51.4373 C   0  0  0  0  0  0  0  0  0  0  0  0
   21.9839   10.0597   52.5246 C   0  0  0  0  0  0  0  0  0  0  0  0
   21.2988    7.5566   56.1681 C   0  0  0  0  0  0  0  0  0  0  0  0
   21.2437    8.4032   54.9611 N   0  0  0  0  0  0  0  0  0  0  0  0
   21.7025    9.7618   54.9782 C   0  0  0  0  0  0  0  0  0  0  0  0
   22.1476   10.1581   56.1037 O   0  0  0  0  0  0  0  0  0  0  0  0
   20.8543    7.9423   54.1407 H   0  0  0  0  0  0  0  0  0  0  0  0
 32 33  1  0  0  0
 33 34  1  0  0  0
 34 35  2  0  0  0
 34 26  1  0  0  0
 26 27  2  0  0  0
 27 28  1  0  0  0
 28 29  2  0  0  0
 29 30  1  0  0  0
 30 31  2  0  0  0
 31 24  1  0  0  0
 24  1  1  0  0  0
  1  2  2  0  0  0
  2  3  1  0  0  0
  3  8  1  0  0  0
  8  9  1  0  0  0
  9 10  2  0  0  0
  9 12  1  0  0  0
 12 13  2  0  0  0
 13 14  1  0  0  0
 14 15  2  0  0  0
 15 16  1  0  0  0
 16 17  2  0  0  0
 15 18  1  0  0  0
 18 19  1  0  0  0
 19 20  1  0  0  0
 20 21  1  0  0  0
 21 22  1  0  0  0
 22 23  1  0  0  0
  3  4  2  0  0  0
  4  5  1  0  0  0
  5  6  2  0  0  0
  6  7  1  0  0  0
 31 26  1  0  0  0
  6  1  1  0  0  0
 17 12  1  0  0  0
 23 18  1  0  0  0
 33 36  1  0  0  0
 24 25  1  0  0  0
  8 11  1  0  0  0
M  END
> <minimizedAffinity>
13.72127

> <CNNscore>
0.5237067342

> <CNNaffinity>
6.3781785965

> <CNN_VS>
3.3402950764

> <CNNaffinity_variance>
0.2717953324

$$$$
[H]c1nc(N([H])C(=O)c2c([H])c([H])c(N3C([H])([H])C([H])([H])OC([H])([H])C3([H])[H])c([H])c2[H])nc(N([H])c2c([H])c([H])c([H])c([H])c2C(=O)N([H])C([H])([H])[H])c1Br


 36 39  0  0  0  0  0  0  0  0999 V2000
   23.4064    8.3198   54.4395 C   0  0  0  0  0  0  0  0  0  0  0  0
   24.1073    8.9452   55.4149 N   0  0  0  0  0  0  0  0  0  0  0  0
   25.3415    8.5885   55.7872 C   0  0  0  0  0  0  0  0  0  0  0  0
   25.9272    7.5454   55.1576 N   0  0  0  0  0  0  0  0  0  0  0  0
   25.2758    6.8800   54.1737 C   0  0  0  0  0  0  0  0  0  0  0  0
   24.0059    7.2332   53.7778 C   0  0  0  0  0  0  0  0  0  0  0  0
   23.0818    6.3012   52.4025 Br  0  0  0  0  0  0  0  0  0  0  0  0
   26.0606    9.2485   56.8081 N   0  0  0  0  0  0  0  0  0  0  0  0
   27.4318    9.5151   56.6872 C   0  0  0  0  0  0  0  0  0  0  0  0
   28.0570    9.1570   55.6287 O   0  0  0  0  0  0  0  0  0  0  0  0
   25.5367    9.5314   57.6595 H   0  0  0  0  0  0  0  0  0  0  0  0
   28.1995   10.1901   57.7214 C   0  0  0  0  0  0  0  0  0  0  0  0
   28.1488   11.5696   57.8212 C   0  0  0  0  0  0  0  0  0  0  0  0
   28.8520   12.2608   58.7754 C   0  0  0  0  0  0  0  0  0  0  0  0
   29.6560   11.6041   59.6955 C   0  0  0  0  0  0  0  0  0  0  0  0
   29.7090   10.2380   59.6004 C   0  0  0  0  0  0  0  0  0  0  0  0
   28.9909    9.5364   58.6267 C   0  0  0  0  0  0  0  0  0  0  0  0
   30.3936   12.3033   60.6842 N   0  0  0  0  0  0  0  0  0  0  0  0
   29.8492   13.4412   61.3920 C   0  0  0  0  0  0  0  0  0  0  0  0
   31.0010   14.3689   61.7109 C   0  0  0  0  0  0  0  0  0  0  0  0
   31.9948   13.7956   62.4499 O   0  0  0  0  0  0  0  0  0  0  0  0
   31.9717   12.4098   62.4545 C   0  0  0  0  0  0  0  0  0  0  0  0
   31.7377   11.8986   61.0338 C   0  0  0  0  0  0  0  0  0  0  0  0
   22.1127    8.7012   54.0109 N   0  0  0  0  0  0  0  0  0  0  0  0
   21.3223    8.3029   54.5572 H   0  0  0  0  0  0  0  0  0  0  0  0
   20.7892    9.2738   52.0294 C   0  0  0  0  0  0  0  0  0  0  0  0
   20.3835   10.2190   51.0858 C   0  0  0  0  0  0  0  0  0  0  0  0
   20.9433   11.4966   51.0686 C   0  0  0  0  0  0  0  0  0  0  0  0
   21.8987   11.8198   51.9888 C   0  0  0  0  0  0  0  0  0  0  0  0
   22.2939   10.8748   52.9236 C   0  0  0  0  0  0  0  0  0  0  0  0
   21.7645    9.5956   52.9774 C   0  0  0  0  0  0  0  0  0  0  0  0
   19.4792    5.7848   53.0093 C   0  0  0  0  0  0  0  0  0  0  0  0
   20.0491    7.1431   53.0896 N   0  0  0  0  0  0  0  0  0  0  0  0
   20.2301    7.9494   51.9174 C   0  0  0  0  0  0  0  0  0  0  0  0
   19.8644    7.3959   50.8303 O   0  0  0  0  0  0  0  0  0  0  0  0
   20.2987    7.4404   54.0311 H   0  0  0  0  0  0  0  0  0  0  0  0
 32 33  1  0  0  0
 33 34  1  0  0  0
 34 35  2  0  0  0
 34 26  1  0  0  0
 26 27  2  0  0  0
 27 28  1  0  0  0
 28 29  2  0  0  0
 29 30  1  0  0  0
 30 31  2  0  0  0
 31 24  1  0  0  0
 24  1  1  0  0  0
  1  2  2  0  0  0
  2  3  1  0  0  0
  3  8  1  0  0  0
  8  9  1  0  0  0
  9 10  2  0  0  0
  9 12  1  0  0  0
 12 13  2  0  0  0
 13 14  1  0  0  0
 14 15  2  0  0  0
 15 16  1  0  0  0
 16 17  2  0  0  0
 15 18  1  0  0  0
 18 19  1  0  0  0
 19 20  1  0  0  0
 20 21  1  0  0  0
 21 22  1  0  0  0
 22 23  1  0  0  0
  3  4  2  0  0  0
  4  5  1  0  0  0
  5  6  2  0  0  0
  6  7  1  0  0  0
 31 26  1  0  0  0
  6  1  1  0  0  0
 17 12  1  0  0  0
 23 18  1  0  0  0
 33 36  1  0  0  0
 24 25  1  0  0  0
  8 11  1  0  0  0
M  END
> <minimizedAffinity>
14.75753

> <CNNscore>
0.5149576068

> <CNNaffinity>
6.3856592178

> <CNN_VS>
3.2883439064

> <CNNaffinity_variance>
0.3414715827

$$$$
[H]c1nc(N([H])C(=O)c2c([H])c([H])c(N3C([H])([H])C([H])([H])OC([H])([H])C3([H])[H])c([H])c2[H])nc(N([H])c2c([H])c([H])c([H])c([H])c2C(=O)N([H])C([H])([H])[H])c1Br


 36 39  0  0  0  0  0  0  0  0999 V2000
   27.6914    9.4198   52.1336 C   0  0  0  0  0  0  0  0  0  0  0  0
   26.5541    8.6849   52.1520 N   0  0  0  0  0  0  0  0  0  0  0  0
   26.0489    8.1269   53.2576 C   0  0  0  0  0  0  0  0  0  0  0  0
   26.7064    8.3033   54.4255 N   0  0  0  0  0  0  0  0  0  0  0  0
   27.8497    9.0286   54.4703 C   0  0  0  0  0  0  0  0  0  0  0  0
   28.3838    9.6097   53.3429 C   0  0  0  0  0  0  0  0  0  0  0  0
   29.9910   10.6239   53.3953 Br  0  0  0  0  0  0  0  0  0  0  0  0
   24.8624    7.3606   53.2623 N   0  0  0  0  0  0  0  0  0  0  0  0
   23.6085    7.9479   53.4826 C   0  0  0  0  0  0  0  0  0  0  0  0
   23.5253    9.2096   53.6843 O   0  0  0  0  0  0  0  0  0  0  0  0
   24.9494    6.3386   53.0969 H   0  0  0  0  0  0  0  0  0  0  0  0
   22.3703    7.1854   53.4958 C   0  0  0  0  0  0  0  0  0  0  0  0
   22.3837    5.8655   53.9121 C   0  0  0  0  0  0  0  0  0  0  0  0
   21.2475    5.0968   53.9446 C   0  0  0  0  0  0  0  0  0  0  0  0
   20.0182    5.6102   53.5580 C   0  0  0  0  0  0  0  0  0  0  0  0
   20.0005    6.9168   53.1452 C   0  0  0  0  0  0  0  0  0  0  0  0
   21.1602    7.6978   53.1133 C   0  0  0  0  0  0  0  0  0  0  0  0
   18.8357    4.8281   53.5802 N   0  0  0  0  0  0  0  0  0  0  0  0
   17.5252    5.4156   53.7523 C   0  0  0  0  0  0  0  0  0  0  0  0
   16.6715    4.4084   54.4911 C   0  0  0  0  0  0  0  0  0  0  0  0
   16.5595    3.2013   53.8647 O   0  0  0  0  0  0  0  0  0  0  0  0
   17.5214    2.9744   52.8929 C   0  0  0  0  0  0  0  0  0  0  0  0
   18.8919    3.3909   53.4245 C   0  0  0  0  0  0  0  0  0  0  0  0
   28.2251   10.0432   50.9806 N   0  0  0  0  0  0  0  0  0  0  0  0
   28.5554   11.0210   51.1101 H   0  0  0  0  0  0  0  0  0  0  0  0
   28.5078   10.2914   48.5590 C   0  0  0  0  0  0  0  0  0  0  0  0
   28.8109    9.7263   47.3192 C   0  0  0  0  0  0  0  0  0  0  0  0
   29.0263    8.3539   47.1934 C   0  0  0  0  0  0  0  0  0  0  0  0
   28.9385    7.5596   48.3004 C   0  0  0  0  0  0  0  0  0  0  0  0
   28.6388    8.1303   49.5283 C   0  0  0  0  0  0  0  0  0  0  0  0
   28.4182    9.4874   49.6988 C   0  0  0  0  0  0  0  0  0  0  0  0
   26.5139   13.5797   48.8054 C   0  0  0  0  0  0  0  0  0  0  0  0
   26.8557   12.1450   48.7738 N   0  0  0  0  0  0  0  0  0  0  0  0
   28.2062   11.7012   48.5843 C   0  0  0  0  0  0  0  0  0  0  0  0
   29.0587   12.6374   48.4474 O   0  0  0  0  0  0  0  0  0  0  0  0
   26.0604   11.5197   48.8910 H   0  0  0  0  0  0  0  0  0  0  0  0
 32 33  1  0  0  0
 33 34  1  0  0  0
 34 35  2  0  0  0
 34 26  1  0  0  0
 26 27  2  0  0  0
 27 28  1  0  0  0
 28 29  2  0  0  0
 29 30  1  0  0  0
 30 31  2  0  0  0
 31 24  1  0  0  0
 24  1  1  0  0  0
  1  2  2  0  0  0
  2  3  1  0  0  0
  3  8  1  0  0  0
  8  9  1  0  0  0
  9 10  2  0  0  0
  9 12  1  0  0  0
 12 13  2  0  0  0
 13 14  1  0  0  0
 14 15  2  0  0  0
 15 16  1  0  0  0
 16 17  2  0  0  0
 15 18  1  0  0  0
 18 19  1  0  0  0
 19 20  1  0  0  0
 20 21  1  0  0  0
 21 22  1  0  0  0
 22 23  1  0  0  0
  3  4  2  0  0  0
  4  5  1  0  0  0
  5  6  2  0  0  0
  6  7  1  0  0  0
 31 26  1  0  0  0
  6  1  1  0  0  0
 17 12  1  0  0  0
 23 18  1  0  0  0
 33 36  1  0  0  0
 24 25  1  0  0  0
  8 11  1  0  0  0
M  END
> <minimizedAffinity>
39.00208

> <CNNscore>
0.5002930760

> <CNNaffinity>
6.2753410339

> <CNN_VS>
3.1395096779

> <CNNaffinity_variance>
0.3382828534

$$$$
[H]c1nc(N([H])C(=O)c2c([H])c([H])c(N3C([H])([H])C([H])([H])OC([H])([H])C3([H])[H])c([H])c2[H])nc(N([H])c2c([H])c([H])c([H])c([H])c2C(=O)N([H])C([H])([H])[H])c1Br


 36 39  0  0  0  0  0  0  0  0999 V2000
   20.7104    7.4199   53.3038 C   0  0  0  0  0  0  0  0  0  0  0  0
   21.6550    7.6430   54.2483 N   0  0  0  0  0  0  0  0  0  0  0  0
   22.6258    8.5549   54.1261 C   0  0  0  0  0  0  0  0  0  0  0  0
   22.6716    9.2988   52.9983 N   0  0  0  0  0  0  0  0  0  0  0  0
   21.7540    9.1213   52.0176 C   0  0  0  0  0  0  0  0  0  0  0  0
   20.7485    8.1880   52.1263 C   0  0  0  0  0  0  0  0  0  0  0  0
   19.4604    7.9277   50.7525 Br  0  0  0  0  0  0  0  0  0  0  0  0
   23.6064    8.7759   55.1184 N   0  0  0  0  0  0  0  0  0  0  0  0
   24.9758    8.6810   54.8331 C   0  0  0  0  0  0  0  0  0  0  0  0
   25.3580    8.3887   53.6465 O   0  0  0  0  0  0  0  0  0  0  0  0
   23.2774    9.0119   56.0753 H   0  0  0  0  0  0  0  0  0  0  0  0
   26.0082    8.9003   55.8334 C   0  0  0  0  0  0  0  0  0  0  0  0
   25.6488    9.2618   57.1201 C   0  0  0  0  0  0  0  0  0  0  0  0
   26.5784    9.4830   58.1049 C   0  0  0  0  0  0  0  0  0  0  0  0
   27.9370    9.3537   57.8563 C   0  0  0  0  0  0  0  0  0  0  0  0
   28.2972    8.9957   56.5835 C   0  0  0  0  0  0  0  0  0  0  0  0
   27.3473    8.7709   55.5820 C   0  0  0  0  0  0  0  0  0  0  0  0
   28.9108    9.5840   58.8608 N   0  0  0  0  0  0  0  0  0  0  0  0
   29.6567    8.5069   59.4737 C   0  0  0  0  0  0  0  0  0  0  0  0
   29.9506    8.9149   60.9007 C   0  0  0  0  0  0  0  0  0  0  0  0
   30.6441   10.0842   61.0181 O   0  0  0  0  0  0  0  0  0  0  0  0
   30.6259   10.8723   59.8780 C   0  0  0  0  0  0  0  0  0  0  0  0
   29.2059   10.9249   59.3167 C   0  0  0  0  0  0  0  0  0  0  0  0
   19.6582    6.4817   53.4276 N   0  0  0  0  0  0  0  0  0  0  0  0
   18.7040    6.8855   53.5192 H   0  0  0  0  0  0  0  0  0  0  0  0
   18.5874    4.2773   53.4300 C   0  0  0  0  0  0  0  0  0  0  0  0
   18.6823    2.8937   53.2718 C   0  0  0  0  0  0  0  0  0  0  0  0
   19.9191    2.2815   53.0682 C   0  0  0  0  0  0  0  0  0  0  0  0
   21.0462    3.0508   53.0238 C   0  0  0  0  0  0  0  0  0  0  0  0
   20.9417    4.4248   53.1801 C   0  0  0  0  0  0  0  0  0  0  0  0
   19.7349    5.0740   53.3836 C   0  0  0  0  0  0  0  0  0  0  0  0
   14.7655    4.5355   53.8488 C   0  0  0  0  0  0  0  0  0  0  0  0
   16.1121    4.0129   53.5494 N   0  0  0  0  0  0  0  0  0  0  0  0
   17.2850    4.8180   53.7310 C   0  0  0  0  0  0  0  0  0  0  0  0
   17.0598    5.9953   54.1612 O   0  0  0  0  0  0  0  0  0  0  0  0
   16.1253    3.0541   53.2062 H   0  0  0  0  0  0  0  0  0  0  0  0
 32 33  1  0  0  0
 33 34  1  0  0  0
 34 35  2  0  0  0
 34 26  1  0  0  0
 26 27  2  0  0  0
 27 28  1  0  0  0
 28 29  2  0  0  0
 29 30  1  0  0  0
 30 31  2  0  0  0
 31 24  1  0  0  0
 24  1  1  0  0  0
  1  2  2  0  0  0
  2  3  1  0  0  0
  3  8  1  0  0  0
  8  9  1  0  0  0
  9 10  2  0  0  0
  9 12  1  0  0  0
 12 13  2  0  0  0
 13 14  1  0  0  0
 14 15  2  0  0  0
 15 16  1  0  0  0
 16 17  2  0  0  0
 15 18  1  0  0  0
 18 19  1  0  0  0
 19 20  1  0  0  0
 20 21  1  0  0  0
 21 22  1  0  0  0
 22 23  1  0  0  0
  3  4  2  0  0  0
  4  5  1  0  0  0
  5  6  2  0  0  0
  6  7  1  0  0  0
 31 26  1  0  0  0
  6  1  1  0  0  0
 17 12  1  0  0  0
 23 18  1  0  0  0
 33 36  1  0  0  0
 24 25  1  0  0  0
  8 11  1  0  0  0
M  END
> <minimizedAffinity>
33.17746

> <CNNscore>
0.4644024372

> <CNNaffinity>
6.4391889572

> <CNN_VS>
2.9903750420

> <CNNaffinity_variance>
0.5213897228

$$$$
[H]c1nc(N([H])C(=O)c2c([H])c([H])c(N3C([H])([H])C([H])([H])OC([H])([H])C3([H])[H])c([H])c2[H])nc(N([H])c2c([H])c([H])c([H])c([H])c2C(=O)N([H])C([H])([H])[H])c1Br


 36 39  0  0  0  0  0  0  0  0999 V2000
   21.8468    7.6434   54.0196 C   0  0  0  0  0  0  0  0  0  0  0  0
   22.6990    7.9823   55.0160 N   0  0  0  0  0  0  0  0  0  0  0  0
   23.6598    8.9042   54.8893 C   0  0  0  0  0  0  0  0  0  0  0  0
   23.7921    9.5366   53.7019 N   0  0  0  0  0  0  0  0  0  0  0  0
   22.9691    9.2404   52.6675 C   0  0  0  0  0  0  0  0  0  0  0  0
   21.9754    8.2949   52.7799 C   0  0  0  0  0  0  0  0  0  0  0  0
   20.8200    7.8682   51.3317 Br  0  0  0  0  0  0  0  0  0  0  0  0
   24.5437    9.2466   55.9365 N   0  0  0  0  0  0  0  0  0  0  0  0
   25.9334    9.1267   55.7945 C   0  0  0  0  0  0  0  0  0  0  0  0
   26.4241    8.6985   54.6921 O   0  0  0  0  0  0  0  0  0  0  0  0
   24.1273    9.5920   56.8235 H   0  0  0  0  0  0  0  0  0  0  0  0
   26.8682    9.4686   56.8547 C   0  0  0  0  0  0  0  0  0  0  0  0
   27.3191   10.7716   56.9757 C   0  0  0  0  0  0  0  0  0  0  0  0
   28.2016   11.1527   57.9548 C   0  0  0  0  0  0  0  0  0  0  0  0
   28.6897   10.2416   58.8801 C   0  0  0  0  0  0  0  0  0  0  0  0
   28.2456    8.9504   58.7639 C   0  0  0  0  0  0  0  0  0  0  0  0
   27.3459    8.5651   57.7649 C   0  0  0  0  0  0  0  0  0  0  0  0
   29.6063   10.6175   59.8945 N   0  0  0  0  0  0  0  0  0  0  0  0
   29.2991   11.6381   60.8723 C   0  0  0  0  0  0  0  0  0  0  0  0
   30.5980   12.3258   61.2317 C   0  0  0  0  0  0  0  0  0  0  0  0
   31.5587   11.4893   61.7211 O   0  0  0  0  0  0  0  0  0  0  0  0
   31.3336   10.1480   61.4539 C   0  0  0  0  0  0  0  0  0  0  0  0
   30.9024    9.9832   59.9974 C   0  0  0  0  0  0  0  0  0  0  0  0
   20.8052    6.6933   54.1434 N   0  0  0  0  0  0  0  0  0  0  0  0
   19.9050    7.0586   54.5149 H   0  0  0  0  0  0  0  0  0  0  0  0
   19.6339    4.6328   53.5204 C   0  0  0  0  0  0  0  0  0  0  0  0
   19.6776    3.3205   53.0468 C   0  0  0  0  0  0  0  0  0  0  0  0
   20.8977    2.6834   52.8201 C   0  0  0  0  0  0  0  0  0  0  0  0
   22.0592    3.3575   53.0660 C   0  0  0  0  0  0  0  0  0  0  0  0
   22.0058    4.6617   53.5345 C   0  0  0  0  0  0  0  0  0  0  0  0
   20.8173    5.3325   53.7727 C   0  0  0  0  0  0  0  0  0  0  0  0
   15.9044    4.8436   54.4669 C   0  0  0  0  0  0  0  0  0  0  0  0
   17.2455    4.3131   54.1563 N   0  0  0  0  0  0  0  0  0  0  0  0
   18.3346    5.1827   53.8180 C   0  0  0  0  0  0  0  0  0  0  0  0
   18.0417    6.4221   53.8092 O   0  0  0  0  0  0  0  0  0  0  0  0
   17.3174    3.2981   54.1995 H   0  0  0  0  0  0  0  0  0  0  0  0
 32 33  1  0  0  0
 33 34  1  0  0  0
 34 35  2  0  0  0
 34 26  1  0  0  0
 26 27  2  0  0  0
 27 28  1  0  0  0
 28 29  2  0  0  0
 29 30  1  0  0  0
 30 31  2  0  0  0
 31 24  1  0  0  0
 24  1  1  0  0  0
  1  2  2  0  0  0
  2  3  1  0  0  0
  3  8  1  0  0  0
  8  9  1  0  0  0
  9 10  2  0  0  0
  9 12  1  0  0  0
 12 13  2  0  0  0
 13 14  1  0  0  0
 14 15  2  0  0  0
 15 16  1  0  0  0
 16 17  2  0  0  0
 15 18  1  0  0  0
 18 19  1  0  0  0
 19 20  1  0  0  0
 20 21  1  0  0  0
 21 22  1  0  0  0
 22 23  1  0  0  0
  3  4  2  0  0  0
  4  5  1  0  0  0
  5  6  2  0  0  0
  6  7  1  0  0  0
 31 26  1  0  0  0
  6  1  1  0  0  0
 17 12  1  0  0  0
 23 18  1  0  0  0
 33 36  1  0  0  0
 24 25  1  0  0  0
  8 11  1  0  0  0
M  END
> <minimizedAffinity>
33.69495

> <CNNscore>
0.4464812577

> <CNNaffinity>
6.1812705994

> <CNN_VS>
2.7598214149

> <CNNaffinity_variance>
0.3845867217

$$$$
[H]c1nc(N([H])C(=O)c2c([H])c([H])c(N3C([H])([H])C([H])([H])OC([H])([H])C3([H])[H])c([H])c2[H])nc(N([H])c2c([H])c([H])c([H])c([H])c2C(=O)N([H])C([H])([H])[H])c1Br


 36 39  0  0  0  0  0  0  0  0999 V2000
   22.2861    8.5780   54.3035 C   0  0  0  0  0  0  0  0  0  0  0  0
   23.2120    8.7570   55.2754 N   0  0  0  0  0  0  0  0  0  0  0  0
   23.7924    9.9326   55.5401 C   0  0  0  0  0  0  0  0  0  0  0  0
   23.4386   11.0062   54.7988 N   0  0  0  0  0  0  0  0  0  0  0  0
   22.5177   10.8895   53.8120 C   0  0  0  0  0  0  0  0  0  0  0  0
   21.9105    9.6881   53.5259 C   0  0  0  0  0  0  0  0  0  0  0  0
   20.6220    9.5136   52.1390 Br  0  0  0  0  0  0  0  0  0  0  0  0
   24.7587   10.1049   56.5558 N   0  0  0  0  0  0  0  0  0  0  0  0
   26.0942    9.7192   56.3732 C   0  0  0  0  0  0  0  0  0  0  0  0
   26.4580    9.1982   55.2616 O   0  0  0  0  0  0  0  0  0  0  0  0
   24.4450   10.5291   57.4508 H   0  0  0  0  0  0  0  0  0  0  0  0
   27.1108    9.8814   57.4004 C   0  0  0  0  0  0  0  0  0  0  0  0
   27.8610   11.0436   57.4434 C   0  0  0  0  0  0  0  0  0  0  0  0
   28.8340   11.2521   58.3882 C   0  0  0  0  0  0  0  0  0  0  0  0
   29.1158   10.2987   59.3557 C   0  0  0  0  0  0  0  0  0  0  0  0
   28.3752    9.1464   59.3167 C   0  0  0  0  0  0  0  0  0  0  0  0
   27.3841    8.9369   58.3525 C   0  0  0  0  0  0  0  0  0  0  0  0
   30.1216   10.4958   60.3355 N   0  0  0  0  0  0  0  0  0  0  0  0
   31.4337    9.8969   60.2256 C   0  0  0  0  0  0  0  0  0  0  0  0
   31.9231    9.6190   61.6300 C   0  0  0  0  0  0  0  0  0  0  0  0
   31.9828   10.7218   62.4315 O   0  0  0  0  0  0  0  0  0  0  0  0
   31.2468   11.8011   61.9683 C   0  0  0  0  0  0  0  0  0  0  0  0
   29.8749   11.3193   61.4989 C   0  0  0  0  0  0  0  0  0  0  0  0
   21.6389    7.3499   54.0284 N   0  0  0  0  0  0  0  0  0  0  0  0
   20.5993    7.3816   54.0187 H   0  0  0  0  0  0  0  0  0  0  0  0
   21.4454    4.9814   53.4298 C   0  0  0  0  0  0  0  0  0  0  0  0
   22.0465    3.7943   53.0078 C   0  0  0  0  0  0  0  0  0  0  0  0
   23.4310    3.7079   52.8607 C   0  0  0  0  0  0  0  0  0  0  0  0
   24.2014    4.8014   53.1340 C   0  0  0  0  0  0  0  0  0  0  0  0
   23.5951    5.9770   53.5508 C   0  0  0  0  0  0  0  0  0  0  0  0
   22.2250    6.1072   53.7096 C   0  0  0  0  0  0  0  0  0  0  0  0
   17.8783    3.6451   54.0125 C   0  0  0  0  0  0  0  0  0  0  0  0
   19.3352    3.7048   53.7882 N   0  0  0  0  0  0  0  0  0  0  0  0
   20.0202    4.9569   53.6473 C   0  0  0  0  0  0  0  0  0  0  0  0
   19.2718    5.9840   53.7295 O   0  0  0  0  0  0  0  0  0  0  0  0
   19.7916    2.7956   53.7396 H   0  0  0  0  0  0  0  0  0  0  0  0
 32 33  1  0  0  0
 33 34  1  0  0  0
 34 35  2  0  0  0
 34 26  1  0  0  0
 26 27  2  0  0  0
 27 28  1  0  0  0
 28 29  2  0  0  0
 29 30  1  0  0  0
 30 31  2  0  0  0
 31 24  1  0  0  0
 24  1  1  0  0  0
  1  2  2  0  0  0
  2  3  1  0  0  0
  3  8  1  0  0  0
  8  9  1  0  0  0
  9 10  2  0  0  0
  9 12  1  0  0  0
 12 13  2  0  0  0
 13 14  1  0  0  0
 14 15  2  0  0  0
 15 16  1  0  0  0
 16 17  2  0  0  0
 15 18  1  0  0  0
 18 19  1  0  0  0
 19 20  1  0  0  0
 20 21  1  0  0  0
 21 22  1  0  0  0
 22 23  1  0  0  0
  3  4  2  0  0  0
  4  5  1  0  0  0
  5  6  2  0  0  0
  6  7  1  0  0  0
 31 26  1  0  0  0
  6  1  1  0  0  0
 17 12  1  0  0  0
 23 18  1  0  0  0
 33 36  1  0  0  0
 24 25  1  0  0  0
  8 11  1  0  0  0
M  END
> <minimizedAffinity>
32.87429

> <CNNscore>
0.4448168576

> <CNNaffinity>
6.1925258636

> <CNN_VS>
2.7545399666

> <CNNaffinity_variance>
0.4682614803

$$$$
[H]c1nc(N([H])C(=O)c2c([H])c([H])c(N3C([H])([H])C([H])([H])OC([H])([H])C3([H])[H])c([H])c2[H])nc(N([H])c2c([H])c([H])c([H])c([H])c2C(=O)N([H])C([H])([H])[H])c1Br


 36 39  0  0  0  0  0  0  0  0999 V2000
   22.2586    5.5228   54.1003 C   0  0  0  0  0  0  0  0  0  0  0  0
   22.2034    6.6965   53.4272 N   0  0  0  0  0  0  0  0  0  0  0  0
   23.0285    7.7237   53.6576 C   0  0  0  0  0  0  0  0  0  0  0  0
   23.9729    7.5881   54.6153 N   0  0  0  0  0  0  0  0  0  0  0  0
   24.0774    6.4375   55.3225 C   0  0  0  0  0  0  0  0  0  0  0  0
   23.2372    5.3706   55.0990 C   0  0  0  0  0  0  0  0  0  0  0  0
   23.3724    3.7544   56.0909 Br  0  0  0  0  0  0  0  0  0  0  0  0
   22.9584    8.9438   52.9494 N   0  0  0  0  0  0  0  0  0  0  0  0
   21.9140    9.8559   53.1574 C   0  0  0  0  0  0  0  0  0  0  0  0
   20.9967    9.5868   54.0092 O   0  0  0  0  0  0  0  0  0  0  0  0
   23.7114    9.1449   52.2624 H   0  0  0  0  0  0  0  0  0  0  0  0
   21.8133   11.1180   52.4422 C   0  0  0  0  0  0  0  0  0  0  0  0
   21.8024   12.3071   53.1504 C   0  0  0  0  0  0  0  0  0  0  0  0
   21.7082   13.5275   52.5302 C   0  0  0  0  0  0  0  0  0  0  0  0
   21.6185   13.6298   51.1497 C   0  0  0  0  0  0  0  0  0  0  0  0
   21.6291   12.4548   50.4446 C   0  0  0  0  0  0  0  0  0  0  0  0
   21.7253   11.2125   51.0797 C   0  0  0  0  0  0  0  0  0  0  0  0
   21.5149   14.8824   50.4934 N   0  0  0  0  0  0  0  0  0  0  0  0
   20.2456   15.4232   50.0590 C   0  0  0  0  0  0  0  0  0  0  0  0
   20.5046   16.2387   48.8112 C   0  0  0  0  0  0  0  0  0  0  0  0
   21.4059   17.2494   48.9789 O   0  0  0  0  0  0  0  0  0  0  0  0
   22.1950   17.1246   50.1115 C   0  0  0  0  0  0  0  0  0  0  0  0
   22.6903   15.6843   50.2321 C   0  0  0  0  0  0  0  0  0  0  0  0
   21.4150    4.4143   53.8504 N   0  0  0  0  0  0  0  0  0  0  0  0
   21.8935    3.5481   53.5299 H   0  0  0  0  0  0  0  0  0  0  0  0
   19.1543    5.3262   53.5995 C   0  0  0  0  0  0  0  0  0  0  0  0
   17.7719    5.1580   53.6949 C   0  0  0  0  0  0  0  0  0  0  0  0
   17.2300    3.9890   54.2293 C   0  0  0  0  0  0  0  0  0  0  0  0
   18.0676    3.0013   54.6619 C   0  0  0  0  0  0  0  0  0  0  0  0
   19.4395    3.1767   54.5612 C   0  0  0  0  0  0  0  0  0  0  0  0
   20.0202    4.3201   54.0370 C   0  0  0  0  0  0  0  0  0  0  0  0
   20.5672    8.0341   51.2499 C   0  0  0  0  0  0  0  0  0  0  0  0
   20.0744    6.7435   51.7676 N   0  0  0  0  0  0  0  0  0  0  0  0
   19.6313    6.6012   53.1241 C   0  0  0  0  0  0  0  0  0  0  0  0
   19.7039    7.6647   53.8210 O   0  0  0  0  0  0  0  0  0  0  0  0
   20.0847    5.9852   51.0878 H   0  0  0  0  0  0  0  0  0  0  0  0
 32 33  1  0  0  0
 33 34  1  0  0  0
 34 35  2  0  0  0
 34 26  1  0  0  0
 26 27  2  0  0  0
 27 28  1  0  0  0
 28 29  2  0  0  0
 29 30  1  0  0  0
 30 31  2  0  0  0
 31 24  1  0  0  0
 24  1  1  0  0  0
  1  2  2  0  0  0
  2  3  1  0  0  0
  3  8  1  0  0  0
  8  9  1  0  0  0
  9 10  2  0  0  0
  9 12  1  0  0  0
 12 13  2  0  0  0
 13 14  1  0  0  0
 14 15  2  0  0  0
 15 16  1  0  0  0
 16 17  2  0  0  0
 15 18  1  0  0  0
 18 19  1  0  0  0
 19 20  1  0  0  0
 20 21  1  0  0  0
 21 22  1  0  0  0
 22 23  1  0  0  0
  3  4  2  0  0  0
  4  5  1  0  0  0
  5  6  2  0  0  0
  6  7  1  0  0  0
 31 26  1  0  0  0
  6  1  1  0  0  0
 17 12  1  0  0  0
 23 18  1  0  0  0
 33 36  1  0  0  0
 24 25  1  0  0  0
  8 11  1  0  0  0
M  END
> <minimizedAffinity>
47.49931

> <CNNscore>
0.4279055297

> <CNNaffinity>
6.0926065445

> <CNN_VS>
2.6070599556

> <CNNaffinity_variance>
0.5479462147

$$$$
[H]c1nc(N([H])C(=O)c2c([H])c([H])c(N3C([H])([H])C([H])([H])OC([H])([H])C3([H])[H])c([H])c2[H])nc(N([H])c2c([H])c([H])c([H])c([H])c2C(=O)N([H])C([H])([H])[H])c1Br


 36 39  0  0  0  0  0  0  0  0999 V2000
   22.5282    8.4341   54.2115 C   0  0  0  0  0  0  0  0  0  0  0  0
   23.3180    8.7979   55.2497 N   0  0  0  0  0  0  0  0  0  0  0  0
   24.6150    9.1000   55.1253 C   0  0  0  0  0  0  0  0  0  0  0  0
   25.1745    9.0406   53.8961 N   0  0  0  0  0  0  0  0  0  0  0  0
   24.4352    8.6829   52.8187 C   0  0  0  0  0  0  0  0  0  0  0  0
   23.0998    8.3688   52.9281 C   0  0  0  0  0  0  0  0  0  0  0  0
   22.0563    7.8596   51.4228 Br  0  0  0  0  0  0  0  0  0  0  0  0
   25.4279    9.4760   56.2174 N   0  0  0  0  0  0  0  0  0  0  0  0
   26.8092    9.2354   56.2231 C   0  0  0  0  0  0  0  0  0  0  0  0
   27.3577    8.6625   55.2179 O   0  0  0  0  0  0  0  0  0  0  0  0
   24.9654    9.9396   57.0240 H   0  0  0  0  0  0  0  0  0  0  0  0
   27.6715    9.6084   57.3331 C   0  0  0  0  0  0  0  0  0  0  0  0
   28.0342   10.9332   57.5029 C   0  0  0  0  0  0  0  0  0  0  0  0
   28.8457   11.3440   58.5303 C   0  0  0  0  0  0  0  0  0  0  0  0
   29.3469   10.4425   59.4579 C   0  0  0  0  0  0  0  0  0  0  0  0
   28.9901    9.1297   59.2935 C   0  0  0  0  0  0  0  0  0  0  0  0
   28.1627    8.7142   58.2453 C   0  0  0  0  0  0  0  0  0  0  0  0
   30.1911   10.8493   60.5220 N   0  0  0  0  0  0  0  0  0  0  0  0
   29.7882   11.8478   61.4880 C   0  0  0  0  0  0  0  0  0  0  0  0
   31.0350   12.5879   61.9203 C   0  0  0  0  0  0  0  0  0  0  0  0
   32.0038   11.7896   62.4555 O   0  0  0  0  0  0  0  0  0  0  0  0
   31.8518   10.4421   62.1688 C   0  0  0  0  0  0  0  0  0  0  0  0
   31.5062   10.2708   60.6905 C   0  0  0  0  0  0  0  0  0  0  0  0
   21.1479    8.1404   54.3180 N   0  0  0  0  0  0  0  0  0  0  0  0
   20.5489    8.9153   54.6682 H   0  0  0  0  0  0  0  0  0  0  0  0
   21.1236    5.7139   53.9760 C   0  0  0  0  0  0  0  0  0  0  0  0
   20.4091    4.5421   53.7212 C   0  0  0  0  0  0  0  0  0  0  0  0
   19.0437    4.5853   53.4389 C   0  0  0  0  0  0  0  0  0  0  0  0
   18.4047    5.7916   53.4135 C   0  0  0  0  0  0  0  0  0  0  0  0
   19.1224    6.9502   53.6697 C   0  0  0  0  0  0  0  0  0  0  0  0
   20.4781    6.9534   53.9550 C   0  0  0  0  0  0  0  0  0  0  0  0
   24.8689    5.2563   53.1932 C   0  0  0  0  0  0  0  0  0  0  0  0
   23.4080    5.3869   53.0348 N   0  0  0  0  0  0  0  0  0  0  0  0
   22.5477    5.5891   54.1643 C   0  0  0  0  0  0  0  0  0  0  0  0
   23.1477    5.6416   55.2864 O   0  0  0  0  0  0  0  0  0  0  0  0
   23.0805    5.3160   52.0731 H   0  0  0  0  0  0  0  0  0  0  0  0
 32 33  1  0  0  0
 33 34  1  0  0  0
 34 35  2  0  0  0
 34 26  1  0  0  0
 26 27  2  0  0  0
 27 28  1  0  0  0
 28 29  2  0  0  0
 29 30  1  0  0  0
 30 31  2  0  0  0
 31 24  1  0  0  0
 24  1  1  0  0  0
  1  2  2  0  0  0
  2  3  1  0  0  0
  3  8  1  0  0  0
  8  9  1  0  0  0
  9 10  2  0  0  0
  9 12  1  0  0  0
 12 13  2  0  0  0
 13 14  1  0  0  0
 14 15  2  0  0  0
 15 16  1  0  0  0
 16 17  2  0  0  0
 15 18  1  0  0  0
 18 19  1  0  0  0
 19 20  1  0  0  0
 20 21  1  0  0  0
 21 22  1  0  0  0
 22 23  1  0  0  0
  3  4  2  0  0  0
  4  5  1  0  0  0
  5  6  2  0  0  0
  6  7  1  0  0  0
 31 26  1  0  0  0
  6  1  1  0  0  0
 17 12  1  0  0  0
 23 18  1  0  0  0
 33 36  1  0  0  0
 24 25  1  0  0  0
  8 11  1  0  0  0
M  END
> <minimizedAffinity>
19.53939

> <CNNscore>
0.4056740105

> <CNNaffinity>
5.9921560287

> <CNN_VS>
2.4308619499

> <CNNaffinity_variance>
0.1070678607

$$$$
[H]c1nc([H])c2c(c1[H])c1c3c(c4c5c([H])c([H])c([H])c([H])c5n5c4c1n2[C@]1([H])O[C@@]5(C([H])([H])[H])[C@]([H])(OC([H])([H])[H])[C@]([H])(N([H])C([H])([H])[H])C1([H])[H])C([H])([H])N([H])C3=O


 37 44  0  0  0  0  0  0  0  0999 V2000
   21.7234   11.0184   54.0118 C   0  0  0  0  0  0  0  0  0  0  0  0
   22.6969   11.5038   54.9905 C   0  0  0  0  0  0  0  0  0  0  0  0
   23.0141   10.5888   56.1380 C   0  0  0  0  0  0  0  0  0  0  0  0
   22.3015    9.5099   56.2979 O   0  0  0  0  0  0  0  0  0  0  0  0
   21.7644    8.7772   55.2379 C   0  0  0  0  0  0  0  0  0  0  0  0
   20.7279    7.9170   55.9894 C   0  0  0  0  0  0  0  0  0  0  0  0
   21.0864    9.6944   54.3453 C   0  0  0  0  0  0  0  0  0  0  0  0
   22.8012    7.9263   54.6713 N   0  0  0  0  0  0  0  0  0  0  0  0
   22.6447    6.7816   54.0082 C   0  0  0  0  0  0  0  0  0  0  0  0
   21.5499    6.0658   53.6138 C   0  0  0  0  0  0  0  0  0  0  0  0
   21.6631    4.8831   52.9220 C   0  0  0  0  0  0  0  0  0  0  0  0
   22.9091    4.3512   52.5858 C   0  0  0  0  0  0  0  0  0  0  0  0
   24.0121    5.0614   52.9764 C   0  0  0  0  0  0  0  0  0  0  0  0
   23.8844    6.2398   53.6660 C   0  0  0  0  0  0  0  0  0  0  0  0
   24.8249    7.1079   54.1493 C   0  0  0  0  0  0  0  0  0  0  0  0
   26.2170    7.1035   54.1251 C   0  0  0  0  0  0  0  0  0  0  0  0
   27.1591    6.1218   53.5388 C   0  0  0  0  0  0  0  0  0  0  0  0
   28.4768    6.6017   53.7962 N   0  0  0  0  0  0  0  0  0  0  0  0
   28.3766    7.8304   54.5156 C   0  0  0  0  0  0  0  0  0  0  0  0
   29.3786    8.4517   54.8632 O   0  0  0  0  0  0  0  0  0  0  0  0
   26.9703    8.1221   54.7080 C   0  0  0  0  0  0  0  0  0  0  0  0
   26.2532    9.1404   55.3123 C   0  0  0  0  0  0  0  0  0  0  0  0
   26.6194   10.2961   55.9681 C   0  0  0  0  0  0  0  0  0  0  0  0
   27.8267   10.8651   56.2772 C   0  0  0  0  0  0  0  0  0  0  0  0
   27.8253   12.0689   56.9647 C   0  0  0  0  0  0  0  0  0  0  0  0
   26.6828   12.6767   57.3272 N   0  0  0  0  0  0  0  0  0  0  0  0
   25.4775   12.1310   57.0316 C   0  0  0  0  0  0  0  0  0  0  0  0
   25.4538   10.9500   56.3573 C   0  0  0  0  0  0  0  0  0  0  0  0
   24.4172   10.2319   55.9608 N   0  0  0  0  0  0  0  0  0  0  0  0
   24.8512    9.1383   55.3324 C   0  0  0  0  0  0  0  0  0  0  0  0
   24.1295    8.1043   54.7428 C   0  0  0  0  0  0  0  0  0  0  0  0
   29.3459    6.1018   53.4890 H   0  0  0  0  0  0  0  0  0  0  0  0
   21.7993   12.1282   51.8915 C   0  0  0  0  0  0  0  0  0  0  0  0
   22.2994   10.9929   52.6474 N   0  0  0  0  0  0  0  0  0  0  0  0
   23.3237   11.0625   52.7174 H   0  0  0  0  0  0  0  0  0  0  0  0
   20.6941    9.2091   53.1014 O   0  0  0  0  0  0  0  0  0  0  0  0
   21.7191    8.9540   52.2191 C   0  0  0  0  0  0  0  0  0  0  0  0
 33 34  1  0  0  0
 34  1  1  0  0  0
  1  2  1  0  0  0
  2  3  1  0  0  0
  3  4  1  0  0  0
  4  5  1  0  0  0
  5  6  1  0  0  0
  5  7  1  0  0  0
  7 36  1  0  0  0
 36 37  1  0  0  0
  5  8  1  0  0  0
  8  9  1  0  0  0
  9 10  2  0  0  0
 10 11  1  0  0  0
 11 12  2  0  0  0
 12 13  1  0  0  0
 13 14  2  0  0  0
 14 15  1  0  0  0
 15 16  2  0  0  0
 16 17  1  0  0  0
 17 18  1  0  0  0
 18 19  1  0  0  0
 19 20  2  0  0  0
 19 21  1  0  0  0
 21 22  2  0  0  0
 22 23  1  0  0  0
 23 24  2  0  0  0
 24 25  1  0  0  0
 25 26  2  0  0  0
 26 27  1  0  0  0
 27 28  2  0  0  0
 28 29  1  0  0  0
 29 30  1  0  0  0
 30 31  2  0  0  0
  7  1  1  0  0  0
 31  8  1  0  0  0
 29  3  1  0  0  0
 14  9  1  0  0  0
 31 15  1  0  0  0
 21 16  1  0  0  0
 30 22  1  0  0  0
 28 23  1  0  0  0
 34 35  1  0  0  0
 18 32  1  0  0  0
M  END
> <minimizedAffinity>
63.65052

> <CNNscore>
0.2616505325

> <CNNaffinity>
6.2913751602

> <CNN_VS>
1.6461416483

> <CNNaffinity_variance>
0.6218655705

$$$$
[H]c1nc([H])c2c(c1[H])c1c3c(c4c5c([H])c([H])c([H])c([H])c5n5c4c1n2[C@]1([H])O[C@@]5(C([H])([H])[H])[C@]([H])(OC([H])([H])[H])[C@]([H])(N([H])C([H])([H])[H])C1([H])[H])C([H])([H])N([H])C3=O


 37 44  0  0  0  0  0  0  0  0999 V2000
   21.0571    9.0564   56.0234 C   0  0  0  0  0  0  0  0  0  0  0  0
   20.0789    8.2318   55.3134 C   0  0  0  0  0  0  0  0  0  0  0  0
   20.2463    8.1166   53.8256 C   0  0  0  0  0  0  0  0  0  0  0  0
   21.1254    8.8722   53.2310 O   0  0  0  0  0  0  0  0  0  0  0  0
   22.3313    9.2595   53.8182 C   0  0  0  0  0  0  0  0  0  0  0  0
   22.7361   10.4199   52.8862 C   0  0  0  0  0  0  0  0  0  0  0  0
   22.0510    9.7700   55.1443 C   0  0  0  0  0  0  0  0  0  0  0  0
   23.2905    8.1702   53.7030 N   0  0  0  0  0  0  0  0  0  0  0  0
   24.6200    8.2524   53.6869 C   0  0  0  0  0  0  0  0  0  0  0  0
   25.4990    9.2918   53.8028 C   0  0  0  0  0  0  0  0  0  0  0  0
   26.8601    9.1041   53.7524 C   0  0  0  0  0  0  0  0  0  0  0  0
   27.4154    7.8352   53.5796 C   0  0  0  0  0  0  0  0  0  0  0  0
   26.5427    6.7872   53.4629 C   0  0  0  0  0  0  0  0  0  0  0  0
   25.1873    6.9890   53.5149 C   0  0  0  0  0  0  0  0  0  0  0  0
   24.1412    6.1117   53.4258 C   0  0  0  0  0  0  0  0  0  0  0  0
   24.0763    4.7329   53.2444 C   0  0  0  0  0  0  0  0  0  0  0  0
   25.1628    3.7373   53.0912 C   0  0  0  0  0  0  0  0  0  0  0  0
   24.5430    2.4627   52.9358 N   0  0  0  0  0  0  0  0  0  0  0  0
   23.1277    2.6406   52.9850 C   0  0  0  0  0  0  0  0  0  0  0  0
   22.3590    1.6880   52.8727 O   0  0  0  0  0  0  0  0  0  0  0  0
   22.8611    4.0519   53.1766 C   0  0  0  0  0  0  0  0  0  0  0  0
   21.7209    4.8269   53.3015 C   0  0  0  0  0  0  0  0  0  0  0  0
   20.3737    4.5362   53.2994 C   0  0  0  0  0  0  0  0  0  0  0  0
   19.6575    3.3763   53.1628 C   0  0  0  0  0  0  0  0  0  0  0  0
   18.2742    3.4523   53.2117 C   0  0  0  0  0  0  0  0  0  0  0  0
   17.6344    4.6211   53.3871 N   0  0  0  0  0  0  0  0  0  0  0  0
   18.3235    5.7805   53.5243 C   0  0  0  0  0  0  0  0  0  0  0  0
   19.6820    5.7307   53.4797 C   0  0  0  0  0  0  0  0  0  0  0  0
   20.5608    6.7124   53.5877 N   0  0  0  0  0  0  0  0  0  0  0  0
   21.7942    6.2153   53.4844 C   0  0  0  0  0  0  0  0  0  0  0  0
   23.0241    6.8643   53.5452 C   0  0  0  0  0  0  0  0  0  0  0  0
   25.0781    1.5698   52.8093 H   0  0  0  0  0  0  0  0  0  0  0  0
   21.8759    6.8957   56.6514 C   0  0  0  0  0  0  0  0  0  0  0  0
   21.7526    8.2797   57.0756 N   0  0  0  0  0  0  0  0  0  0  0  0
   22.6937    8.6729   57.2121 H   0  0  0  0  0  0  0  0  0  0  0  0
   23.1328    9.9799   55.9943 O   0  0  0  0  0  0  0  0  0  0  0  0
   23.8846   11.1006   55.7245 C   0  0  0  0  0  0  0  0  0  0  0  0
 33 34  1  0  0  0
 34  1  1  0  0  0
  1  2  1  0  0  0
  2  3  1  0  0  0
  3  4  1  0  0  0
  4  5  1  0  0  0
  5  6  1  0  0  0
  5  7  1  0  0  0
  7 36  1  0  0  0
 36 37  1  0  0  0
  5  8  1  0  0  0
  8  9  1  0  0  0
  9 10  2  0  0  0
 10 11  1  0  0  0
 11 12  2  0  0  0
 12 13  1  0  0  0
 13 14  2  0  0  0
 14 15  1  0  0  0
 15 16  2  0  0  0
 16 17  1  0  0  0
 17 18  1  0  0  0
 18 19  1  0  0  0
 19 20  2  0  0  0
 19 21  1  0  0  0
 21 22  2  0  0  0
 22 23  1  0  0  0
 23 24  2  0  0  0
 24 25  1  0  0  0
 25 26  2  0  0  0
 26 27  1  0  0  0
 27 28  2  0  0  0
 28 29  1  0  0  0
 29 30  1  0  0  0
 30 31  2  0  0  0
  7  1  1  0  0  0
 31  8  1  0  0  0
 29  3  1  0  0  0
 14  9  1  0  0  0
 31 15  1  0  0  0
 21 16  1  0  0  0
 30 22  1  0  0  0
 28 23  1  0  0  0
 34 35  1  0  0  0
 18 32  1  0  0  0
M  END
> <minimizedAffinity>
76.02324

> <CNNscore>
0.2027509511

> <CNNaffinity>
6.1634607315

> <CNN_VS>
1.2496474981

> <CNNaffinity_variance>
0.6275617480

$$$$
[H]c1nc([H])c2c(c1[H])c1c3c(c4c5c([H])c([H])c([H])c([H])c5n5c4c1n2[C@]1([H])O[C@@]5(C([H])([H])[H])[C@]([H])(OC([H])([H])[H])[C@]([H])(N([H])C([H])([H])[H])C1([H])[H])C([H])([H])N([H])C3=O


 37 44  0  0  0  0  0  0  0  0999 V2000
   19.2937    6.6926   52.5576 C   0  0  0  0  0  0  0  0  0  0  0  0
   20.4032    5.8461   52.9976 C   0  0  0  0  0  0  0  0  0  0  0  0
   21.7309    6.0747   52.3344 C   0  0  0  0  0  0  0  0  0  0  0  0
   21.7917    6.8740   51.3074 O   0  0  0  0  0  0  0  0  0  0  0  0
   20.9847    8.0037   51.1615 C   0  0  0  0  0  0  0  0  0  0  0  0
   21.1791    8.2941   49.6591 C   0  0  0  0  0  0  0  0  0  0  0  0
   19.6111    7.6201   51.4135 C   0  0  0  0  0  0  0  0  0  0  0  0
   21.5381    9.0920   51.9549 N   0  0  0  0  0  0  0  0  0  0  0  0
   21.3924   10.4013   51.7574 C   0  0  0  0  0  0  0  0  0  0  0  0
   20.6988   11.1426   50.8430 C   0  0  0  0  0  0  0  0  0  0  0  0
   20.7136   12.5173   50.8576 C   0  0  0  0  0  0  0  0  0  0  0  0
   21.4419   13.2288   51.8126 C   0  0  0  0  0  0  0  0  0  0  0  0
   22.1398   12.4948   52.7333 C   0  0  0  0  0  0  0  0  0  0  0  0
   22.1161   11.1240   52.7069 C   0  0  0  0  0  0  0  0  0  0  0  0
   22.7211   10.1963   53.5102 C   0  0  0  0  0  0  0  0  0  0  0  0
   23.5666   10.3062   54.6108 C   0  0  0  0  0  0  0  0  0  0  0  0
   24.0950   11.5105   55.2930 C   0  0  0  0  0  0  0  0  0  0  0  0
   24.9160   11.0564   56.3667 N   0  0  0  0  0  0  0  0  0  0  0  0
   24.9119    9.6291   56.3648 C   0  0  0  0  0  0  0  0  0  0  0  0
   25.5495    8.9865   57.1964 O   0  0  0  0  0  0  0  0  0  0  0  0
   24.0711    9.1861   55.2710 C   0  0  0  0  0  0  0  0  0  0  0  0
   23.6812    7.9563   54.7689 C   0  0  0  0  0  0  0  0  0  0  0  0
   23.9476    6.6554   55.1383 C   0  0  0  0  0  0  0  0  0  0  0  0
   24.7041    6.0911   56.1313 C   0  0  0  0  0  0  0  0  0  0  0  0
   24.7479    4.7080   56.2140 C   0  0  0  0  0  0  0  0  0  0  0  0
   24.0746    3.9249   55.3540 N   0  0  0  0  0  0  0  0  0  0  0  0
   23.3202    4.4624   54.3641 C   0  0  0  0  0  0  0  0  0  0  0  0
   23.2619    5.8176   54.2632 C   0  0  0  0  0  0  0  0  0  0  0  0
   22.6038    6.5659   53.3946 N   0  0  0  0  0  0  0  0  0  0  0  0
   22.8290    7.8535   53.6602 C   0  0  0  0  0  0  0  0  0  0  0  0
   22.3451    8.9923   53.0226 C   0  0  0  0  0  0  0  0  0  0  0  0
   25.4197   11.7003   57.0234 H   0  0  0  0  0  0  0  0  0  0  0  0
   19.7737    7.9485   54.5389 C   0  0  0  0  0  0  0  0  0  0  0  0
   18.7070    7.4429   53.6920 N   0  0  0  0  0  0  0  0  0  0  0  0
   18.1684    8.2378   53.3220 H   0  0  0  0  0  0  0  0  0  0  0  0
   18.6759    8.6398   51.5633 O   0  0  0  0  0  0  0  0  0  0  0  0
   17.8415    8.8361   50.4866 C   0  0  0  0  0  0  0  0  0  0  0  0
 33 34  1  0  0  0
 34  1  1  0  0  0
  1  2  1  0  0  0
  2  3  1  0  0  0
  3  4  1  0  0  0
  4  5  1  0  0  0
  5  6  1  0  0  0
  5  7  1  0  0  0
  7 36  1  0  0  0
 36 37  1  0  0  0
  5  8  1  0  0  0
  8  9  1  0  0  0
  9 10  2  0  0  0
 10 11  1  0  0  0
 11 12  2  0  0  0
 12 13  1  0  0  0
 13 14  2  0  0  0
 14 15  1  0  0  0
 15 16  2  0  0  0
 16 17  1  0  0  0
 17 18  1  0  0  0
 18 19  1  0  0  0
 19 20  2  0  0  0
 19 21  1  0  0  0
 21 22  2  0  0  0
 22 23  1  0  0  0
 23 24  2  0  0  0
 24 25  1  0  0  0
 25 26  2  0  0  0
 26 27  1  0  0  0
 27 28  2  0  0  0
 28 29  1  0  0  0
 29 30  1  0  0  0
 30 31  2  0  0  0
  7  1  1  0  0  0
 31  8  1  0  0  0
 29  3  1  0  0  0
 14  9  1  0  0  0
 31 15  1  0  0  0
 21 16  1  0  0  0
 30 22  1  0  0  0
 28 23  1  0  0  0
 34 35  1  0  0  0
 18 32  1  0  0  0
M  END
> <minimizedAffinity>
85.48387

> <CNNscore>
0.1841969192

> <CNNaffinity>
5.5536108017

> <CNN_VS>
1.0229580402

> <CNNaffinity_variance>
1.7430961132

$$$$
[H]c1nc([H])c2c(c1[H])c1c3c(c4c5c([H])c([H])c([H])c([H])c5n5c4c1n2[C@]1([H])O[C@@]5(C([H])([H])[H])[C@]([H])(OC([H])([H])[H])[C@]([H])(N([H])C([H])([H])[H])C1([H])[H])C([H])([H])N([H])C3=O


 37 44  0  0  0  0  0  0  0  0999 V2000
   22.6400    5.2870   53.2592 C   0  0  0  0  0  0  0  0  0  0  0  0
   24.0377    5.3530   52.8311 C   0  0  0  0  0  0  0  0  0  0  0  0
   24.4846    6.6300   52.1796 C   0  0  0  0  0  0  0  0  0  0  0  0
   23.5910    7.5290   51.8788 O   0  0  0  0  0  0  0  0  0  0  0  0
   22.4420    7.7575   52.6382 C   0  0  0  0  0  0  0  0  0  0  0  0
   21.6017    8.5741   51.6352 C   0  0  0  0  0  0  0  0  0  0  0  0
   21.8013    6.4838   52.8926 C   0  0  0  0  0  0  0  0  0  0  0  0
   22.7853    8.5821   53.7881 N   0  0  0  0  0  0  0  0  0  0  0  0
   21.9864    9.3975   54.4747 C   0  0  0  0  0  0  0  0  0  0  0  0
   20.6580    9.7046   54.3880 C   0  0  0  0  0  0  0  0  0  0  0  0
   20.0606   10.6025   55.2406 C   0  0  0  0  0  0  0  0  0  0  0  0
   20.7851   11.2491   56.2434 C   0  0  0  0  0  0  0  0  0  0  0  0
   22.1169   10.9476   56.3385 C   0  0  0  0  0  0  0  0  0  0  0  0
   22.6997   10.0499   55.4812 C   0  0  0  0  0  0  0  0  0  0  0  0
   23.9876    9.5977   55.3884 C   0  0  0  0  0  0  0  0  0  0  0  0
   25.1451    9.8860   56.1063 C   0  0  0  0  0  0  0  0  0  0  0  0
   25.3565   10.8055   57.2487 C   0  0  0  0  0  0  0  0  0  0  0  0
   26.7344   10.7197   57.6049 N   0  0  0  0  0  0  0  0  0  0  0  0
   27.3700    9.7907   56.7272 C   0  0  0  0  0  0  0  0  0  0  0  0
   28.5688    9.5366   56.8240 O   0  0  0  0  0  0  0  0  0  0  0  0
   26.3689    9.2871   55.8087 C   0  0  0  0  0  0  0  0  0  0  0  0
   26.3665    8.3867   54.7572 C   0  0  0  0  0  0  0  0  0  0  0  0
   27.3422    7.6029   54.1798 C   0  0  0  0  0  0  0  0  0  0  0  0
   28.6793    7.4279   54.4211 C   0  0  0  0  0  0  0  0  0  0  0  0
   29.3759    6.5326   53.6243 C   0  0  0  0  0  0  0  0  0  0  0  0
   28.7751    5.8459   52.6376 N   0  0  0  0  0  0  0  0  0  0  0  0
   27.4532    6.0039   52.3817 C   0  0  0  0  0  0  0  0  0  0  0  0
   26.7488    6.8772   53.1507 C   0  0  0  0  0  0  0  0  0  0  0  0
   25.4675    7.1980   53.0953 N   0  0  0  0  0  0  0  0  0  0  0  0
   25.1966    8.1010   54.0388 C   0  0  0  0  0  0  0  0  0  0  0  0
   23.9914    8.7187   54.3607 C   0  0  0  0  0  0  0  0  0  0  0  0
   27.1654   11.2668   58.3888 H   0  0  0  0  0  0  0  0  0  0  0  0
   23.6200    5.6596   55.4119 C   0  0  0  0  0  0  0  0  0  0  0  0
   22.5346    4.9985   54.7083 N   0  0  0  0  0  0  0  0  0  0  0  0
   21.6381    5.3649   55.0560 H   0  0  0  0  0  0  0  0  0  0  0  0
   20.7790    6.4555   53.8365 O   0  0  0  0  0  0  0  0  0  0  0  0
   19.5385    6.1106   53.3505 C   0  0  0  0  0  0  0  0  0  0  0  0
 33 34  1  0  0  0
 34  1  1  0  0  0
  1  2  1  0  0  0
  2  3  1  0  0  0
  3  4  1  0  0  0
  4  5  1  0  0  0
  5  6  1  0  0  0
  5  7  1  0  0  0
  7 36  1  0  0  0
 36 37  1  0  0  0
  5  8  1  0  0  0
  8  9  1  0  0  0
  9 10  2  0  0  0
 10 11  1  0  0  0
 11 12  2  0  0  0
 12 13  1  0  0  0
 13 14  2  0  0  0
 14 15  1  0  0  0
 15 16  2  0  0  0
 16 17  1  0  0  0
 17 18  1  0  0  0
 18 19  1  0  0  0
 19 20  2  0  0  0
 19 21  1  0  0  0
 21 22  2  0  0  0
 22 23  1  0  0  0
 23 24  2  0  0  0
 24 25  1  0  0  0
 25 26  2  0  0  0
 26 27  1  0  0  0
 27 28  2  0  0  0
 28 29  1  0  0  0
 29 30  1  0  0  0
 30 31  2  0  0  0
  7  1  1  0  0  0
 31  8  1  0  0  0
 29  3  1  0  0  0
 14  9  1  0  0  0
 31 15  1  0  0  0
 21 16  1  0  0  0
 30 22  1  0  0  0
 28 23  1  0  0  0
 34 35  1  0  0  0
 18 32  1  0  0  0
M  END
> <minimizedAffinity>
67.94726

> <CNNscore>
0.1841384619

> <CNNaffinity>
5.6465153694

> <CNN_VS>
1.0397406816

> <CNNaffinity_variance>
1.0900768042

$$$$
[H]c1nc([H])c2c(c1[H])c1c3c(c4c5c([H])c([H])c([H])c([H])c5n5c4c1n2[C@]1([H])O[C@@]5(C([H])([H])[H])[C@]([H])(OC([H])([H])[H])[C@]([H])(N([H])C([H])([H])[H])C1([H])[H])C([H])([H])N([H])C3=O


 37 44  0  0  0  0  0  0  0  0999 V2000
   23.2484    5.1387   55.3504 C   0  0  0  0  0  0  0  0  0  0  0  0
   24.5349    5.7663   55.6537 C   0  0  0  0  0  0  0  0  0  0  0  0
   25.2476    6.4312   54.5113 C   0  0  0  0  0  0  0  0  0  0  0  0
   24.7841    6.2743   53.3039 O   0  0  0  0  0  0  0  0  0  0  0  0
   23.4250    6.1496   53.0105 C   0  0  0  0  0  0  0  0  0  0  0  0
   23.4989    5.5904   51.5750 C   0  0  0  0  0  0  0  0  0  0  0  0
   22.8555    5.1549   53.8959 C   0  0  0  0  0  0  0  0  0  0  0  0
   22.8152    7.4717   52.9994 N   0  0  0  0  0  0  0  0  0  0  0  0
   21.7258    7.8619   52.3395 C   0  0  0  0  0  0  0  0  0  0  0  0
   20.8331    7.2146   51.5327 C   0  0  0  0  0  0  0  0  0  0  0  0
   19.7649    7.8635   50.9601 C   0  0  0  0  0  0  0  0  0  0  0  0
   19.5370    9.2238   51.1755 C   0  0  0  0  0  0  0  0  0  0  0  0
   20.4258    9.8810   51.9827 C   0  0  0  0  0  0  0  0  0  0  0  0
   21.4871    9.2211   52.5473 C   0  0  0  0  0  0  0  0  0  0  0  0
   22.4850    9.6600   53.3741 C   0  0  0  0  0  0  0  0  0  0  0  0
   22.7818   10.9063   53.9190 C   0  0  0  0  0  0  0  0  0  0  0  0
   22.0794   12.2030   53.7766 C   0  0  0  0  0  0  0  0  0  0  0  0
   22.8058   13.1586   54.5460 N   0  0  0  0  0  0  0  0  0  0  0  0
   23.9203   12.5000   55.1472 C   0  0  0  0  0  0  0  0  0  0  0  0
   24.7115   13.1080   55.8651 O   0  0  0  0  0  0  0  0  0  0  0  0
   23.8862   11.1080   54.7465 C   0  0  0  0  0  0  0  0  0  0  0  0
   24.6711    9.9955   54.9964 C   0  0  0  0  0  0  0  0  0  0  0  0
   25.8068    9.7879   55.7493 C   0  0  0  0  0  0  0  0  0  0  0  0
   26.5899   10.6037   56.5227 C   0  0  0  0  0  0  0  0  0  0  0  0
   27.6887   10.0453   57.1572 C   0  0  0  0  0  0  0  0  0  0  0  0
   27.9946    8.7429   57.0299 N   0  0  0  0  0  0  0  0  0  0  0  0
   27.2334    7.9181   56.2695 C   0  0  0  0  0  0  0  0  0  0  0  0
   26.1498    8.4434   55.6372 C   0  0  0  0  0  0  0  0  0  0  0  0
   25.2677    7.8493   54.8520 N   0  0  0  0  0  0  0  0  0  0  0  0
   24.3657    8.7432   54.4443 C   0  0  0  0  0  0  0  0  0  0  0  0
   23.2564    8.5769   53.6199 C   0  0  0  0  0  0  0  0  0  0  0  0
   22.5300   14.1670   54.6278 H   0  0  0  0  0  0  0  0  0  0  0  0
   22.0109    7.1138   55.8990 C   0  0  0  0  0  0  0  0  0  0  0  0
   22.1652    5.6991   56.1911 N   0  0  0  0  0  0  0  0  0  0  0  0
   21.2859    5.2134   55.9679 H   0  0  0  0  0  0  0  0  0  0  0  0
   21.4683    5.0533   53.9412 O   0  0  0  0  0  0  0  0  0  0  0  0
   20.9224    4.0832   53.1319 C   0  0  0  0  0  0  0  0  0  0  0  0
 33 34  1  0  0  0
 34  1  1  0  0  0
  1  2  1  0  0  0
  2  3  1  0  0  0
  3  4  1  0  0  0
  4  5  1  0  0  0
  5  6  1  0  0  0
  5  7  1  0  0  0
  7 36  1  0  0  0
 36 37  1  0  0  0
  5  8  1  0  0  0
  8  9  1  0  0  0
  9 10  2  0  0  0
 10 11  1  0  0  0
 11 12  2  0  0  0
 12 13  1  0  0  0
 13 14  2  0  0  0
 14 15  1  0  0  0
 15 16  2  0  0  0
 16 17  1  0  0  0
 17 18  1  0  0  0
 18 19  1  0  0  0
 19 20  2  0  0  0
 19 21  1  0  0  0
 21 22  2  0  0  0
 22 23  1  0  0  0
 23 24  2  0  0  0
 24 25  1  0  0  0
 25 26  2  0  0  0
 26 27  1  0  0  0
 27 28  2  0  0  0
 28 29  1  0  0  0
 29 30  1  0  0  0
 30 31  2  0  0  0
  7  1  1  0  0  0
 31  8  1  0  0  0
 29  3  1  0  0  0
 14  9  1  0  0  0
 31 15  1  0  0  0
 21 16  1  0  0  0
 30 22  1  0  0  0
 28 23  1  0  0  0
 34 35  1  0  0  0
 18 32  1  0  0  0
M  END
> <minimizedAffinity>
78.65582

> <CNNscore>
0.1261463314

> <CNNaffinity>
5.6346297264

> <CNN_VS>
0.7107878923

> <CNNaffinity_variance>
0.8964253664

$$$$
[H]c1nc([H])c2c(c1[H])c1c3c(c4c5c([H])c([H])c([H])c([H])c5n5c4c1n2[C@]1([H])O[C@@]5(C([H])([H])[H])[C@]([H])(OC([H])([H])[H])[C@]([H])(N([H])C([H])([H])[H])C1([H])[H])C([H])([H])N([H])C3=O


 37 44  0  0  0  0  0  0  0  0999 V2000
   22.2042   11.2025   54.1244 C   0  0  0  0  0  0  0  0  0  0  0  0
   23.5057   11.0807   54.7819 C   0  0  0  0  0  0  0  0  0  0  0  0
   23.6393   10.0042   55.8203 C   0  0  0  0  0  0  0  0  0  0  0  0
   22.5722    9.3602   56.1995 O   0  0  0  0  0  0  0  0  0  0  0  0
   21.5028    9.0729   55.3494 C   0  0  0  0  0  0  0  0  0  0  0  0
   20.4162    8.7062   56.3809 C   0  0  0  0  0  0  0  0  0  0  0  0
   21.1307   10.2887   54.6559 C   0  0  0  0  0  0  0  0  0  0  0  0
   21.8348    7.9088   54.5403 N   0  0  0  0  0  0  0  0  0  0  0  0
   20.9958    7.0410   53.9767 C   0  0  0  0  0  0  0  0  0  0  0  0
   19.6336    6.9519   53.9199 C   0  0  0  0  0  0  0  0  0  0  0  0
   18.9974    5.9305   53.2551 C   0  0  0  0  0  0  0  0  0  0  0  0
   19.7149    4.9276   52.6009 C   0  0  0  0  0  0  0  0  0  0  0  0
   21.0803    5.0085   52.6519 C   0  0  0  0  0  0  0  0  0  0  0  0
   21.7017    6.0330   53.3188 C   0  0  0  0  0  0  0  0  0  0  0  0
   23.0277    6.3176   53.4997 C   0  0  0  0  0  0  0  0  0  0  0  0
   24.1960    5.6802   53.0909 C   0  0  0  0  0  0  0  0  0  0  0  0
   24.3816    4.4460   52.2925 C   0  0  0  0  0  0  0  0  0  0  0  0
   25.7864    4.2398   52.1621 N   0  0  0  0  0  0  0  0  0  0  0  0
   26.4623    5.2929   52.8487 C   0  0  0  0  0  0  0  0  0  0  0  0
   27.6897    5.3461   52.8885 O   0  0  0  0  0  0  0  0  0  0  0  0
   25.4599    6.1724   53.4154 C   0  0  0  0  0  0  0  0  0  0  0  0
   25.4862    7.3341   54.1678 C   0  0  0  0  0  0  0  0  0  0  0  0
   26.5057    8.1165   54.6659 C   0  0  0  0  0  0  0  0  0  0  0  0
   27.8722    8.0339   54.6134 C   0  0  0  0  0  0  0  0  0  0  0  0
   28.6117    9.0233   55.2426 C   0  0  0  0  0  0  0  0  0  0  0  0
   28.0240   10.0430   55.8914 N   0  0  0  0  0  0  0  0  0  0  0  0
   26.6736   10.1439   55.9557 C   0  0  0  0  0  0  0  0  0  0  0  0
   25.9269    9.1846   55.3455 C   0  0  0  0  0  0  0  0  0  0  0  0
   24.6123    9.0670   55.2706 N   0  0  0  0  0  0  0  0  0  0  0  0
   24.3053    7.9708   54.5756 C   0  0  0  0  0  0  0  0  0  0  0  0
   23.0593    7.4512   54.2363 C   0  0  0  0  0  0  0  0  0  0  0  0
   26.2078    3.4343   51.6393 H   0  0  0  0  0  0  0  0  0  0  0  0
   21.9037   12.2972   52.0161 C   0  0  0  0  0  0  0  0  0  0  0  0
   22.3290   11.0637   52.6549 N   0  0  0  0  0  0  0  0  0  0  0  0
   23.3153   10.8880   52.4200 H   0  0  0  0  0  0  0  0  0  0  0  0
   20.2524   10.1735   53.5825 O   0  0  0  0  0  0  0  0  0  0  0  0
   20.7738    9.5779   52.4566 C   0  0  0  0  0  0  0  0  0  0  0  0
 33 34  1  0  0  0
 34  1  1  0  0  0
  1  2  1  0  0  0
  2  3  1  0  0  0
  3  4  1  0  0  0
  4  5  1  0  0  0
  5  6  1  0  0  0
  5  7  1  0  0  0
  7 36  1  0  0  0
 36 37  1  0  0  0
  5  8  1  0  0  0
  8  9  1  0  0  0
  9 10  2  0  0  0
 10 11  1  0  0  0
 11 12  2  0  0  0
 12 13  1  0  0  0
 13 14  2  0  0  0
 14 15  1  0  0  0
 15 16  2  0  0  0
 16 17  1  0  0  0
 17 18  1  0  0  0
 18 19  1  0  0  0
 19 20  2  0  0  0
 19 21  1  0  0  0
 21 22  2  0  0  0
 22 23  1  0  0  0
 23 24  2  0  0  0
 24 25  1  0  0  0
 25 26  2  0  0  0
 26 27  1  0  0  0
 27 28  2  0  0  0
 28 29  1  0  0  0
 29 30  1  0  0  0
 30 31  2  0  0  0
  7  1  1  0  0  0
 31  8  1  0  0  0
 29  3  1  0  0  0
 14  9  1  0  0  0
 31 15  1  0  0  0
 21 16  1  0  0  0
 30 22  1  0  0  0
 28 23  1  0  0  0
 34 35  1  0  0  0
 18 32  1  0  0  0
M  END
> <minimizedAffinity>
64.77537

> <CNNscore>
0.1141125932

> <CNNaffinity>
5.9408364296

> <CNN_VS>
0.6779242754

> <CNNaffinity_variance>
0.7792236805

$$$$
[H]c1nc([H])c2c(c1[H])c1c3c(c4c5c([H])c([H])c([H])c([H])c5n5c4c1n2[C@]1([H])O[C@@]5(C([H])([H])[H])[C@]([H])(OC([H])([H])[H])[C@]([H])(N([H])C([H])([H])[H])C1([H])[H])C([H])([H])N([H])C3=O


 37 44  0  0  0  0  0  0  0  0999 V2000
   20.3670    9.3452   53.1125 C   0  0  0  0  0  0  0  0  0  0  0  0
   19.6121    8.0918   53.1244 C   0  0  0  0  0  0  0  0  0  0  0  0
   20.2445    6.9164   52.4364 C   0  0  0  0  0  0  0  0  0  0  0  0
   21.3247    7.1056   51.7331 O   0  0  0  0  0  0  0  0  0  0  0  0
   22.3004    8.0496   52.0585 C   0  0  0  0  0  0  0  0  0  0  0  0
   23.0746    8.1222   50.7264 C   0  0  0  0  0  0  0  0  0  0  0  0
   21.6447    9.3153   52.3146 C   0  0  0  0  0  0  0  0  0  0  0  0
   23.1578    7.5097   53.1042 N   0  0  0  0  0  0  0  0  0  0  0  0
   24.4225    7.8331   53.3699 C   0  0  0  0  0  0  0  0  0  0  0  0
   25.2936    8.7388   52.8340 C   0  0  0  0  0  0  0  0  0  0  0  0
   26.5783    8.8797   53.3029 C   0  0  0  0  0  0  0  0  0  0  0  0
   27.0600    8.1003   54.3560 C   0  0  0  0  0  0  0  0  0  0  0  0
   26.1943    7.1901   54.8999 C   0  0  0  0  0  0  0  0  0  0  0  0
   24.9155    7.0602   54.4221 C   0  0  0  0  0  0  0  0  0  0  0  0
   23.8907    6.2369   54.8015 C   0  0  0  0  0  0  0  0  0  0  0  0
   23.7819    5.2511   55.7786 C   0  0  0  0  0  0  0  0  0  0  0  0
   24.7789    4.7661   56.7614 C   0  0  0  0  0  0  0  0  0  0  0  0
   24.1468    3.7438   57.5283 N   0  0  0  0  0  0  0  0  0  0  0  0
   22.8105    3.5844   57.0526 C   0  0  0  0  0  0  0  0  0  0  0  0
   22.0489    2.7576   57.5498 O   0  0  0  0  0  0  0  0  0  0  0  0
   22.6060    4.5264   55.9708 C   0  0  0  0  0  0  0  0  0  0  0  0
   21.5506    4.8450   55.1335 C   0  0  0  0  0  0  0  0  0  0  0  0
   20.2590    4.3778   55.0187 C   0  0  0  0  0  0  0  0  0  0  0  0
   19.5388    3.4185   55.6803 C   0  0  0  0  0  0  0  0  0  0  0  0
   18.2250    3.2043   55.2934 C   0  0  0  0  0  0  0  0  0  0  0  0
   17.6552    3.9070   54.2996 N   0  0  0  0  0  0  0  0  0  0  0  0
   18.3497    4.8607   53.6318 C   0  0  0  0  0  0  0  0  0  0  0  0
   19.6408    5.0888   53.9938 C   0  0  0  0  0  0  0  0  0  0  0  0
   20.5098    5.9536   53.4993 N   0  0  0  0  0  0  0  0  0  0  0  0
   21.6674    5.8395   54.1519 C   0  0  0  0  0  0  0  0  0  0  0  0
   22.8571    6.5427   53.9849 C   0  0  0  0  0  0  0  0  0  0  0  0
   24.6232    3.2226   58.3035 H   0  0  0  0  0  0  0  0  0  0  0  0
   20.8850    8.7020   55.3600 C   0  0  0  0  0  0  0  0  0  0  0  0
   20.6205    9.8334   54.4879 N   0  0  0  0  0  0  0  0  0  0  0  0
   21.4464   10.4470   54.4761 H   0  0  0  0  0  0  0  0  0  0  0  0
   22.4042   10.3271   52.8943 O   0  0  0  0  0  0  0  0  0  0  0  0
   21.9325   11.6046   52.6955 C   0  0  0  0  0  0  0  0  0  0  0  0
 33 34  1  0  0  0
 34  1  1  0  0  0
  1  2  1  0  0  0
  2  3  1  0  0  0
  3  4  1  0  0  0
  4  5  1  0  0  0
  5  6  1  0  0  0
  5  7  1  0  0  0
  7 36  1  0  0  0
 36 37  1  0  0  0
  5  8  1  0  0  0
  8  9  1  0  0  0
  9 10  2  0  0  0
 10 11  1  0  0  0
 11 12  2  0  0  0
 12 13  1  0  0  0
 13 14  2  0  0  0
 14 15  1  0  0  0
 15 16  2  0  0  0
 16 17  1  0  0  0
 17 18  1  0  0  0
 18 19  1  0  0  0
 19 20  2  0  0  0
 19 21  1  0  0  0
 21 22  2  0  0  0
 22 23  1  0  0  0
 23 24  2  0  0  0
 24 25  1  0  0  0
 25 26  2  0  0  0
 26 27  1  0  0  0
 27 28  2  0  0  0
 28 29  1  0  0  0
 29 30  1  0  0  0
 30 31  2  0  0  0
  7  1  1  0  0  0
 31  8  1  0  0  0
 29  3  1  0  0  0
 14  9  1  0  0  0
 31 15  1  0  0  0
 21 16  1  0  0  0
 30 22  1  0  0  0
 28 23  1  0  0  0
 34 35  1  0  0  0
 18 32  1  0  0  0
M  END
> <minimizedAffinity>
78.63554

> <CNNscore>
0.1014579162

> <CNNaffinity>
5.9276080132

> <CNN_VS>
0.6014027596

> <CNNaffinity_variance>
0.9137393236

$$$$
[H]c1nc([H])c2c(c1[H])c1c3c(c4c5c([H])c([H])c([H])c([H])c5n5c4c1n2[C@]1([H])O[C@@]5(C([H])([H])[H])[C@]([H])(OC([H])([H])[H])[C@]([H])(N([H])C([H])([H])[H])C1([H])[H])C([H])([H])N([H])C3=O


 37 44  0  0  0  0  0  0  0  0999 V2000
   22.8260    8.9394   55.8098 C   0  0  0  0  0  0  0  0  0  0  0  0
   23.0604    9.9638   54.7916 C   0  0  0  0  0  0  0  0  0  0  0  0
   23.4269    9.4792   53.4184 C   0  0  0  0  0  0  0  0  0  0  0  0
   23.6804    8.2131   53.2449 O   0  0  0  0  0  0  0  0  0  0  0  0
   23.0417    7.1951   53.9554 C   0  0  0  0  0  0  0  0  0  0  0  0
   23.9891    6.0135   53.6635 C   0  0  0  0  0  0  0  0  0  0  0  0
   23.0869    7.5237   55.3652 C   0  0  0  0  0  0  0  0  0  0  0  0
   21.7358    6.9450   53.3621 N   0  0  0  0  0  0  0  0  0  0  0  0
   21.0261    5.8182   53.3977 C   0  0  0  0  0  0  0  0  0  0  0  0
   21.2238    4.6009   53.9857 C   0  0  0  0  0  0  0  0  0  0  0  0
   20.3128    3.5781   53.8674 C   0  0  0  0  0  0  0  0  0  0  0  0
   19.1334    3.7326   53.1367 C   0  0  0  0  0  0  0  0  0  0  0  0
   18.9262    4.9489   52.5442 C   0  0  0  0  0  0  0  0  0  0  0  0
   19.8435    5.9604   52.6705 C   0  0  0  0  0  0  0  0  0  0  0  0
   19.8508    7.2373   52.1792 C   0  0  0  0  0  0  0  0  0  0  0  0
   18.9567    7.9499   51.3848 C   0  0  0  0  0  0  0  0  0  0  0  0
   17.6585    7.5376   50.8019 C   0  0  0  0  0  0  0  0  0  0  0  0
   17.1538    8.6545   50.0734 N   0  0  0  0  0  0  0  0  0  0  0  0
   18.0898    9.7262   50.1856 C   0  0  0  0  0  0  0  0  0  0  0  0
   17.8894   10.8101   49.6417 O   0  0  0  0  0  0  0  0  0  0  0  0
   19.1970    9.2690   51.0010 C   0  0  0  0  0  0  0  0  0  0  0  0
   20.3772    9.8306   51.4570 C   0  0  0  0  0  0  0  0  0  0  0  0
   20.9529   11.0741   51.3093 C   0  0  0  0  0  0  0  0  0  0  0  0
   20.5807   12.2154   50.6491 C   0  0  0  0  0  0  0  0  0  0  0  0
   21.4243   13.3134   50.7147 C   0  0  0  0  0  0  0  0  0  0  0  0
   22.5794   13.2797   51.4009 N   0  0  0  0  0  0  0  0  0  0  0  0
   22.9668   12.1609   52.0611 C   0  0  0  0  0  0  0  0  0  0  0  0
   22.1551   11.0706   52.0112 C   0  0  0  0  0  0  0  0  0  0  0  0
   22.3140    9.8812   52.5657 N   0  0  0  0  0  0  0  0  0  0  0  0
   21.2728    9.1067   52.2572 C   0  0  0  0  0  0  0  0  0  0  0  0
   21.0033    7.7902   52.6203 C   0  0  0  0  0  0  0  0  0  0  0  0
   16.2416    8.6447   49.5562 H   0  0  0  0  0  0  0  0  0  0  0  0
   20.7183   10.0657   55.6610 C   0  0  0  0  0  0  0  0  0  0  0  0
   21.4708    9.0627   56.3947 N   0  0  0  0  0  0  0  0  0  0  0  0
   20.9894    8.1569   56.3126 H   0  0  0  0  0  0  0  0  0  0  0  0
   22.2954    6.7700   56.2267 O   0  0  0  0  0  0  0  0  0  0  0  0
   22.7169    5.4762   56.4330 C   0  0  0  0  0  0  0  0  0  0  0  0
 33 34  1  0  0  0
 34  1  1  0  0  0
  1  2  1  0  0  0
  2  3  1  0  0  0
  3  4  1  0  0  0
  4  5  1  0  0  0
  5  6  1  0  0  0
  5  7  1  0  0  0
  7 36  1  0  0  0
 36 37  1  0  0  0
  5  8  1  0  0  0
  8  9  1  0  0  0
  9 10  2  0  0  0
 10 11  1  0  0  0
 11 12  2  0  0  0
 12 13  1  0  0  0
 13 14  2  0  0  0
 14 15  1  0  0  0
 15 16  2  0  0  0
 16 17  1  0  0  0
 17 18  1  0  0  0
 18 19  1  0  0  0
 19 20  2  0  0  0
 19 21  1  0  0  0
 21 22  2  0  0  0
 22 23  1  0  0  0
 23 24  2  0  0  0
 24 25  1  0  0  0
 25 26  2  0  0  0
 26 27  1  0  0  0
 27 28  2  0  0  0
 28 29  1  0  0  0
 29 30  1  0  0  0
 30 31  2  0  0  0
  7  1  1  0  0  0
 31  8  1  0  0  0
 29  3  1  0  0  0
 14  9  1  0  0  0
 31 15  1  0  0  0
 21 16  1  0  0  0
 30 22  1  0  0  0
 28 23  1  0  0  0
 34 35  1  0  0  0
 18 32  1  0  0  0
M  END
> <minimizedAffinity>
81.81694

> <CNNscore>
0.0781661198

> <CNNaffinity>
5.8351006508

> <CNN_VS>
0.4561071694

> <CNNaffinity_variance>
0.9858499765

$$$$
[H]c1nc([H])c2c(c1[H])c1c3c(c4c5c([H])c([H])c([H])c([H])c5n5c4c1n2[C@]1([H])O[C@@]5(C([H])([H])[H])[C@]([H])(OC([H])([H])[H])[C@]([H])(N([H])C([H])([H])[H])C1([H])[H])C([H])([H])N([H])C3=O


 37 44  0  0  0  0  0  0  0  0999 V2000
   25.7935    8.1992   53.1718 C   0  0  0  0  0  0  0  0  0  0  0  0
   25.0024    9.0929   52.3253 C   0  0  0  0  0  0  0  0  0  0  0  0
   23.6602    8.5881   51.8798 C   0  0  0  0  0  0  0  0  0  0  0  0
   23.3443    7.3468   52.1178 O   0  0  0  0  0  0  0  0  0  0  0  0
   23.7644    6.6486   53.2514 C   0  0  0  0  0  0  0  0  0  0  0  0
   23.4713    5.1995   52.8119 C   0  0  0  0  0  0  0  0  0  0  0  0
   25.1926    6.8367   53.4010 C   0  0  0  0  0  0  0  0  0  0  0  0
   22.9144    7.0093   54.3772 N   0  0  0  0  0  0  0  0  0  0  0  0
   22.6494    6.2858   55.4639 C   0  0  0  0  0  0  0  0  0  0  0  0
   23.0709    5.0633   55.9050 C   0  0  0  0  0  0  0  0  0  0  0  0
   22.6358    4.5283   57.0944 C   0  0  0  0  0  0  0  0  0  0  0  0
   21.7369    5.2108   57.9157 C   0  0  0  0  0  0  0  0  0  0  0  0
   21.3092    6.4367   57.4824 C   0  0  0  0  0  0  0  0  0  0  0  0
   21.7514    6.9583   56.2937 C   0  0  0  0  0  0  0  0  0  0  0  0
   21.4699    8.1423   55.6686 C   0  0  0  0  0  0  0  0  0  0  0  0
   20.6455    9.2141   56.0002 C   0  0  0  0  0  0  0  0  0  0  0  0
   19.7823    9.4242   57.1859 C   0  0  0  0  0  0  0  0  0  0  0  0
   19.1537   10.6939   57.0256 N   0  0  0  0  0  0  0  0  0  0  0  0
   19.5948   11.2630   55.7932 C   0  0  0  0  0  0  0  0  0  0  0  0
   19.1954   12.3631   55.4175 O   0  0  0  0  0  0  0  0  0  0  0  0
   20.5169   10.3314   55.1755 C   0  0  0  0  0  0  0  0  0  0  0  0
   21.2583   10.3142   54.0066 C   0  0  0  0  0  0  0  0  0  0  0  0
   21.4081   11.2069   52.9673 C   0  0  0  0  0  0  0  0  0  0  0  0
   20.8735   12.4386   52.6952 C   0  0  0  0  0  0  0  0  0  0  0  0
   21.2566   13.0734   51.5239 C   0  0  0  0  0  0  0  0  0  0  0  0
   22.1264   12.5132   50.6660 N   0  0  0  0  0  0  0  0  0  0  0  0
   22.6672   11.2954   50.9157 C   0  0  0  0  0  0  0  0  0  0  0  0
   22.3062   10.6533   52.0592 C   0  0  0  0  0  0  0  0  0  0  0  0
   22.6923    9.4745   52.5162 N   0  0  0  0  0  0  0  0  0  0  0  0
   22.0869    9.2312   53.6795 C   0  0  0  0  0  0  0  0  0  0  0  0
   22.1905    8.1298   54.5243 C   0  0  0  0  0  0  0  0  0  0  0  0
   18.4853   11.1017   57.7231 H   0  0  0  0  0  0  0  0  0  0  0  0
   27.5743    9.0374   54.5354 C   0  0  0  0  0  0  0  0  0  0  0  0
   26.1365    8.8433   54.4608 N   0  0  0  0  0  0  0  0  0  0  0  0
   25.6721    9.7603   54.5084 H   0  0  0  0  0  0  0  0  0  0  0  0
   25.7723    6.4323   54.5999 O   0  0  0  0  0  0  0  0  0  0  0  0
   26.9946    6.9978   54.8829 C   0  0  0  0  0  0  0  0  0  0  0  0
 33 34  1  0  0  0
 34  1  1  0  0  0
  1  2  1  0  0  0
  2  3  1  0  0  0
  3  4  1  0  0  0
  4  5  1  0  0  0
  5  6  1  0  0  0
  5  7  1  0  0  0
  7 36  1  0  0  0
 36 37  1  0  0  0
  5  8  1  0  0  0
  8  9  1  0  0  0
  9 10  2  0  0  0
 10 11  1  0  0  0
 11 12  2  0  0  0
 12 13  1  0  0  0
 13 14  2  0  0  0
 14 15  1  0  0  0
 15 16  2  0  0  0
 16 17  1  0  0  0
 17 18  1  0  0  0
 18 19  1  0  0  0
 19 20  2  0  0  0
 19 21  1  0  0  0
 21 22  2  0  0  0
 22 23  1  0  0  0
 23 24  2  0  0  0
 24 25  1  0  0  0
 25 26  2  0  0  0
 26 27  1  0  0  0
 27 28  2  0  0  0
 28 29  1  0  0  0
 29 30  1  0  0  0
 30 31  2  0  0  0
  7  1  1  0  0  0
 31  8  1  0  0  0
 29  3  1  0  0  0
 14  9  1  0  0  0
 31 15  1  0  0  0
 21 16  1  0  0  0
 30 22  1  0  0  0
 28 23  1  0  0  0
 34 35  1  0  0  0
 18 32  1  0  0  0
M  END
> <minimizedAffinity>
83.26602

> <CNNscore>
0.0770807266

> <CNNaffinity>
5.6418318748

> <CNN_VS>
0.4348765016

> <CNNaffinity_variance>
1.3320326805

$$$$
[H]OC(=C(O[H])N1C([H])([H])C([H])([H])C([H])(Oc2c([H])c(F)c([H])c([H])c2F)C([H])([H])C1([H])[H])c1sc(C(=O)N2C([H])([H])C([H])([H])OC([H])([H])C2([H])[H])c([H])c1[H]


 34 37  0  0  0  0  0  0  0  0999 V2000
   21.7043   11.1459   53.4038 O   0  0  0  0  0  0  0  0  0  0  0  0
   22.1711    9.8013   53.4656 C   0  0  0  0  0  0  0  0  0  0  0  0
   21.6373    8.9510   52.6925 C   0  0  0  0  0  0  0  0  0  0  0  0
   20.6041    9.5050   51.8387 O   0  0  0  0  0  0  0  0  0  0  0  0
   20.8594   11.3849   52.9210 H   0  0  0  0  0  0  0  0  0  0  0  0
   20.8245    9.7498   50.9007 H   0  0  0  0  0  0  0  0  0  0  0  0
   21.8630    7.5869   52.5205 N   0  0  0  0  0  0  0  0  0  0  0  0
   20.9325    6.8709   51.5926 C   0  0  0  0  0  0  0  0  0  0  0  0
   20.0028    6.0679   52.5101 C   0  0  0  0  0  0  0  0  0  0  0  0
   20.7948    5.4744   53.6591 C   0  0  0  0  0  0  0  0  0  0  0  0
   22.2357    5.2807   53.2266 C   0  0  0  0  0  0  0  0  0  0  0  0
   22.8335    6.7119   53.1090 C   0  0  0  0  0  0  0  0  0  0  0  0
   20.1939    4.2984   54.0747 O   0  0  0  0  0  0  0  0  0  0  0  0
   18.9560    3.8090   53.7728 C   0  0  0  0  0  0  0  0  0  0  0  0
   17.7823    4.2295   54.3601 C   0  0  0  0  0  0  0  0  0  0  0  0
   16.5519    3.6719   53.9957 C   0  0  0  0  0  0  0  0  0  0  0  0
   15.3962    4.0803   54.5768 F   0  0  0  0  0  0  0  0  0  0  0  0
   16.4914    2.6965   53.0462 C   0  0  0  0  0  0  0  0  0  0  0  0
   17.6571    2.2584   52.4426 C   0  0  0  0  0  0  0  0  0  0  0  0
   18.8691    2.8210   52.8148 C   0  0  0  0  0  0  0  0  0  0  0  0
   19.9999    2.3713   52.2089 F   0  0  0  0  0  0  0  0  0  0  0  0
   23.2266    9.6197   54.4444 C   0  0  0  0  0  0  0  0  0  0  0  0
   23.0743    9.8313   55.8047 C   0  0  0  0  0  0  0  0  0  0  0  0
   24.1403    9.6711   56.5872 C   0  0  0  0  0  0  0  0  0  0  0  0
   25.3254    9.3092   56.0272 C   0  0  0  0  0  0  0  0  0  0  0  0
   24.8630    9.2073   54.3404 S   0  0  0  0  0  0  0  0  0  0  0  0
   26.6511    9.0382   56.5479 C   0  0  0  0  0  0  0  0  0  0  0  0
   27.1173    7.8643   56.3158 O   0  0  0  0  0  0  0  0  0  0  0  0
   27.4748    9.8889   57.2661 N   0  0  0  0  0  0  0  0  0  0  0  0
   27.1798   11.2484   57.6339 C   0  0  0  0  0  0  0  0  0  0  0  0
   28.3762   11.8087   58.3992 C   0  0  0  0  0  0  0  0  0  0  0  0
   28.5835   11.0347   59.5459 O   0  0  0  0  0  0  0  0  0  0  0  0
   28.8612    9.7174   59.2175 C   0  0  0  0  0  0  0  0  0  0  0  0
   28.8033    9.4203   57.7448 C   0  0  0  0  0  0  0  0  0  0  0  0
  1  2  1  0  0  0
  2 22  1  0  0  0
 22 23  2  0  0  0
 23 24  1  0  0  0
 24 25  2  0  0  0
 25 26  1  0  0  0
 25 27  1  0  0  0
 27 28  2  0  0  0
 27 29  1  0  0  0
 29 30  1  0  0  0
 30 31  1  0  0  0
 31 32  1  0  0  0
 32 33  1  0  0  0
 33 34  1  0  0  0
  2  3  2  0  0  0
  3  4  1  0  0  0
  3  7  1  0  0  0
  7  8  1  0  0  0
  8  9  1  0  0  0
  9 10  1  0  0  0
 10 11  1  0  0  0
 11 12  1  0  0  0
 10 13  1  0  0  0
 13 14  1  0  0  0
 14 15  2  0  0  0
 15 16  1  0  0  0
 16 17  1  0  0  0
 16 18  2  0  0  0
 18 19  1  0  0  0
 19 20  2  0  0  0
 20 21  1  0  0  0
 26 22  1  0  0  0
 34 29  1  0  0  0
 12  7  1  0  0  0
 20 14  1  0  0  0
  1  5  1  0  0  0
  4  6  1  0  0  0
M  END
> <minimizedAffinity>
33.97403

> <CNNscore>
0.5179051757

> <CNNaffinity>
6.2396240234

> <CNN_VS>
3.2315335274

> <CNNaffinity_variance>
0.7532455325

$$$$
[H]OC(=C(O[H])N1C([H])([H])C([H])([H])C([H])(Oc2c([H])c(F)c([H])c([H])c2F)C([H])([H])C1([H])[H])c1sc(C(=O)N2C([H])([H])C([H])([H])OC([H])([H])C2([H])[H])c([H])c1[H]


 34 37  0  0  0  0  0  0  0  0999 V2000
   22.4407    4.5521   53.6746 O   0  0  0  0  0  0  0  0  0  0  0  0
   22.2992    5.9694   53.6446 C   0  0  0  0  0  0  0  0  0  0  0  0
   21.1327    6.4476   53.5168 C   0  0  0  0  0  0  0  0  0  0  0  0
   20.0950    5.4389   53.4216 O   0  0  0  0  0  0  0  0  0  0  0  0
   21.6887    3.9455   53.4090 H   0  0  0  0  0  0  0  0  0  0  0  0
   19.5672    5.2028   54.2305 H   0  0  0  0  0  0  0  0  0  0  0  0
   20.6735    7.7612   53.4487 N   0  0  0  0  0  0  0  0  0  0  0  0
   20.0484    8.1807   52.1554 C   0  0  0  0  0  0  0  0  0  0  0  0
   21.1007    9.0675   51.4792 C   0  0  0  0  0  0  0  0  0  0  0  0
   21.7690    9.9564   52.5101 C   0  0  0  0  0  0  0  0  0  0  0  0
   20.8144   10.1880   53.6659 C   0  0  0  0  0  0  0  0  0  0  0  0
   20.7176    8.8246   54.4084 C   0  0  0  0  0  0  0  0  0  0  0  0
   22.1812   11.1327   51.9073 O   0  0  0  0  0  0  0  0  0  0  0  0
   21.5188   12.3207   51.7921 C   0  0  0  0  0  0  0  0  0  0  0  0
   21.2563   12.9593   50.5994 C   0  0  0  0  0  0  0  0  0  0  0  0
   20.5733   14.1799   50.5685 C   0  0  0  0  0  0  0  0  0  0  0  0
   20.3192   14.8130   49.3959 F   0  0  0  0  0  0  0  0  0  0  0  0
   20.1516   14.7633   51.7254 C   0  0  0  0  0  0  0  0  0  0  0  0
   20.4037   14.1403   52.9352 C   0  0  0  0  0  0  0  0  0  0  0  0
   21.0821   12.9305   52.9492 C   0  0  0  0  0  0  0  0  0  0  0  0
   21.3197   12.3403   54.1506 F   0  0  0  0  0  0  0  0  0  0  0  0
   23.5682    6.6614   53.7720 C   0  0  0  0  0  0  0  0  0  0  0  0
   24.0325    7.6108   52.8769 C   0  0  0  0  0  0  0  0  0  0  0  0
   25.2381    8.1360   53.0894 C   0  0  0  0  0  0  0  0  0  0  0  0
   25.9599    7.7249   54.1661 C   0  0  0  0  0  0  0  0  0  0  0  0
   24.8546    6.5587   54.8643 S   0  0  0  0  0  0  0  0  0  0  0  0
   27.2598    8.0715   54.7064 C   0  0  0  0  0  0  0  0  0  0  0  0
   28.2689    7.5017   54.1530 O   0  0  0  0  0  0  0  0  0  0  0  0
   27.5463    8.9395   55.7469 N   0  0  0  0  0  0  0  0  0  0  0  0
   26.5906    9.7009   56.5068 C   0  0  0  0  0  0  0  0  0  0  0  0
   27.3505   10.5344   57.5356 C   0  0  0  0  0  0  0  0  0  0  0  0
   28.0607    9.6747   58.3802 O   0  0  0  0  0  0  0  0  0  0  0  0
   28.9828    8.9232   57.6694 C   0  0  0  0  0  0  0  0  0  0  0  0
   28.9531    9.1495   56.1833 C   0  0  0  0  0  0  0  0  0  0  0  0
  1  2  1  0  0  0
  2 22  1  0  0  0
 22 23  2  0  0  0
 23 24  1  0  0  0
 24 25  2  0  0  0
 25 26  1  0  0  0
 25 27  1  0  0  0
 27 28  2  0  0  0
 27 29  1  0  0  0
 29 30  1  0  0  0
 30 31  1  0  0  0
 31 32  1  0  0  0
 32 33  1  0  0  0
 33 34  1  0  0  0
  2  3  2  0  0  0
  3  4  1  0  0  0
  3  7  1  0  0  0
  7  8  1  0  0  0
  8  9  1  0  0  0
  9 10  1  0  0  0
 10 11  1  0  0  0
 11 12  1  0  0  0
 10 13  1  0  0  0
 13 14  1  0  0  0
 14 15  2  0  0  0
 15 16  1  0  0  0
 16 17  1  0  0  0
 16 18  2  0  0  0
 18 19  1  0  0  0
 19 20  2  0  0  0
 20 21  1  0  0  0
 26 22  1  0  0  0
 34 29  1  0  0  0
 12  7  1  0  0  0
 20 14  1  0  0  0
  1  5  1  0  0  0
  4  6  1  0  0  0
M  END
> <minimizedAffinity>
26.39917

> <CNNscore>
0.5114331841

> <CNNaffinity>
6.3466448784

> <CNN_VS>
3.2458848953

> <CNNaffinity_variance>
0.2085987329

$$$$
[H]OC(=C(O[H])N1C([H])([H])C([H])([H])C([H])(Oc2c([H])c(F)c([H])c([H])c2F)C([H])([H])C1([H])[H])c1sc(C(=O)N2C([H])([H])C([H])([H])OC([H])([H])C2([H])[H])c([H])c1[H]


 34 37  0  0  0  0  0  0  0  0999 V2000
   22.2980    4.5936   53.5256 O   0  0  0  0  0  0  0  0  0  0  0  0
   22.1844    6.0091   53.6385 C   0  0  0  0  0  0  0  0  0  0  0  0
   21.0221    6.5139   53.6375 C   0  0  0  0  0  0  0  0  0  0  0  0
   19.9596    5.5337   53.5204 O   0  0  0  0  0  0  0  0  0  0  0  0
   21.5173    4.0256   53.2572 H   0  0  0  0  0  0  0  0  0  0  0  0
   19.4831    5.2295   54.3383 H   0  0  0  0  0  0  0  0  0  0  0  0
   20.5868    7.8345   53.7249 N   0  0  0  0  0  0  0  0  0  0  0  0
   20.0005    8.4250   52.4811 C   0  0  0  0  0  0  0  0  0  0  0  0
   21.0837    9.3686   51.9452 C   0  0  0  0  0  0  0  0  0  0  0  0
   21.7415   10.1080   53.0942 C   0  0  0  0  0  0  0  0  0  0  0  0
   20.7629   10.2117   54.2485 C   0  0  0  0  0  0  0  0  0  0  0  0
   20.6252    8.7682   54.8114 C   0  0  0  0  0  0  0  0  0  0  0  0
   22.1879   11.3423   52.6534 O   0  0  0  0  0  0  0  0  0  0  0  0
   21.4743   12.4793   52.4061 C   0  0  0  0  0  0  0  0  0  0  0  0
   20.6038   13.0679   53.2978 C   0  0  0  0  0  0  0  0  0  0  0  0
   19.9062   14.2337   52.9637 C   0  0  0  0  0  0  0  0  0  0  0  0
   19.0444   14.8113   53.8379 F   0  0  0  0  0  0  0  0  0  0  0  0
   20.0765   14.8128   51.7421 C   0  0  0  0  0  0  0  0  0  0  0  0
   20.9456   14.2396   50.8304 C   0  0  0  0  0  0  0  0  0  0  0  0
   21.6299   13.0837   51.1766 C   0  0  0  0  0  0  0  0  0  0  0  0
   22.4756   12.5389   50.2622 F   0  0  0  0  0  0  0  0  0  0  0  0
   23.4732    6.6677   53.7418 C   0  0  0  0  0  0  0  0  0  0  0  0
   23.9621    7.5752   52.8167 C   0  0  0  0  0  0  0  0  0  0  0  0
   25.1830    8.0715   53.0104 C   0  0  0  0  0  0  0  0  0  0  0  0
   25.8957    7.6732   54.0978 C   0  0  0  0  0  0  0  0  0  0  0  0
   24.7593    6.5615   54.8341 S   0  0  0  0  0  0  0  0  0  0  0  0
   27.2068    7.9984   54.6245 C   0  0  0  0  0  0  0  0  0  0  0  0
   28.2023    7.4314   54.0443 O   0  0  0  0  0  0  0  0  0  0  0  0
   27.5166    8.8434   55.6770 N   0  0  0  0  0  0  0  0  0  0  0  0
   26.5792    9.5975   56.4665 C   0  0  0  0  0  0  0  0  0  0  0  0
   27.3620   10.4044   57.4995 C   0  0  0  0  0  0  0  0  0  0  0  0
   28.0778    9.5225   58.3159 O   0  0  0  0  0  0  0  0  0  0  0  0
   28.9824    8.7777   57.5762 C   0  0  0  0  0  0  0  0  0  0  0  0
   28.9317    9.0334   56.0955 C   0  0  0  0  0  0  0  0  0  0  0  0
  1  2  1  0  0  0
  2 22  1  0  0  0
 22 23  2  0  0  0
 23 24  1  0  0  0
 24 25  2  0  0  0
 25 26  1  0  0  0
 25 27  1  0  0  0
 27 28  2  0  0  0
 27 29  1  0  0  0
 29 30  1  0  0  0
 30 31  1  0  0  0
 31 32  1  0  0  0
 32 33  1  0  0  0
 33 34  1  0  0  0
  2  3  2  0  0  0
  3  4  1  0  0  0
  3  7  1  0  0  0
  7  8  1  0  0  0
  8  9  1  0  0  0
  9 10  1  0  0  0
 10 11  1  0  0  0
 11 12  1  0  0  0
 10 13  1  0  0  0
 13 14  1  0  0  0
 14 15  2  0  0  0
 15 16  1  0  0  0
 16 17  1  0  0  0
 16 18  2  0  0  0
 18 19  1  0  0  0
 19 20  2  0  0  0
 20 21  1  0  0  0
 26 22  1  0  0  0
 34 29  1  0  0  0
 12  7  1  0  0  0
 20 14  1  0  0  0
  1  5  1  0  0  0
  4  6  1  0  0  0
M  END
> <minimizedAffinity>
24.62696

> <CNNscore>
0.4943220913

> <CNNaffinity>
6.3185758591

> <CNN_VS>
3.1234116554

> <CNNaffinity_variance>
0.2907835245

$$$$
[H]OC(=C(O[H])N1C([H])([H])C([H])([H])C([H])(Oc2c([H])c(F)c([H])c([H])c2F)C([H])([H])C1([H])[H])c1sc(C(=O)N2C([H])([H])C([H])([H])OC([H])([H])C2([H])[H])c([H])c1[H]


 34 37  0  0  0  0  0  0  0  0999 V2000
   25.2579    6.3558   52.8491 O   0  0  0  0  0  0  0  0  0  0  0  0
   24.7338    7.2984   53.7799 C   0  0  0  0  0  0  0  0  0  0  0  0
   23.4788    7.4716   53.8074 C   0  0  0  0  0  0  0  0  0  0  0  0
   22.7548    6.6510   52.8557 O   0  0  0  0  0  0  0  0  0  0  0  0
   24.6955    5.9847   52.1074 H   0  0  0  0  0  0  0  0  0  0  0  0
   22.3270    5.8079   53.1634 H   0  0  0  0  0  0  0  0  0  0  0  0
   22.6768    8.3070   54.5821 N   0  0  0  0  0  0  0  0  0  0  0  0
   21.2033    8.2335   54.3314 C   0  0  0  0  0  0  0  0  0  0  0  0
   20.8729    9.5113   53.5509 C   0  0  0  0  0  0  0  0  0  0  0  0
   21.6535   10.6812   54.1180 C   0  0  0  0  0  0  0  0  0  0  0  0
   21.9615   10.4164   55.5795 C   0  0  0  0  0  0  0  0  0  0  0  0
   23.0164    9.2733   55.5844 C   0  0  0  0  0  0  0  0  0  0  0  0
   20.9397   11.8511   53.9210 O   0  0  0  0  0  0  0  0  0  0  0  0
   21.0245   12.7512   52.8983 C   0  0  0  0  0  0  0  0  0  0  0  0
   21.8968   12.6507   51.8361 C   0  0  0  0  0  0  0  0  0  0  0  0
   21.9232   13.6212   50.8286 C   0  0  0  0  0  0  0  0  0  0  0  0
   22.7852   13.5272   49.7854 F   0  0  0  0  0  0  0  0  0  0  0  0
   21.0802   14.6904   50.8794 C   0  0  0  0  0  0  0  0  0  0  0  0
   20.1953   14.8122   51.9365 C   0  0  0  0  0  0  0  0  0  0  0  0
   20.1814   13.8419   52.9275 C   0  0  0  0  0  0  0  0  0  0  0  0
   19.3048   13.9862   53.9565 F   0  0  0  0  0  0  0  0  0  0  0  0
   25.7674    7.9310   54.5779 C   0  0  0  0  0  0  0  0  0  0  0  0
   26.9483    8.4402   54.0635 C   0  0  0  0  0  0  0  0  0  0  0  0
   27.8330    8.9547   54.9161 C   0  0  0  0  0  0  0  0  0  0  0  0
   27.5464    8.9611   56.2454 C   0  0  0  0  0  0  0  0  0  0  0  0
   25.9669    8.2035   56.2345 S   0  0  0  0  0  0  0  0  0  0  0  0
   28.2383    9.4337   57.4286 C   0  0  0  0  0  0  0  0  0  0  0  0
   28.8243    8.5347   58.1340 O   0  0  0  0  0  0  0  0  0  0  0  0
   28.3428   10.7346   57.8921 N   0  0  0  0  0  0  0  0  0  0  0  0
   27.7866   11.9065   57.2692 C   0  0  0  0  0  0  0  0  0  0  0  0
   28.1645   13.1225   58.1115 C   0  0  0  0  0  0  0  0  0  0  0  0
   27.6365   12.9651   59.3973 O   0  0  0  0  0  0  0  0  0  0  0  0
   28.1511   11.8366   60.0154 C   0  0  0  0  0  0  0  0  0  0  0  0
   29.0776   11.0255   59.1526 C   0  0  0  0  0  0  0  0  0  0  0  0
  1  2  1  0  0  0
  2 22  1  0  0  0
 22 23  2  0  0  0
 23 24  1  0  0  0
 24 25  2  0  0  0
 25 26  1  0  0  0
 25 27  1  0  0  0
 27 28  2  0  0  0
 27 29  1  0  0  0
 29 30  1  0  0  0
 30 31  1  0  0  0
 31 32  1  0  0  0
 32 33  1  0  0  0
 33 34  1  0  0  0
  2  3  2  0  0  0
  3  4  1  0  0  0
  3  7  1  0  0  0
  7  8  1  0  0  0
  8  9  1  0  0  0
  9 10  1  0  0  0
 10 11  1  0  0  0
 11 12  1  0  0  0
 10 13  1  0  0  0
 13 14  1  0  0  0
 14 15  2  0  0  0
 15 16  1  0  0  0
 16 17  1  0  0  0
 16 18  2  0  0  0
 18 19  1  0  0  0
 19 20  2  0  0  0
 20 21  1  0  0  0
 26 22  1  0  0  0
 34 29  1  0  0  0
 12  7  1  0  0  0
 20 14  1  0  0  0
  1  5  1  0  0  0
  4  6  1  0  0  0
M  END
> <minimizedAffinity>
25.45931

> <CNNscore>
0.4777600169

> <CNNaffinity>
6.0063829422

> <CNN_VS>
2.8696095943

> <CNNaffinity_variance>
0.1927802861

$$$$
[H]OC(=C(O[H])N1C([H])([H])C([H])([H])C([H])(Oc2c([H])c(F)c([H])c([H])c2F)C([H])([H])C1([H])[H])c1sc(C(=O)N2C([H])([H])C([H])([H])OC([H])([H])C2([H])[H])c([H])c1[H]


 34 37  0  0  0  0  0  0  0  0999 V2000
   19.3010    5.6172   52.4489 O   0  0  0  0  0  0  0  0  0  0  0  0
   20.5356    6.1305   52.9407 C   0  0  0  0  0  0  0  0  0  0  0  0
   21.3109    5.3330   53.5479 C   0  0  0  0  0  0  0  0  0  0  0  0
   20.7985    3.9796   53.6439 O   0  0  0  0  0  0  0  0  0  0  0  0
   18.9565    4.7204   52.7338 H   0  0  0  0  0  0  0  0  0  0  0  0
   21.1117    3.2916   52.9982 H   0  0  0  0  0  0  0  0  0  0  0  0
   22.5582    5.5250   54.1384 N   0  0  0  0  0  0  0  0  0  0  0  0
   22.5564    5.9254   55.5803 C   0  0  0  0  0  0  0  0  0  0  0  0
   22.9131    7.4167   55.5748 C   0  0  0  0  0  0  0  0  0  0  0  0
   23.9928    7.6874   54.5450 C   0  0  0  0  0  0  0  0  0  0  0  0
   24.8158    6.4298   54.3399 C   0  0  0  0  0  0  0  0  0  0  0  0
   23.8810    5.4349   53.5945 C   0  0  0  0  0  0  0  0  0  0  0  0
   24.7549    8.7703   54.9494 O   0  0  0  0  0  0  0  0  0  0  0  0
   26.0887    8.8280   55.2338 C   0  0  0  0  0  0  0  0  0  0  0  0
   26.6136    9.0751   56.4839 C   0  0  0  0  0  0  0  0  0  0  0  0
   27.9966    9.1217   56.6904 C   0  0  0  0  0  0  0  0  0  0  0  0
   28.5152    9.3708   57.9190 F   0  0  0  0  0  0  0  0  0  0  0  0
   28.8557    8.9215   55.6519 C   0  0  0  0  0  0  0  0  0  0  0  0
   28.3515    8.6715   54.3876 C   0  0  0  0  0  0  0  0  0  0  0  0
   26.9780    8.6285   54.1990 C   0  0  0  0  0  0  0  0  0  0  0  0
   26.5082    8.3838   52.9470 F   0  0  0  0  0  0  0  0  0  0  0  0
   20.7098    7.5417   52.6520 C   0  0  0  0  0  0  0  0  0  0  0  0
   20.7067    8.0836   51.3774 C   0  0  0  0  0  0  0  0  0  0  0  0
   20.9238    9.3918   51.2519 C   0  0  0  0  0  0  0  0  0  0  0  0
   21.1376   10.1385   52.3681 C   0  0  0  0  0  0  0  0  0  0  0  0
   21.0191    8.9035   53.6051 S   0  0  0  0  0  0  0  0  0  0  0  0
   21.3865   11.5455   52.6134 C   0  0  0  0  0  0  0  0  0  0  0  0
   21.8114   11.8450   53.7878 O   0  0  0  0  0  0  0  0  0  0  0  0
   21.2204   12.6056   51.7378 N   0  0  0  0  0  0  0  0  0  0  0  0
   20.7726   12.5191   50.3731 C   0  0  0  0  0  0  0  0  0  0  0  0
   20.7578   13.9271   49.7830 C   0  0  0  0  0  0  0  0  0  0  0  0
   19.8795   14.7214   50.5275 O   0  0  0  0  0  0  0  0  0  0  0  0
   20.2852   14.8130   51.8494 C   0  0  0  0  0  0  0  0  0  0  0  0
   21.5036   13.9971   52.1817 C   0  0  0  0  0  0  0  0  0  0  0  0
  1  2  1  0  0  0
  2 22  1  0  0  0
 22 23  2  0  0  0
 23 24  1  0  0  0
 24 25  2  0  0  0
 25 26  1  0  0  0
 25 27  1  0  0  0
 27 28  2  0  0  0
 27 29  1  0  0  0
 29 30  1  0  0  0
 30 31  1  0  0  0
 31 32  1  0  0  0
 32 33  1  0  0  0
 33 34  1  0  0  0
  2  3  2  0  0  0
  3  4  1  0  0  0
  3  7  1  0  0  0
  7  8  1  0  0  0
  8  9  1  0  0  0
  9 10  1  0  0  0
 10 11  1  0  0  0
 11 12  1  0  0  0
 10 13  1  0  0  0
 13 14  1  0  0  0
 14 15  2  0  0  0
 15 16  1  0  0  0
 16 17  1  0  0  0
 16 18  2  0  0  0
 18 19  1  0  0  0
 19 20  2  0  0  0
 20 21  1  0  0  0
 26 22  1  0  0  0
 34 29  1  0  0  0
 12  7  1  0  0  0
 20 14  1  0  0  0
  1  5  1  0  0  0
  4  6  1  0  0  0
M  END
> <minimizedAffinity>
24.94693

> <CNNscore>
0.4441585839

> <CNNaffinity>
6.2674431801

> <CNN_VS>
2.7837386131

> <CNNaffinity_variance>
0.2353564501

$$$$
[H]OC(=C(O[H])N1C([H])([H])C([H])([H])C([H])(Oc2c([H])c(F)c([H])c([H])c2F)C([H])([H])C1([H])[H])c1sc(C(=O)N2C([H])([H])C([H])([H])OC([H])([H])C2([H])[H])c([H])c1[H]


 34 37  0  0  0  0  0  0  0  0999 V2000
   19.3583    7.6836   51.4275 O   0  0  0  0  0  0  0  0  0  0  0  0
   20.5485    7.8709   52.1877 C   0  0  0  0  0  0  0  0  0  0  0  0
   21.0285    6.8687   52.7967 C   0  0  0  0  0  0  0  0  0  0  0  0
   20.2630    5.6509   52.6116 O   0  0  0  0  0  0  0  0  0  0  0  0
   18.8035    6.8543   51.5198 H   0  0  0  0  0  0  0  0  0  0  0  0
   20.5604    4.9845   51.9363 H   0  0  0  0  0  0  0  0  0  0  0  0
   22.1516    6.7306   53.6096 N   0  0  0  0  0  0  0  0  0  0  0  0
   21.9545    7.0035   55.0677 C   0  0  0  0  0  0  0  0  0  0  0  0
   22.6010    8.3738   55.3024 C   0  0  0  0  0  0  0  0  0  0  0  0
   23.8905    8.4806   54.5115 C   0  0  0  0  0  0  0  0  0  0  0  0
   24.4644    7.0926   54.2996 C   0  0  0  0  0  0  0  0  0  0  0  0
   23.5078    6.3936   53.2918 C   0  0  0  0  0  0  0  0  0  0  0  0
   24.7647    9.3310   55.1669 O   0  0  0  0  0  0  0  0  0  0  0  0
   26.0888    9.1566   55.4487 C   0  0  0  0  0  0  0  0  0  0  0  0
   26.6472    9.2866   56.7020 C   0  0  0  0  0  0  0  0  0  0  0  0
   28.0180    9.0946   56.9056 C   0  0  0  0  0  0  0  0  0  0  0  0
   28.5705    9.2279   58.1374 F   0  0  0  0  0  0  0  0  0  0  0  0
   28.8315    8.7725   55.8610 C   0  0  0  0  0  0  0  0  0  0  0  0
   28.2931    8.6365   54.5934 C   0  0  0  0  0  0  0  0  0  0  0  0
   26.9322    8.8302   54.4078 C   0  0  0  0  0  0  0  0  0  0  0  0
   26.4285    8.6934   53.1525 F   0  0  0  0  0  0  0  0  0  0  0  0
   21.0364    9.2364   52.1363 C   0  0  0  0  0  0  0  0  0  0  0  0
   21.4983    9.9419   53.2351 C   0  0  0  0  0  0  0  0  0  0  0  0
   21.8752   11.2067   53.0546 C   0  0  0  0  0  0  0  0  0  0  0  0
   21.7938   11.7518   51.8115 C   0  0  0  0  0  0  0  0  0  0  0  0
   21.1571   10.3923   50.9084 S   0  0  0  0  0  0  0  0  0  0  0  0
   22.1161   13.0497   51.2513 C   0  0  0  0  0  0  0  0  0  0  0  0
   21.2172   13.9575   51.3819 O   0  0  0  0  0  0  0  0  0  0  0  0
   23.2729   13.4294   50.5913 N   0  0  0  0  0  0  0  0  0  0  0  0
   24.4194   12.5976   50.3376 C   0  0  0  0  0  0  0  0  0  0  0  0
   25.4645   13.4326   49.6019 C   0  0  0  0  0  0  0  0  0  0  0  0
   24.9189   13.8802   48.3942 O   0  0  0  0  0  0  0  0  0  0  0  0
   23.8066   14.6775   48.6121 C   0  0  0  0  0  0  0  0  0  0  0  0
   23.4131   14.8109   50.0571 C   0  0  0  0  0  0  0  0  0  0  0  0
  1  2  1  0  0  0
  2 22  1  0  0  0
 22 23  2  0  0  0
 23 24  1  0  0  0
 24 25  2  0  0  0
 25 26  1  0  0  0
 25 27  1  0  0  0
 27 28  2  0  0  0
 27 29  1  0  0  0
 29 30  1  0  0  0
 30 31  1  0  0  0
 31 32  1  0  0  0
 32 33  1  0  0  0
 33 34  1  0  0  0
  2  3  2  0  0  0
  3  4  1  0  0  0
  3  7  1  0  0  0
  7  8  1  0  0  0
  8  9  1  0  0  0
  9 10  1  0  0  0
 10 11  1  0  0  0
 11 12  1  0  0  0
 10 13  1  0  0  0
 13 14  1  0  0  0
 14 15  2  0  0  0
 15 16  1  0  0  0
 16 17  1  0  0  0
 16 18  2  0  0  0
 18 19  1  0  0  0
 19 20  2  0  0  0
 20 21  1  0  0  0
 26 22  1  0  0  0
 34 29  1  0  0  0
 12  7  1  0  0  0
 20 14  1  0  0  0
  1  5  1  0  0  0
  4  6  1  0  0  0
M  END
> <minimizedAffinity>
36.35050

> <CNNscore>
0.4408946037

> <CNNaffinity>
6.1579313278

> <CNN_VS>
2.7149987221

> <CNNaffinity_variance>
0.6020604968

$$$$
[H]OC(=C(O[H])N1C([H])([H])C([H])([H])C([H])(Oc2c([H])c(F)c([H])c([H])c2F)C([H])([H])C1([H])[H])c1sc(C(=O)N2C([H])([H])C([H])([H])OC([H])([H])C2([H])[H])c([H])c1[H]


 34 37  0  0  0  0  0  0  0  0999 V2000
   19.4462    8.2891   54.2784 O   0  0  0  0  0  0  0  0  0  0  0  0
   20.8203    7.9350   54.1523 C   0  0  0  0  0  0  0  0  0  0  0  0
   21.0982    6.7768   53.7198 C   0  0  0  0  0  0  0  0  0  0  0  0
   19.9312    5.9733   53.4100 O   0  0  0  0  0  0  0  0  0  0  0  0
   18.7209    7.6000   54.2218 H   0  0  0  0  0  0  0  0  0  0  0  0
   19.6205    5.9056   52.4680 H   0  0  0  0  0  0  0  0  0  0  0  0
   22.3173    6.1413   53.4938 N   0  0  0  0  0  0  0  0  0  0  0  0
   22.9174    5.4203   54.6597 C   0  0  0  0  0  0  0  0  0  0  0  0
   24.0690    6.3182   55.1272 C   0  0  0  0  0  0  0  0  0  0  0  0
   24.7959    6.8951   53.9278 C   0  0  0  0  0  0  0  0  0  0  0  0
   24.6332    5.9588   52.7457 C   0  0  0  0  0  0  0  0  0  0  0  0
   23.1408    6.0740   52.3228 C   0  0  0  0  0  0  0  0  0  0  0  0
   26.1214    7.1224   54.2571 O   0  0  0  0  0  0  0  0  0  0  0  0
   26.9994    8.0229   53.7267 C   0  0  0  0  0  0  0  0  0  0  0  0
   26.8939    8.5720   52.4671 C   0  0  0  0  0  0  0  0  0  0  0  0
   27.8413    9.4876   51.9964 C   0  0  0  0  0  0  0  0  0  0  0  0
   27.7425   10.0246   50.7546 F   0  0  0  0  0  0  0  0  0  0  0  0
   28.8926    9.8562   52.7809 C   0  0  0  0  0  0  0  0  0  0  0  0
   29.0191    9.3181   54.0496 C   0  0  0  0  0  0  0  0  0  0  0  0
   28.0716    8.4115   54.5017 C   0  0  0  0  0  0  0  0  0  0  0  0
   28.2201    7.8953   55.7506 F   0  0  0  0  0  0  0  0  0  0  0  0
   21.7134    9.0050   54.5559 C   0  0  0  0  0  0  0  0  0  0  0  0
   21.5980   10.3189   54.1332 C   0  0  0  0  0  0  0  0  0  0  0  0
   22.5150   11.1927   54.5454 C   0  0  0  0  0  0  0  0  0  0  0  0
   23.5190   10.7667   55.3574 C   0  0  0  0  0  0  0  0  0  0  0  0
   23.1074    9.0707   55.5103 S   0  0  0  0  0  0  0  0  0  0  0  0
   24.6499   11.4127   55.9946 C   0  0  0  0  0  0  0  0  0  0  0  0
   24.7012   12.6913   55.8866 O   0  0  0  0  0  0  0  0  0  0  0  0
   25.6818   10.8200   56.7030 N   0  0  0  0  0  0  0  0  0  0  0  0
   25.8333    9.4139   56.9685 C   0  0  0  0  0  0  0  0  0  0  0  0
   27.0999    9.2160   57.7976 C   0  0  0  0  0  0  0  0  0  0  0  0
   28.1968    9.6886   57.0693 O   0  0  0  0  0  0  0  0  0  0  0  0
   28.0698   11.0406   56.7934 C   0  0  0  0  0  0  0  0  0  0  0  0
   26.7798   11.6512   57.2661 C   0  0  0  0  0  0  0  0  0  0  0  0
  1  2  1  0  0  0
  2 22  1  0  0  0
 22 23  2  0  0  0
 23 24  1  0  0  0
 24 25  2  0  0  0
 25 26  1  0  0  0
 25 27  1  0  0  0
 27 28  2  0  0  0
 27 29  1  0  0  0
 29 30  1  0  0  0
 30 31  1  0  0  0
 31 32  1  0  0  0
 32 33  1  0  0  0
 33 34  1  0  0  0
  2  3  2  0  0  0
  3  4  1  0  0  0
  3  7  1  0  0  0
  7  8  1  0  0  0
  8  9  1  0  0  0
  9 10  1  0  0  0
 10 11  1  0  0  0
 11 12  1  0  0  0
 10 13  1  0  0  0
 13 14  1  0  0  0
 14 15  2  0  0  0
 15 16  1  0  0  0
 16 17  1  0  0  0
 16 18  2  0  0  0
 18 19  1  0  0  0
 19 20  2  0  0  0
 20 21  1  0  0  0
 26 22  1  0  0  0
 34 29  1  0  0  0
 12  7  1  0  0  0
 20 14  1  0  0  0
  1  5  1  0  0  0
  4  6  1  0  0  0
M  END
> <minimizedAffinity>
41.25463

> <CNNscore>
0.4307287335

> <CNNaffinity>
5.6591801643

> <CNN_VS>
2.4375715256

> <CNNaffinity_variance>
0.4698902667

$$$$
[H]OC(=C(O[H])N1C([H])([H])C([H])([H])C([H])(Oc2c([H])c(F)c([H])c([H])c2F)C([H])([H])C1([H])[H])c1sc(C(=O)N2C([H])([H])C([H])([H])OC([H])([H])C2([H])[H])c([H])c1[H]


 34 37  0  0  0  0  0  0  0  0999 V2000
   23.9045    4.9393   54.2451 O   0  0  0  0  0  0  0  0  0  0  0  0
   23.5533    6.3182   54.1752 C   0  0  0  0  0  0  0  0  0  0  0  0
   22.3232    6.6205   54.2092 C   0  0  0  0  0  0  0  0  0  0  0  0
   21.4425    5.4736   54.3206 O   0  0  0  0  0  0  0  0  0  0  0  0
   23.2191    4.2181   54.1263 H   0  0  0  0  0  0  0  0  0  0  0  0
   21.0802    5.2204   55.2111 H   0  0  0  0  0  0  0  0  0  0  0  0
   21.6709    7.8505   54.1556 N   0  0  0  0  0  0  0  0  0  0  0  0
   20.5716    7.9766   53.1480 C   0  0  0  0  0  0  0  0  0  0  0  0
   21.1649    8.8340   52.0238 C   0  0  0  0  0  0  0  0  0  0  0  0
   22.0073    9.9492   52.6122 C   0  0  0  0  0  0  0  0  0  0  0  0
   21.4993   10.2802   54.0026 C   0  0  0  0  0  0  0  0  0  0  0  0
   21.8851    9.0623   54.8900 C   0  0  0  0  0  0  0  0  0  0  0  0
   21.9910   11.0393   51.7587 O   0  0  0  0  0  0  0  0  0  0  0  0
   21.4078   12.2612   51.9317 C   0  0  0  0  0  0  0  0  0  0  0  0
   20.6334   12.6137   53.0158 C   0  0  0  0  0  0  0  0  0  0  0  0
   20.0672   13.8893   53.1150 C   0  0  0  0  0  0  0  0  0  0  0  0
   19.2997   14.2362   54.1784 F   0  0  0  0  0  0  0  0  0  0  0  0
   20.2732   14.8130   52.1347 C   0  0  0  0  0  0  0  0  0  0  0  0
   21.0476   14.4816   51.0367 C   0  0  0  0  0  0  0  0  0  0  0  0
   21.6020   13.2129   50.9529 C   0  0  0  0  0  0  0  0  0  0  0  0
   22.3564   12.9115   49.8629 F   0  0  0  0  0  0  0  0  0  0  0  0
   24.7115    7.1863   54.0736 C   0  0  0  0  0  0  0  0  0  0  0  0
   25.1877    7.9762   55.1069 C   0  0  0  0  0  0  0  0  0  0  0  0
   26.2351    8.7623   54.8635 C   0  0  0  0  0  0  0  0  0  0  0  0
   26.7920    8.7594   53.6229 C   0  0  0  0  0  0  0  0  0  0  0  0
   25.7639    7.5937   52.8147 S   0  0  0  0  0  0  0  0  0  0  0  0
   27.9119    9.4499   53.0136 C   0  0  0  0  0  0  0  0  0  0  0  0
   28.7596    9.9718   53.8249 O   0  0  0  0  0  0  0  0  0  0  0  0
   28.1780    9.6173   51.6648 N   0  0  0  0  0  0  0  0  0  0  0  0
   27.3870    9.1141   50.5731 C   0  0  0  0  0  0  0  0  0  0  0  0
   28.0633    9.5174   49.2651 C   0  0  0  0  0  0  0  0  0  0  0  0
   28.1351   10.9130   49.2034 O   0  0  0  0  0  0  0  0  0  0  0  0
   28.8856   11.4227   50.2508 C   0  0  0  0  0  0  0  0  0  0  0  0
   29.3731   10.3869   51.2255 C   0  0  0  0  0  0  0  0  0  0  0  0
  1  2  1  0  0  0
  2 22  1  0  0  0
 22 23  2  0  0  0
 23 24  1  0  0  0
 24 25  2  0  0  0
 25 26  1  0  0  0
 25 27  1  0  0  0
 27 28  2  0  0  0
 27 29  1  0  0  0
 29 30  1  0  0  0
 30 31  1  0  0  0
 31 32  1  0  0  0
 32 33  1  0  0  0
 33 34  1  0  0  0
  2  3  2  0  0  0
  3  4  1  0  0  0
  3  7  1  0  0  0
  7  8  1  0  0  0
  8  9  1  0  0  0
  9 10  1  0  0  0
 10 11  1  0  0  0
 11 12  1  0  0  0
 10 13  1  0  0  0
 13 14  1  0  0  0
 14 15  2  0  0  0
 15 16  1  0  0  0
 16 17  1  0  0  0
 16 18  2  0  0  0
 18 19  1  0  0  0
 19 20  2  0  0  0
 20 21  1  0  0  0
 26 22  1  0  0  0
 34 29  1  0  0  0
 12  7  1  0  0  0
 20 14  1  0  0  0
  1  5  1  0  0  0
  4  6  1  0  0  0
M  END
> <minimizedAffinity>
35.17631

> <CNNscore>
0.4237625599

> <CNNaffinity>
6.1374807358

> <CNN_VS>
2.6008346081

> <CNNaffinity_variance>
0.2631353438

$$$$
[H]OC(=C(O[H])N1C([H])([H])C([H])([H])C([H])(Oc2c([H])c(F)c([H])c([H])c2F)C([H])([H])C1([H])[H])c1sc(C(=O)N2C([H])([H])C([H])([H])OC([H])([H])C2([H])[H])c([H])c1[H]


 34 37  0  0  0  0  0  0  0  0999 V2000
   22.2164    4.4836   53.9558 O   0  0  0  0  0  0  0  0  0  0  0  0
   21.9814    5.8713   53.7352 C   0  0  0  0  0  0  0  0  0  0  0  0
   20.8444    6.2191   53.2969 C   0  0  0  0  0  0  0  0  0  0  0  0
   19.9348    5.1093   53.0868 O   0  0  0  0  0  0  0  0  0  0  0  0
   21.5937    3.7842   53.5991 H   0  0  0  0  0  0  0  0  0  0  0  0
   19.2524    4.8989   53.7786 H   0  0  0  0  0  0  0  0  0  0  0  0
   20.3179    7.4695   52.9802 N   0  0  0  0  0  0  0  0  0  0  0  0
   20.1635    7.7762   51.5236 C   0  0  0  0  0  0  0  0  0  0  0  0
   21.2992    8.7559   51.2054 C   0  0  0  0  0  0  0  0  0  0  0  0
   21.4637    9.7456   52.3426 C   0  0  0  0  0  0  0  0  0  0  0  0
   20.1395    9.9020   53.0657 C   0  0  0  0  0  0  0  0  0  0  0  0
   19.9120    8.5594   53.8175 C   0  0  0  0  0  0  0  0  0  0  0  0
   21.9513   10.9424   51.8459 O   0  0  0  0  0  0  0  0  0  0  0  0
   21.4276   12.1983   51.9543 C   0  0  0  0  0  0  0  0  0  0  0  0
   20.6466   12.6340   53.0028 C   0  0  0  0  0  0  0  0  0  0  0  0
   20.1444   13.9395   53.0358 C   0  0  0  0  0  0  0  0  0  0  0  0
   19.3705   14.3684   54.0640 F   0  0  0  0  0  0  0  0  0  0  0  0
   20.4210   14.8101   52.0248 C   0  0  0  0  0  0  0  0  0  0  0  0
   21.2034   14.3949   50.9615 C   0  0  0  0  0  0  0  0  0  0  0  0
   21.6937   13.0975   50.9433 C   0  0  0  0  0  0  0  0  0  0  0  0
   22.4575   12.7134   49.8863 F   0  0  0  0  0  0  0  0  0  0  0  0
   23.1313    6.6928   54.0639 C   0  0  0  0  0  0  0  0  0  0  0  0
   24.0021    7.2264   53.1283 C   0  0  0  0  0  0  0  0  0  0  0  0
   25.0457    7.9261   53.5708 C   0  0  0  0  0  0  0  0  0  0  0  0
   25.2148    8.0890   54.9102 C   0  0  0  0  0  0  0  0  0  0  0  0
   23.8293    7.2045   55.5163 S   0  0  0  0  0  0  0  0  0  0  0  0
   26.1922    8.7759   55.7318 C   0  0  0  0  0  0  0  0  0  0  0  0
   25.8098    9.0892   56.9170 O   0  0  0  0  0  0  0  0  0  0  0  0
   27.4859    9.1370   55.3945 N   0  0  0  0  0  0  0  0  0  0  0  0
   28.1396    8.8828   54.1380 C   0  0  0  0  0  0  0  0  0  0  0  0
   29.5604    9.4361   54.2159 C   0  0  0  0  0  0  0  0  0  0  0  0
   29.4982   10.8129   54.4555 O   0  0  0  0  0  0  0  0  0  0  0  0
   28.8642   11.0840   55.6575 C   0  0  0  0  0  0  0  0  0  0  0  0
   28.3394    9.8682   56.3694 C   0  0  0  0  0  0  0  0  0  0  0  0
  1  2  1  0  0  0
  2 22  1  0  0  0
 22 23  2  0  0  0
 23 24  1  0  0  0
 24 25  2  0  0  0
 25 26  1  0  0  0
 25 27  1  0  0  0
 27 28  2  0  0  0
 27 29  1  0  0  0
 29 30  1  0  0  0
 30 31  1  0  0  0
 31 32  1  0  0  0
 32 33  1  0  0  0
 33 34  1  0  0  0
  2  3  2  0  0  0
  3  4  1  0  0  0
  3  7  1  0  0  0
  7  8  1  0  0  0
  8  9  1  0  0  0
  9 10  1  0  0  0
 10 11  1  0  0  0
 11 12  1  0  0  0
 10 13  1  0  0  0
 13 14  1  0  0  0
 14 15  2  0  0  0
 15 16  1  0  0  0
 16 17  1  0  0  0
 16 18  2  0  0  0
 18 19  1  0  0  0
 19 20  2  0  0  0
 20 21  1  0  0  0
 26 22  1  0  0  0
 34 29  1  0  0  0
 12  7  1  0  0  0
 20 14  1  0  0  0
  1  5  1  0  0  0
  4  6  1  0  0  0
M  END
> <minimizedAffinity>
35.22309

> <CNNscore>
0.4170926511

> <CNNaffinity>
6.1406702995

> <CNN_VS>
2.5612285137

> <CNNaffinity_variance>
0.3476385474

$$$$
[H]c1c([H])c(C(=O)N2C([H])([H])C3(C2([H])[H])C([H])([H])C([H])([H])N(C(=O)c2c([H])c([H])c(C(F)(F)F)c([H])c2[H])C([H])([H])C3([H])[H])c([H])c([H])c1C#N


 31 34  0  0  0  0  0  0  0  0999 V2000
   28.9620   11.6427   60.3987 C   0  0  0  0  0  0  0  0  0  0  0  0
   29.0708   10.6313   61.2454 O   0  0  0  0  0  0  0  0  0  0  0  0
   28.1630   11.3064   59.3131 N   0  0  0  0  0  0  0  0  0  0  0  0
   27.5642    9.9567   59.2892 C   0  0  0  0  0  0  0  0  0  0  0  0
   27.8471    9.3597   57.9468 C   0  0  0  0  0  0  0  0  0  0  0  0
   27.1278   10.1235   56.8876 C   0  0  0  0  0  0  0  0  0  0  0  0
   25.8805    9.4654   56.3560 C   0  0  0  0  0  0  0  0  0  0  0  0
   26.5687    8.9514   55.2343 N   0  0  0  0  0  0  0  0  0  0  0  0
   27.6414    9.9350   55.4956 C   0  0  0  0  0  0  0  0  0  0  0  0
   26.3843    7.9962   54.1790 C   0  0  0  0  0  0  0  0  0  0  0  0
   27.3706    7.8142   53.4221 O   0  0  0  0  0  0  0  0  0  0  0  0
   26.8088   11.5280   57.2929 C   0  0  0  0  0  0  0  0  0  0  0  0
   27.8633   12.1526   58.2092 C   0  0  0  0  0  0  0  0  0  0  0  0
   30.8818   15.3327   61.3688 C   0  0  0  0  0  0  0  0  0  0  0  0
   31.6109   14.1726   61.3619 C   0  0  0  0  0  0  0  0  0  0  0  0
   30.9846   12.9388   61.0589 C   0  0  0  0  0  0  0  0  0  0  0  0
   29.6608   12.8319   60.7639 C   0  0  0  0  0  0  0  0  0  0  0  0
   28.9399   14.0430   60.7827 C   0  0  0  0  0  0  0  0  0  0  0  0
   29.5450   15.2444   61.0771 C   0  0  0  0  0  0  0  0  0  0  0  0
   32.3790   16.4705   62.8309 F   0  0  0  0  0  0  0  0  0  0  0  0
   31.5837   16.6004   61.6919 C   0  0  0  0  0  0  0  0  0  0  0  0
   32.3791   17.0146   60.6611 F   0  0  0  0  0  0  0  0  0  0  0  0
   30.7007   17.6254   61.9793 F   0  0  0  0  0  0  0  0  0  0  0  0
   25.1316    7.2656   53.9650 C   0  0  0  0  0  0  0  0  0  0  0  0
   24.1902    7.8926   53.1329 C   0  0  0  0  0  0  0  0  0  0  0  0
   22.9436    7.3177   52.9523 C   0  0  0  0  0  0  0  0  0  0  0  0
   22.5594    6.1465   53.5518 C   0  0  0  0  0  0  0  0  0  0  0  0
   23.4966    5.5434   54.3642 C   0  0  0  0  0  0  0  0  0  0  0  0
   24.7695    6.0956   54.5693 C   0  0  0  0  0  0  0  0  0  0  0  0
   21.2489    5.6033   53.3522 C   0  0  0  0  0  0  0  0  0  0  0  0
   20.1765    5.1750   53.1689 N   0  0  0  0  0  0  0  0  0  0  0  0
 20 21  1  0  0  0
 21 22  1  0  0  0
 21 23  1  0  0  0
 21 14  1  0  0  0
 14 15  2  0  0  0
 15 16  1  0  0  0
 16 17  2  0  0  0
 17 18  1  0  0  0
 18 19  2  0  0  0
 17  1  1  0  0  0
  1  2  2  0  0  0
  1  3  1  0  0  0
  3  4  1  0  0  0
  4  5  1  0  0  0
  5  6  1  0  0  0
  6  7  1  0  0  0
  7  8  1  0  0  0
  8  9  1  0  0  0
  8 10  1  0  0  0
 10 11  2  0  0  0
 10 24  1  0  0  0
 24 25  2  0  0  0
 25 26  1  0  0  0
 26 27  2  0  0  0
 27 28  1  0  0  0
 28 29  2  0  0  0
 27 30  1  0  0  0
 30 31  3  0  0  0
  6 12  1  0  0  0
 12 13  1  0  0  0
 19 14  1  0  0  0
 13  3  1  0  0  0
  9  6  1  0  0  0
 29 24  1  0  0  0
M  END
> <minimizedAffinity>
13.90978

> <CNNscore>
0.5103722811

> <CNNaffinity>
5.6180272102

> <CNN_VS>
2.8672852516

> <CNNaffinity_variance>
0.4153305590

$$$$
[H]c1c([H])c(C(=O)N2C([H])([H])C3(C2([H])[H])C([H])([H])C([H])([H])N(C(=O)c2c([H])c([H])c(C(F)(F)F)c([H])c2[H])C([H])([H])C3([H])[H])c([H])c([H])c1C#N


 31 34  0  0  0  0  0  0  0  0999 V2000
   20.3806    6.9250   53.6355 C   0  0  0  0  0  0  0  0  0  0  0  0
   19.8913    8.0512   53.1417 O   0  0  0  0  0  0  0  0  0  0  0  0
   21.5079    7.1636   54.4114 N   0  0  0  0  0  0  0  0  0  0  0  0
   21.9433    8.5643   54.5830 C   0  0  0  0  0  0  0  0  0  0  0  0
   23.4079    8.6230   54.2828 C   0  0  0  0  0  0  0  0  0  0  0  0
   24.1692    7.8505   55.3057 C   0  0  0  0  0  0  0  0  0  0  0  0
   24.8651    8.6825   56.3522 C   0  0  0  0  0  0  0  0  0  0  0  0
   26.0985    8.6031   55.6679 N   0  0  0  0  0  0  0  0  0  0  0  0
   25.5565    7.4532   54.9126 C   0  0  0  0  0  0  0  0  0  0  0  0
   27.3963    9.2161   55.6742 C   0  0  0  0  0  0  0  0  0  0  0  0
   28.1833    8.8495   54.7659 O   0  0  0  0  0  0  0  0  0  0  0  0
   23.3440    6.8005   55.9802 C   0  0  0  0  0  0  0  0  0  0  0  0
   22.2908    6.1716   55.0653 C   0  0  0  0  0  0  0  0  0  0  0  0
   18.1010    3.4180   52.7713 C   0  0  0  0  0  0  0  0  0  0  0  0
   19.4142    3.4828   52.3857 C   0  0  0  0  0  0  0  0  0  0  0  0
   20.1782    4.6458   52.6500 C   0  0  0  0  0  0  0  0  0  0  0  0
   19.6717    5.7374   53.2847 C   0  0  0  0  0  0  0  0  0  0  0  0
   18.3180    5.6387   53.6649 C   0  0  0  0  0  0  0  0  0  0  0  0
   17.5718    4.5100   53.4095 C   0  0  0  0  0  0  0  0  0  0  0  0
   16.8842    2.1613   51.1544 F   0  0  0  0  0  0  0  0  0  0  0  0
   17.3425    2.1772   52.4721 C   0  0  0  0  0  0  0  0  0  0  0  0
   18.1022    1.0596   52.6731 F   0  0  0  0  0  0  0  0  0  0  0  0
   16.2076    2.0599   53.2539 F   0  0  0  0  0  0  0  0  0  0  0  0
   27.8127   10.2079   56.6701 C   0  0  0  0  0  0  0  0  0  0  0  0
   28.4154    9.6962   57.8306 C   0  0  0  0  0  0  0  0  0  0  0  0
   28.7536   10.5542   58.8635 C   0  0  0  0  0  0  0  0  0  0  0  0
   28.5291   11.9058   58.8249 C   0  0  0  0  0  0  0  0  0  0  0  0
   27.9380   12.3915   57.6775 C   0  0  0  0  0  0  0  0  0  0  0  0
   27.5834   11.5530   56.6105 C   0  0  0  0  0  0  0  0  0  0  0  0
   28.8755   12.7494   59.9297 C   0  0  0  0  0  0  0  0  0  0  0  0
   29.1394   13.4538   60.8248 N   0  0  0  0  0  0  0  0  0  0  0  0
 20 21  1  0  0  0
 21 22  1  0  0  0
 21 23  1  0  0  0
 21 14  1  0  0  0
 14 15  2  0  0  0
 15 16  1  0  0  0
 16 17  2  0  0  0
 17 18  1  0  0  0
 18 19  2  0  0  0
 17  1  1  0  0  0
  1  2  2  0  0  0
  1  3  1  0  0  0
  3  4  1  0  0  0
  4  5  1  0  0  0
  5  6  1  0  0  0
  6  7  1  0  0  0
  7  8  1  0  0  0
  8  9  1  0  0  0
  8 10  1  0  0  0
 10 11  2  0  0  0
 10 24  1  0  0  0
 24 25  2  0  0  0
 25 26  1  0  0  0
 26 27  2  0  0  0
 27 28  1  0  0  0
 28 29  2  0  0  0
 27 30  1  0  0  0
 30 31  3  0  0  0
  6 12  1  0  0  0
 12 13  1  0  0  0
 19 14  1  0  0  0
 13  3  1  0  0  0
  9  6  1  0  0  0
 29 24  1  0  0  0
M  END
> <minimizedAffinity>
41.84495

> <CNNscore>
0.5043950081

> <CNNaffinity>
5.6187524796

> <CNN_VS>
2.8340706825

> <CNNaffinity_variance>
0.1422916055

$$$$
[H]c1c([H])c(C(=O)N2C([H])([H])C3(C2([H])[H])C([H])([H])C([H])([H])N(C(=O)c2c([H])c([H])c(C(F)(F)F)c([H])c2[H])C([H])([H])C3([H])[H])c([H])c([H])c1C#N


 31 34  0  0  0  0  0  0  0  0999 V2000
   27.2591    9.6908   56.9243 C   0  0  0  0  0  0  0  0  0  0  0  0
   28.1220    9.0771   56.1303 O   0  0  0  0  0  0  0  0  0  0  0  0
   25.9654    9.2311   56.7125 N   0  0  0  0  0  0  0  0  0  0  0  0
   25.7681    8.1631   55.7117 C   0  0  0  0  0  0  0  0  0  0  0  0
   24.6571    8.5916   54.8057 C   0  0  0  0  0  0  0  0  0  0  0  0
   23.3758    8.6551   55.5652 C   0  0  0  0  0  0  0  0  0  0  0  0
   22.4365    7.4985   55.3380 C   0  0  0  0  0  0  0  0  0  0  0  0
   21.6803    8.2317   54.3965 N   0  0  0  0  0  0  0  0  0  0  0  0
   22.2910    9.4672   54.9324 C   0  0  0  0  0  0  0  0  0  0  0  0
   20.6714    8.0197   53.3979 C   0  0  0  0  0  0  0  0  0  0  0  0
   20.3527    9.0249   52.7146 O   0  0  0  0  0  0  0  0  0  0  0  0
   23.5756    8.8454   57.0357 C   0  0  0  0  0  0  0  0  0  0  0  0
   24.7987    9.6985   57.3795 C   0  0  0  0  0  0  0  0  0  0  0  0
   28.9179   12.4313   59.7493 C   0  0  0  0  0  0  0  0  0  0  0  0
   28.2627   12.9116   58.6459 C   0  0  0  0  0  0  0  0  0  0  0  0
   27.7222   12.0155   57.6915 C   0  0  0  0  0  0  0  0  0  0  0  0
   27.8162   10.6631   57.8076 C   0  0  0  0  0  0  0  0  0  0  0  0
   28.4984   10.2029   58.9519 C   0  0  0  0  0  0  0  0  0  0  0  0
   29.0255   11.0709   59.8819 C   0  0  0  0  0  0  0  0  0  0  0  0
   30.8568   13.4901   60.6401 F   0  0  0  0  0  0  0  0  0  0  0  0
   29.4662   13.4107   60.7211 C   0  0  0  0  0  0  0  0  0  0  0  0
   28.9550   14.6617   60.5208 F   0  0  0  0  0  0  0  0  0  0  0  0
   29.1975   13.0516   62.0294 F   0  0  0  0  0  0  0  0  0  0  0  0
   20.0265    6.7234   53.1684 C   0  0  0  0  0  0  0  0  0  0  0  0
   18.6772    6.6339   53.5467 C   0  0  0  0  0  0  0  0  0  0  0  0
   18.0173    5.4203   53.4526 C   0  0  0  0  0  0  0  0  0  0  0  0
   18.6138    4.2706   53.0042 C   0  0  0  0  0  0  0  0  0  0  0  0
   19.9385    4.3768   52.6354 C   0  0  0  0  0  0  0  0  0  0  0  0
   20.6385    5.5895   52.7156 C   0  0  0  0  0  0  0  0  0  0  0  0
   17.8949    3.0327   52.9473 C   0  0  0  0  0  0  0  0  0  0  0  0
   17.3294    2.0101   52.9081 N   0  0  0  0  0  0  0  0  0  0  0  0
 20 21  1  0  0  0
 21 22  1  0  0  0
 21 23  1  0  0  0
 21 14  1  0  0  0
 14 15  2  0  0  0
 15 16  1  0  0  0
 16 17  2  0  0  0
 17 18  1  0  0  0
 18 19  2  0  0  0
 17  1  1  0  0  0
  1  2  2  0  0  0
  1  3  1  0  0  0
  3  4  1  0  0  0
  4  5  1  0  0  0
  5  6  1  0  0  0
  6  7  1  0  0  0
  7  8  1  0  0  0
  8  9  1  0  0  0
  8 10  1  0  0  0
 10 11  2  0  0  0
 10 24  1  0  0  0
 24 25  2  0  0  0
 25 26  1  0  0  0
 26 27  2  0  0  0
 27 28  1  0  0  0
 28 29  2  0  0  0
 27 30  1  0  0  0
 30 31  3  0  0  0
  6 12  1  0  0  0
 12 13  1  0  0  0
 19 14  1  0  0  0
 13  3  1  0  0  0
  9  6  1  0  0  0
 29 24  1  0  0  0
M  END
> <minimizedAffinity>
41.09536

> <CNNscore>
0.4920714200

> <CNNaffinity>
5.5554285049

> <CNN_VS>
2.7336676121

> <CNNaffinity_variance>
0.2834815681

$$$$
[H]c1c([H])c(C(=O)N2C([H])([H])C3(C2([H])[H])C([H])([H])C([H])([H])N(C(=O)c2c([H])c([H])c(C(F)(F)F)c([H])c2[H])C([H])([H])C3([H])[H])c([H])c([H])c1C#N


 31 34  0  0  0  0  0  0  0  0999 V2000
   24.6581    8.5896   55.3594 C   0  0  0  0  0  0  0  0  0  0  0  0
   24.2362    8.9810   56.5513 O   0  0  0  0  0  0  0  0  0  0  0  0
   23.6599    7.9134   54.6693 N   0  0  0  0  0  0  0  0  0  0  0  0
   22.3434    7.7722   55.3235 C   0  0  0  0  0  0  0  0  0  0  0  0
   21.9456    6.3326   55.2341 C   0  0  0  0  0  0  0  0  0  0  0  0
   21.7155    5.9549   53.8104 C   0  0  0  0  0  0  0  0  0  0  0  0
   20.2693    5.8565   53.3977 C   0  0  0  0  0  0  0  0  0  0  0  0
   20.2660    4.4530   53.5595 N   0  0  0  0  0  0  0  0  0  0  0  0
   21.7437    4.4880   53.5201 C   0  0  0  0  0  0  0  0  0  0  0  0
   19.3376    3.3609   53.6335 C   0  0  0  0  0  0  0  0  0  0  0  0
   19.8319    2.2336   53.8856 O   0  0  0  0  0  0  0  0  0  0  0  0
   22.4438    6.8366   52.8456 C   0  0  0  0  0  0  0  0  0  0  0  0
   23.7894    7.3384   53.3744 C   0  0  0  0  0  0  0  0  0  0  0  0
   28.6735    9.8060   54.5594 C   0  0  0  0  0  0  0  0  0  0  0  0
   27.9784    9.1027   53.6109 C   0  0  0  0  0  0  0  0  0  0  0  0
   26.6520    8.6776   53.8682 C   0  0  0  0  0  0  0  0  0  0  0  0
   26.0048    8.9340   55.0372 C   0  0  0  0  0  0  0  0  0  0  0  0
   26.7489    9.6565   55.9916 C   0  0  0  0  0  0  0  0  0  0  0  0
   28.0387   10.0712   55.7454 C   0  0  0  0  0  0  0  0  0  0  0  0
   30.1721   10.6747   52.9243 F   0  0  0  0  0  0  0  0  0  0  0  0
   30.0605   10.2298   54.2419 C   0  0  0  0  0  0  0  0  0  0  0  0
   30.4842   11.2321   55.0680 F   0  0  0  0  0  0  0  0  0  0  0  0
   30.9613    9.1860   54.3514 F   0  0  0  0  0  0  0  0  0  0  0  0
   17.8948    3.5161   53.4254 C   0  0  0  0  0  0  0  0  0  0  0  0
   17.2984    4.6175   54.0603 C   0  0  0  0  0  0  0  0  0  0  0  0
   15.9257    4.7867   53.9947 C   0  0  0  0  0  0  0  0  0  0  0  0
   15.0904    3.9237   53.3343 C   0  0  0  0  0  0  0  0  0  0  0  0
   15.6928    2.8486   52.7152 C   0  0  0  0  0  0  0  0  0  0  0  0
   17.0800    2.6458   52.7591 C   0  0  0  0  0  0  0  0  0  0  0  0
   13.6727    4.1290   53.3148 C   0  0  0  0  0  0  0  0  0  0  0  0
   12.5174    4.3041   53.2745 N   0  0  0  0  0  0  0  0  0  0  0  0
 20 21  1  0  0  0
 21 22  1  0  0  0
 21 23  1  0  0  0
 21 14  1  0  0  0
 14 15  2  0  0  0
 15 16  1  0  0  0
 16 17  2  0  0  0
 17 18  1  0  0  0
 18 19  2  0  0  0
 17  1  1  0  0  0
  1  2  2  0  0  0
  1  3  1  0  0  0
  3  4  1  0  0  0
  4  5  1  0  0  0
  5  6  1  0  0  0
  6  7  1  0  0  0
  7  8  1  0  0  0
  8  9  1  0  0  0
  8 10  1  0  0  0
 10 11  2  0  0  0
 10 24  1  0  0  0
 24 25  2  0  0  0
 25 26  1  0  0  0
 26 27  2  0  0  0
 27 28  1  0  0  0
 28 29  2  0  0  0
 27 30  1  0  0  0
 30 31  3  0  0  0
  6 12  1  0  0  0
 12 13  1  0  0  0
 19 14  1  0  0  0
 13  3  1  0  0  0
  9  6  1  0  0  0
 29 24  1  0  0  0
M  END
> <minimizedAffinity>
46.25562

> <CNNscore>
0.4903981090

> <CNNaffinity>
5.9306993484

> <CNN_VS>
2.9084036350

> <CNNaffinity_variance>
0.2723128796

$$$$
[H]c1c([H])c(C(=O)N2C([H])([H])C3(C2([H])[H])C([H])([H])C([H])([H])N(C(=O)c2c([H])c([H])c(C(F)(F)F)c([H])c2[H])C([H])([H])C3([H])[H])c([H])c([H])c1C#N


 31 34  0  0  0  0  0  0  0  0999 V2000
   28.0180   10.1372   57.3420 C   0  0  0  0  0  0  0  0  0  0  0  0
   28.9243    9.5427   56.5824 O   0  0  0  0  0  0  0  0  0  0  0  0
   26.7412    9.6650   57.0651 N   0  0  0  0  0  0  0  0  0  0  0  0
   26.6036    8.6064   56.0445 C   0  0  0  0  0  0  0  0  0  0  0  0
   25.5309    9.0324   55.0924 C   0  0  0  0  0  0  0  0  0  0  0  0
   24.2150    9.0722   55.7920 C   0  0  0  0  0  0  0  0  0  0  0  0
   23.3014    7.9075   55.5086 C   0  0  0  0  0  0  0  0  0  0  0  0
   22.5809    8.6427   54.5410 N   0  0  0  0  0  0  0  0  0  0  0  0
   23.1510    9.8789   55.1183 C   0  0  0  0  0  0  0  0  0  0  0  0
   21.6221    8.4306   53.4941 C   0  0  0  0  0  0  0  0  0  0  0  0
   21.3234    9.4398   52.8078 O   0  0  0  0  0  0  0  0  0  0  0  0
   24.3439    9.2479   57.2723 C   0  0  0  0  0  0  0  0  0  0  0  0
   25.5393   10.1110   57.6820 C   0  0  0  0  0  0  0  0  0  0  0  0
   29.5730   12.8505   60.2511 C   0  0  0  0  0  0  0  0  0  0  0  0
   28.6895   13.3045   59.3072 C   0  0  0  0  0  0  0  0  0  0  0  0
   28.1784   12.4206   58.3256 C   0  0  0  0  0  0  0  0  0  0  0  0
   28.5216   11.1056   58.2610 C   0  0  0  0  0  0  0  0  0  0  0  0
   29.4340   10.6724   59.2441 C   0  0  0  0  0  0  0  0  0  0  0  0
   29.9334   11.5286   60.2000 C   0  0  0  0  0  0  0  0  0  0  0  0
   31.3383   14.3073   60.9111 F   0  0  0  0  0  0  0  0  0  0  0  0
   30.0798   13.8155   61.2591 C   0  0  0  0  0  0  0  0  0  0  0  0
   29.2341   14.8776   61.4119 F   0  0  0  0  0  0  0  0  0  0  0  0
   30.2481   13.2304   62.5009 F   0  0  0  0  0  0  0  0  0  0  0  0
   21.0044    7.1296   53.2205 C   0  0  0  0  0  0  0  0  0  0  0  0
   19.6005    7.1070   53.2114 C   0  0  0  0  0  0  0  0  0  0  0  0
   18.9347    5.9030   53.0548 C   0  0  0  0  0  0  0  0  0  0  0  0
   19.5759    4.7006   52.9067 C   0  0  0  0  0  0  0  0  0  0  0  0
   20.9544    4.7414   52.9163 C   0  0  0  0  0  0  0  0  0  0  0  0
   21.6625    5.9422   53.0710 C   0  0  0  0  0  0  0  0  0  0  0  0
   18.8421    3.4777   52.7713 C   0  0  0  0  0  0  0  0  0  0  0  0
   18.2445    2.4820   52.6355 N   0  0  0  0  0  0  0  0  0  0  0  0
 20 21  1  0  0  0
 21 22  1  0  0  0
 21 23  1  0  0  0
 21 14  1  0  0  0
 14 15  2  0  0  0
 15 16  1  0  0  0
 16 17  2  0  0  0
 17 18  1  0  0  0
 18 19  2  0  0  0
 17  1  1  0  0  0
  1  2  2  0  0  0
  1  3  1  0  0  0
  3  4  1  0  0  0
  4  5  1  0  0  0
  5  6  1  0  0  0
  6  7  1  0  0  0
  7  8  1  0  0  0
  8  9  1  0  0  0
  8 10  1  0  0  0
 10 11  2  0  0  0
 10 24  1  0  0  0
 24 25  2  0  0  0
 25 26  1  0  0  0
 26 27  2  0  0  0
 27 28  1  0  0  0
 28 29  2  0  0  0
 27 30  1  0  0  0
 30 31  3  0  0  0
  6 12  1  0  0  0
 12 13  1  0  0  0
 19 14  1  0  0  0
 13  3  1  0  0  0
  9  6  1  0  0  0
 29 24  1  0  0  0
M  END
> <minimizedAffinity>
36.46508

> <CNNscore>
0.4603248835

> <CNNaffinity>
5.5477805138

> <CNN_VS>
2.5537815094

> <CNNaffinity_variance>
0.2098337114

$$$$
[H]c1c([H])c(C(=O)N2C([H])([H])C3(C2([H])[H])C([H])([H])C([H])([H])N(C(=O)c2c([H])c([H])c(C(F)(F)F)c([H])c2[H])C([H])([H])C3([H])[H])c([H])c([H])c1C#N


 31 34  0  0  0  0  0  0  0  0999 V2000
   25.8286    7.8792   53.7164 C   0  0  0  0  0  0  0  0  0  0  0  0
   26.4435    7.3019   54.7364 O   0  0  0  0  0  0  0  0  0  0  0  0
   24.4687    7.5953   53.7225 N   0  0  0  0  0  0  0  0  0  0  0  0
   23.9423    6.7654   54.8248 C   0  0  0  0  0  0  0  0  0  0  0  0
   23.1134    5.6782   54.2169 C   0  0  0  0  0  0  0  0  0  0  0  0
   21.9093    6.2623   53.5600 C   0  0  0  0  0  0  0  0  0  0  0  0
   20.6229    6.1180   54.3320 C   0  0  0  0  0  0  0  0  0  0  0  0
   20.2373    4.9880   53.5768 N   0  0  0  0  0  0  0  0  0  0  0  0
   21.2322    5.3835   52.5569 C   0  0  0  0  0  0  0  0  0  0  0  0
   19.2721    3.9261   53.6090 C   0  0  0  0  0  0  0  0  0  0  0  0
   19.3799    3.0560   52.7090 O   0  0  0  0  0  0  0  0  0  0  0  0
   22.0918    7.6954   53.1708 C   0  0  0  0  0  0  0  0  0  0  0  0
   23.5242    8.0365   52.7542 C   0  0  0  0  0  0  0  0  0  0  0  0
   28.2326   10.0553   50.9363 C   0  0  0  0  0  0  0  0  0  0  0  0
   28.5972   10.0118   52.2564 C   0  0  0  0  0  0  0  0  0  0  0  0
   27.8010    9.3086   53.1932 C   0  0  0  0  0  0  0  0  0  0  0  0
   26.6597    8.6517   52.8512 C   0  0  0  0  0  0  0  0  0  0  0  0
   26.3120    8.7189   51.4869 C   0  0  0  0  0  0  0  0  0  0  0  0
   27.0833    9.4017   50.5731 C   0  0  0  0  0  0  0  0  0  0  0  0
   29.5953    9.9780   48.9842 F   0  0  0  0  0  0  0  0  0  0  0  0
   29.1004   10.8047   49.9932 C   0  0  0  0  0  0  0  0  0  0  0  0
   28.4316   11.8412   49.4059 F   0  0  0  0  0  0  0  0  0  0  0  0
   30.2186   11.3264   50.6178 F   0  0  0  0  0  0  0  0  0  0  0  0
   18.2078    3.8366   54.6131 C   0  0  0  0  0  0  0  0  0  0  0  0
   18.6013    3.3938   55.8862 C   0  0  0  0  0  0  0  0  0  0  0  0
   17.6458    3.1900   56.8674 C   0  0  0  0  0  0  0  0  0  0  0  0
   16.3053    3.3962   56.6688 C   0  0  0  0  0  0  0  0  0  0  0  0
   15.9367    3.8324   55.4134 C   0  0  0  0  0  0  0  0  0  0  0  0
   16.8767    4.0511   54.3957 C   0  0  0  0  0  0  0  0  0  0  0  0
   15.3521    3.1485   57.7091 C   0  0  0  0  0  0  0  0  0  0  0  0
   14.5933    2.9446   58.5750 N   0  0  0  0  0  0  0  0  0  0  0  0
 20 21  1  0  0  0
 21 22  1  0  0  0
 21 23  1  0  0  0
 21 14  1  0  0  0
 14 15  2  0  0  0
 15 16  1  0  0  0
 16 17  2  0  0  0
 17 18  1  0  0  0
 18 19  2  0  0  0
 17  1  1  0  0  0
  1  2  2  0  0  0
  1  3  1  0  0  0
  3  4  1  0  0  0
  4  5  1  0  0  0
  5  6  1  0  0  0
  6  7  1  0  0  0
  7  8  1  0  0  0
  8  9  1  0  0  0
  8 10  1  0  0  0
 10 11  2  0  0  0
 10 24  1  0  0  0
 24 25  2  0  0  0
 25 26  1  0  0  0
 26 27  2  0  0  0
 27 28  1  0  0  0
 28 29  2  0  0  0
 27 30  1  0  0  0
 30 31  3  0  0  0
  6 12  1  0  0  0
 12 13  1  0  0  0
 19 14  1  0  0  0
 13  3  1  0  0  0
  9  6  1  0  0  0
 29 24  1  0  0  0
M  END
> <minimizedAffinity>
49.26148

> <CNNscore>
0.4559048712

> <CNNaffinity>
5.8434176445

> <CNN_VS>
2.6640424728

> <CNNaffinity_variance>
0.4469283223

$$$$
[H]c1c([H])c(C(=O)N2C([H])([H])C3(C2([H])[H])C([H])([H])C([H])([H])N(C(=O)c2c([H])c([H])c(C(F)(F)F)c([H])c2[H])C([H])([H])C3([H])[H])c([H])c([H])c1C#N


 31 34  0  0  0  0  0  0  0  0999 V2000
   21.0041    7.6144   53.8861 C   0  0  0  0  0  0  0  0  0  0  0  0
   21.7290    7.7731   54.9820 O   0  0  0  0  0  0  0  0  0  0  0  0
   21.2360    8.6385   52.9766 N   0  0  0  0  0  0  0  0  0  0  0  0
   22.2263    9.6722   53.3395 C   0  0  0  0  0  0  0  0  0  0  0  0
   21.5927   11.0075   53.1070 C   0  0  0  0  0  0  0  0  0  0  0  0
   21.3396   11.2049   51.6511 C   0  0  0  0  0  0  0  0  0  0  0  0
   22.3168   12.1104   50.9463 C   0  0  0  0  0  0  0  0  0  0  0  0
   21.4407   13.2145   51.0419 N   0  0  0  0  0  0  0  0  0  0  0  0
   20.3402   12.2635   51.3084 C   0  0  0  0  0  0  0  0  0  0  0  0
   21.4525   14.6401   50.8755 C   0  0  0  0  0  0  0  0  0  0  0  0
   20.3887   15.2385   51.1737 O   0  0  0  0  0  0  0  0  0  0  0  0
   21.2286    9.9179   50.8963 C   0  0  0  0  0  0  0  0  0  0  0  0
   20.6011    8.7850   51.7117 C   0  0  0  0  0  0  0  0  0  0  0  0
   18.3205    4.2920   53.9424 C   0  0  0  0  0  0  0  0  0  0  0  0
   19.6650    4.0727   53.7949 C   0  0  0  0  0  0  0  0  0  0  0  0
   20.5656    5.1652   53.7572 C   0  0  0  0  0  0  0  0  0  0  0  0
   20.1644    6.4610   53.8627 C   0  0  0  0  0  0  0  0  0  0  0  0
   18.7756    6.6512   54.0103 C   0  0  0  0  0  0  0  0  0  0  0  0
   17.8968    5.5917   54.0471 C   0  0  0  0  0  0  0  0  0  0  0  0
   16.2365    3.3525   53.2729 F   0  0  0  0  0  0  0  0  0  0  0  0
   17.4174    3.1141   53.9767 C   0  0  0  0  0  0  0  0  0  0  0  0
   18.0133    2.0047   53.4470 F   0  0  0  0  0  0  0  0  0  0  0  0
   17.0177    2.8023   55.2636 F   0  0  0  0  0  0  0  0  0  0  0  0
   22.6163   15.3828   50.3826 C   0  0  0  0  0  0  0  0  0  0  0  0
   23.6234   14.6139   49.7775 C   0  0  0  0  0  0  0  0  0  0  0  0
   24.7985   15.2218   49.3687 C   0  0  0  0  0  0  0  0  0  0  0  0
   25.0482   16.5606   49.5236 C   0  0  0  0  0  0  0  0  0  0  0  0
   24.0479   17.3009   50.1182 C   0  0  0  0  0  0  0  0  0  0  0  0
   22.8442   16.7198   50.5432 C   0  0  0  0  0  0  0  0  0  0  0  0
   26.2903   17.1391   49.1055 C   0  0  0  0  0  0  0  0  0  0  0  0
   27.3132   17.6078   48.7878 N   0  0  0  0  0  0  0  0  0  0  0  0
 20 21  1  0  0  0
 21 22  1  0  0  0
 21 23  1  0  0  0
 21 14  1  0  0  0
 14 15  2  0  0  0
 15 16  1  0  0  0
 16 17  2  0  0  0
 17 18  1  0  0  0
 18 19  2  0  0  0
 17  1  1  0  0  0
  1  2  2  0  0  0
  1  3  1  0  0  0
  3  4  1  0  0  0
  4  5  1  0  0  0
  5  6  1  0  0  0
  6  7  1  0  0  0
  7  8  1  0  0  0
  8  9  1  0  0  0
  8 10  1  0  0  0
 10 11  2  0  0  0
 10 24  1  0  0  0
 24 25  2  0  0  0
 25 26  1  0  0  0
 26 27  2  0  0  0
 27 28  1  0  0  0
 28 29  2  0  0  0
 27 30  1  0  0  0
 30 31  3  0  0  0
  6 12  1  0  0  0
 12 13  1  0  0  0
 19 14  1  0  0  0
 13  3  1  0  0  0
  9  6  1  0  0  0
 29 24  1  0  0  0
M  END
> <minimizedAffinity>
50.04723

> <CNNscore>
0.4363936484

> <CNNaffinity>
5.7735800743

> <CNN_VS>
2.5195536613

> <CNNaffinity_variance>
0.5395077467

$$$$
[H]c1c([H])c(C(=O)N2C([H])([H])C3(C2([H])[H])C([H])([H])C([H])([H])N(C(=O)c2c([H])c([H])c(C(F)(F)F)c([H])c2[H])C([H])([H])C3([H])[H])c([H])c([H])c1C#N


 31 34  0  0  0  0  0  0  0  0999 V2000
   23.7263    8.0255   54.0367 C   0  0  0  0  0  0  0  0  0  0  0  0
   24.1481    8.7013   52.9798 O   0  0  0  0  0  0  0  0  0  0  0  0
   24.3044    8.5062   55.2049 N   0  0  0  0  0  0  0  0  0  0  0  0
   25.2248    9.6560   55.0965 C   0  0  0  0  0  0  0  0  0  0  0  0
   26.4716    9.3101   55.8479 C   0  0  0  0  0  0  0  0  0  0  0  0
   26.1719    9.1869   57.3032 C   0  0  0  0  0  0  0  0  0  0  0  0
   26.5937   10.3620   58.1474 C   0  0  0  0  0  0  0  0  0  0  0  0
   27.7848    9.7141   58.5443 N   0  0  0  0  0  0  0  0  0  0  0  0
   27.1838    8.4354   58.1082 C   0  0  0  0  0  0  0  0  0  0  0  0
   29.0339   10.0137   59.1848 C   0  0  0  0  0  0  0  0  0  0  0  0
   29.8629    9.0714   59.2436 O   0  0  0  0  0  0  0  0  0  0  0  0
   24.7359    8.8716   57.5807 C   0  0  0  0  0  0  0  0  0  0  0  0
   24.0881    7.9880   56.5122 C   0  0  0  0  0  0  0  0  0  0  0  0
   20.7508    5.0618   53.2585 C   0  0  0  0  0  0  0  0  0  0  0  0
   21.9735    4.6806   53.7455 C   0  0  0  0  0  0  0  0  0  0  0  0
   22.9762    5.6501   53.9924 C   0  0  0  0  0  0  0  0  0  0  0  0
   22.7933    6.9796   53.7690 C   0  0  0  0  0  0  0  0  0  0  0  0
   21.5261    7.3369   53.2656 C   0  0  0  0  0  0  0  0  0  0  0  0
   20.5488    6.3975   53.0240 C   0  0  0  0  0  0  0  0  0  0  0  0
   20.2529    2.7325   53.2354 F   0  0  0  0  0  0  0  0  0  0  0  0
   19.7327    4.0085   53.0168 C   0  0  0  0  0  0  0  0  0  0  0  0
   18.6402    4.1675   53.8215 F   0  0  0  0  0  0  0  0  0  0  0  0
   19.2916    4.0024   51.7060 F   0  0  0  0  0  0  0  0  0  0  0  0
   29.3519   11.3272   59.7528 C   0  0  0  0  0  0  0  0  0  0  0  0
   28.5575   12.3964   59.3085 C   0  0  0  0  0  0  0  0  0  0  0  0
   28.8489   13.6855   59.7213 C   0  0  0  0  0  0  0  0  0  0  0  0
   29.8922   13.9922   60.5558 C   0  0  0  0  0  0  0  0  0  0  0  0
   30.6610   12.9302   60.9838 C   0  0  0  0  0  0  0  0  0  0  0  0
   30.3947   11.6113   60.5878 C   0  0  0  0  0  0  0  0  0  0  0  0
   30.1678   15.3457   60.9360 C   0  0  0  0  0  0  0  0  0  0  0  0
   30.4049   16.4538   61.2241 N   0  0  0  0  0  0  0  0  0  0  0  0
 20 21  1  0  0  0
 21 22  1  0  0  0
 21 23  1  0  0  0
 21 14  1  0  0  0
 14 15  2  0  0  0
 15 16  1  0  0  0
 16 17  2  0  0  0
 17 18  1  0  0  0
 18 19  2  0  0  0
 17  1  1  0  0  0
  1  2  2  0  0  0
  1  3  1  0  0  0
  3  4  1  0  0  0
  4  5  1  0  0  0
  5  6  1  0  0  0
  6  7  1  0  0  0
  7  8  1  0  0  0
  8  9  1  0  0  0
  8 10  1  0  0  0
 10 11  2  0  0  0
 10 24  1  0  0  0
 24 25  2  0  0  0
 25 26  1  0  0  0
 26 27  2  0  0  0
 27 28  1  0  0  0
 28 29  2  0  0  0
 27 30  1  0  0  0
 30 31  3  0  0  0
  6 12  1  0  0  0
 12 13  1  0  0  0
 19 14  1  0  0  0
 13  3  1  0  0  0
  9  6  1  0  0  0
 29 24  1  0  0  0
M  END
> <minimizedAffinity>
41.79944

> <CNNscore>
0.4243682623

> <CNNaffinity>
5.0512709618

> <CNN_VS>
2.1435990334

> <CNNaffinity_variance>
0.1341738403

$$$$
[H]c1c([H])c(C(=O)N2C([H])([H])C3(C2([H])[H])C([H])([H])C([H])([H])N(C(=O)c2c([H])c([H])c(C(F)(F)F)c([H])c2[H])C([H])([H])C3([H])[H])c([H])c([H])c1C#N


 31 34  0  0  0  0  0  0  0  0999 V2000
   20.4472    6.7175   52.6589 C   0  0  0  0  0  0  0  0  0  0  0  0
   20.4105    7.2022   51.4278 O   0  0  0  0  0  0  0  0  0  0  0  0
   21.5854    7.1416   53.3330 N   0  0  0  0  0  0  0  0  0  0  0  0
   22.5118    8.0454   52.6216 C   0  0  0  0  0  0  0  0  0  0  0  0
   23.8917    7.4859   52.7681 C   0  0  0  0  0  0  0  0  0  0  0  0
   24.3147    7.5405   54.1967 C   0  0  0  0  0  0  0  0  0  0  0  0
   25.2745    8.6505   54.5404 C   0  0  0  0  0  0  0  0  0  0  0  0
   26.3869    7.7839   54.4544 N   0  0  0  0  0  0  0  0  0  0  0  0
   25.4526    6.6432   54.5667 C   0  0  0  0  0  0  0  0  0  0  0  0
   27.8197    7.8431   54.3925 C   0  0  0  0  0  0  0  0  0  0  0  0
   28.4098    6.7463   54.2269 O   0  0  0  0  0  0  0  0  0  0  0  0
   23.1606    7.5755   55.1482 C   0  0  0  0  0  0  0  0  0  0  0  0
   21.9452    6.7827   54.6619 C   0  0  0  0  0  0  0  0  0  0  0  0
   17.0543    4.4344   53.8911 C   0  0  0  0  0  0  0  0  0  0  0  0
   18.2207    3.7918   53.5687 C   0  0  0  0  0  0  0  0  0  0  0  0
   19.3491    4.5340   53.1420 C   0  0  0  0  0  0  0  0  0  0  0  0
   19.3456    5.8899   53.0298 C   0  0  0  0  0  0  0  0  0  0  0  0
   18.1299    6.5189   53.3662 C   0  0  0  0  0  0  0  0  0  0  0  0
   17.0306    5.8009   53.7811 C   0  0  0  0  0  0  0  0  0  0  0  0
   15.9522    3.3494   55.7028 F   0  0  0  0  0  0  0  0  0  0  0  0
   15.8998    3.6125   54.3336 C   0  0  0  0  0  0  0  0  0  0  0  0
   14.7094    4.2255   54.0622 F   0  0  0  0  0  0  0  0  0  0  0  0
   15.8814    2.3708   53.7247 F   0  0  0  0  0  0  0  0  0  0  0  0
   28.5794    9.0904   54.5186 C   0  0  0  0  0  0  0  0  0  0  0  0
   28.2318    9.9136   55.6018 C   0  0  0  0  0  0  0  0  0  0  0  0
   28.8330   11.1529   55.7423 C   0  0  0  0  0  0  0  0  0  0  0  0
   29.7683   11.6408   54.8671 C   0  0  0  0  0  0  0  0  0  0  0  0
   30.0991   10.8188   53.8102 C   0  0  0  0  0  0  0  0  0  0  0  0
   29.5121    9.5568   53.6367 C   0  0  0  0  0  0  0  0  0  0  0  0
   30.3450   12.9404   55.0423 C   0  0  0  0  0  0  0  0  0  0  0  0
   30.8373   13.9926   55.1750 N   0  0  0  0  0  0  0  0  0  0  0  0
 20 21  1  0  0  0
 21 22  1  0  0  0
 21 23  1  0  0  0
 21 14  1  0  0  0
 14 15  2  0  0  0
 15 16  1  0  0  0
 16 17  2  0  0  0
 17 18  1  0  0  0
 18 19  2  0  0  0
 17  1  1  0  0  0
  1  2  2  0  0  0
  1  3  1  0  0  0
  3  4  1  0  0  0
  4  5  1  0  0  0
  5  6  1  0  0  0
  6  7  1  0  0  0
  7  8  1  0  0  0
  8  9  1  0  0  0
  8 10  1  0  0  0
 10 11  2  0  0  0
 10 24  1  0  0  0
 24 25  2  0  0  0
 25 26  1  0  0  0
 26 27  2  0  0  0
 27 28  1  0  0  0
 28 29  2  0  0  0
 27 30  1  0  0  0
 30 31  3  0  0  0
  6 12  1  0  0  0
 12 13  1  0  0  0
 19 14  1  0  0  0
 13  3  1  0  0  0
  9  6  1  0  0  0
 29 24  1  0  0  0
M  END
> <minimizedAffinity>
46.72492

> <CNNscore>
0.4228774309

> <CNNaffinity>
5.7200212479

> <CNN_VS>
2.4188678265

> <CNNaffinity_variance>
0.2575488687

$$$$
[H]c1c([H])c([H])c(C([H])([H])[C@@]([H])(C(=O)N([H])[H])N([H])C(=O)[C@]([H])(N([H])C(=O)[C@@]([H])(N([H])C(=O)[C@@]([H])(N([H])C(=O)C([H])([H])[H])C([H])([H])c2c([H])c([H])c([H])c([H])c2[H])C([H])([H])c2c([H])c([H])c([H])c([H])c2[H])C([H])([H])c2c([H])c([H])c([H])c([H])c2[H])c([H])c1[H]


 54 57  0  0  0  0  0  0  0  0999 V2000
   25.9339    9.4670   56.1280 C   0  0  0  0  0  0  0  0  0  0  0  0
   25.3992   10.5843   56.5152 O   0  0  0  0  0  0  0  0  0  0  0  0
   27.0872    9.0312   56.8381 N   0  0  0  0  0  0  0  0  0  0  0  0
   27.5472    8.1339   56.4991 H   0  0  0  0  0  0  0  0  0  0  0  0
   27.6725    9.6701   57.9510 C   0  0  0  0  0  0  0  0  0  0  0  0
   28.4363    8.6694   58.7970 C   0  0  0  0  0  0  0  0  0  0  0  0
   29.2295    7.9031   58.1832 O   0  0  0  0  0  0  0  0  0  0  0  0
   28.3259    8.5464   60.1804 N   0  0  0  0  0  0  0  0  0  0  0  0
   27.6958    9.1357   60.7636 H   0  0  0  0  0  0  0  0  0  0  0  0
   29.0907    7.5624   60.9880 C   0  0  0  0  0  0  0  0  0  0  0  0
   30.5055    7.9536   61.0596 C   0  0  0  0  0  0  0  0  0  0  0  0
   31.0876    8.7756   62.0447 N   0  0  0  0  0  0  0  0  0  0  0  0
   31.3415    7.5409   60.1566 O   0  0  0  0  0  0  0  0  0  0  0  0
   31.9757    8.5246   62.4878 H   0  0  0  0  0  0  0  0  0  0  0  0
   30.5935    9.6457   62.2953 H   0  0  0  0  0  0  0  0  0  0  0  0
   29.0084    6.2793   60.1510 C   0  0  0  0  0  0  0  0  0  0  0  0
   28.2700    5.1779   60.6968 C   0  0  0  0  0  0  0  0  0  0  0  0
   26.9152    5.0615   60.3398 C   0  0  0  0  0  0  0  0  0  0  0  0
   26.1521    4.0238   60.8653 C   0  0  0  0  0  0  0  0  0  0  0  0
   26.6741    3.1083   61.7209 C   0  0  0  0  0  0  0  0  0  0  0  0
   28.0217    3.2165   62.0814 C   0  0  0  0  0  0  0  0  0  0  0  0
   28.7781    4.2295   61.5716 C   0  0  0  0  0  0  0  0  0  0  0  0
   28.2716   10.9931   57.9180 C   0  0  0  0  0  0  0  0  0  0  0  0
   28.6786   11.7406   59.0709 C   0  0  0  0  0  0  0  0  0  0  0  0
   29.9244   11.4812   59.6639 C   0  0  0  0  0  0  0  0  0  0  0  0
   30.3935   12.1648   60.7679 C   0  0  0  0  0  0  0  0  0  0  0  0
   29.6358   13.1509   61.3395 C   0  0  0  0  0  0  0  0  0  0  0  0
   28.4193   13.4424   60.7984 C   0  0  0  0  0  0  0  0  0  0  0  0
   27.9681   12.7376   59.6856 C   0  0  0  0  0  0  0  0  0  0  0  0
   25.3477    8.7218   55.0257 C   0  0  0  0  0  0  0  0  0  0  0  0
   23.1407    9.7979   55.3545 C   0  0  0  0  0  0  0  0  0  0  0  0
   23.4212    9.7627   56.6088 O   0  0  0  0  0  0  0  0  0  0  0  0
   24.1140    9.2683   54.4875 N   0  0  0  0  0  0  0  0  0  0  0  0
   23.9516    9.2708   53.4719 H   0  0  0  0  0  0  0  0  0  0  0  0
   21.8289   10.3873   55.0058 C   0  0  0  0  0  0  0  0  0  0  0  0
   21.3761   11.1418   51.4325 C   0  0  0  0  0  0  0  0  0  0  0  0
   21.9902   11.8143   52.6617 C   0  0  0  0  0  0  0  0  0  0  0  0
   22.4888   12.9275   52.4511 O   0  0  0  0  0  0  0  0  0  0  0  0
   21.9094   11.1033   53.8277 N   0  0  0  0  0  0  0  0  0  0  0  0
   22.3010   12.1977   54.5238 H   0  0  0  0  0  0  0  0  0  0  0  0
   20.7355    9.3127   55.0524 C   0  0  0  0  0  0  0  0  0  0  0  0
   21.1287    8.1354   54.2462 C   0  0  0  0  0  0  0  0  0  0  0  0
   20.5947    6.8910   54.6011 C   0  0  0  0  0  0  0  0  0  0  0  0
   20.9049    5.7179   53.9632 C   0  0  0  0  0  0  0  0  0  0  0  0
   21.7867    5.7801   52.9244 C   0  0  0  0  0  0  0  0  0  0  0  0
   22.3399    6.9567   52.5348 C   0  0  0  0  0  0  0  0  0  0  0  0
   22.0027    8.1378   53.2044 C   0  0  0  0  0  0  0  0  0  0  0  0
   26.2842    8.3142   53.9372 C   0  0  0  0  0  0  0  0  0  0  0  0
   27.7072    8.5740   54.2191 C   0  0  0  0  0  0  0  0  0  0  0  0
   28.2440    9.8495   54.1809 C   0  0  0  0  0  0  0  0  0  0  0  0
   29.5695   10.0762   54.3945 C   0  0  0  0  0  0  0  0  0  0  0  0
   30.4010    9.0121   54.6529 C   0  0  0  0  0  0  0  0  0  0  0  0
   29.9013    7.7313   54.6972 C   0  0  0  0  0  0  0  0  0  0  0  0
   28.5804    7.5273   54.4842 C   0  0  0  0  0  0  0  0  0  0  0  0
 36 37  1  0  0  0
 37 38  2  0  0  0
 37 39  1  0  0  0
 39 35  1  0  0  0
 35 41  1  0  0  0
 41 42  1  0  0  0
 42 43  2  0  0  0
 43 44  1  0  0  0
 44 45  2  0  0  0
 45 46  1  0  0  0
 46 47  2  0  0  0
 35 31  1  0  0  0
 31 32  2  0  0  0
 31 33  1  0  0  0
 33 30  1  0  0  0
 30 48  1  0  0  0
 48 49  1  0  0  0
 49 50  2  0  0  0
 50 51  1  0  0  0
 51 52  2  0  0  0
 52 53  1  0  0  0
 53 54  2  0  0  0
 30  1  1  0  0  0
  1  2  2  0  0  0
  1  3  1  0  0  0
  3  5  1  0  0  0
  5 23  1  0  0  0
 23 24  1  0  0  0
 24 25  2  0  0  0
 25 26  1  0  0  0
 26 27  2  0  0  0
 27 28  1  0  0  0
 28 29  2  0  0  0
  5  6  1  0  0  0
  6  7  2  0  0  0
  6  8  1  0  0  0
  8 10  1  0  0  0
 10 16  1  0  0  0
 16 17  1  0  0  0
 17 18  2  0  0  0
 18 19  1  0  0  0
 19 20  2  0  0  0
 20 21  1  0  0  0
 21 22  2  0  0  0
 10 11  1  0  0  0
 11 12  1  0  0  0
 11 13  2  0  0  0
 47 42  1  0  0  0
 54 49  1  0  0  0
 29 24  1  0  0  0
 22 17  1  0  0  0
 39 40  1  0  0  0
 33 34  1  0  0  0
  3  4  1  0  0  0
  8  9  1  0  0  0
 12 14  1  0  0  0
 12 15  1  0  0  0
M  END
> <minimizedAffinity>
20.87513

> <CNNscore>
0.6292077303

> <CNNaffinity>
7.0128417015

> <CNN_VS>
4.4125342369

> <CNNaffinity_variance>
1.3268511295

$$$$
[H]c1c([H])c([H])c(C([H])([H])[C@@]([H])(C(=O)N([H])[H])N([H])C(=O)[C@]([H])(N([H])C(=O)[C@@]([H])(N([H])C(=O)[C@@]([H])(N([H])C(=O)C([H])([H])[H])C([H])([H])c2c([H])c([H])c([H])c([H])c2[H])C([H])([H])c2c([H])c([H])c([H])c([H])c2[H])C([H])([H])c2c([H])c([H])c([H])c([H])c2[H])c([H])c1[H]


 54 57  0  0  0  0  0  0  0  0999 V2000
   26.8384    9.3664   57.0211 C   0  0  0  0  0  0  0  0  0  0  0  0
   26.3331    8.7260   58.0304 O   0  0  0  0  0  0  0  0  0  0  0  0
   26.1625    9.2318   55.7763 N   0  0  0  0  0  0  0  0  0  0  0  0
   26.5955    9.7275   54.9405 H   0  0  0  0  0  0  0  0  0  0  0  0
   24.9714    8.5120   55.5474 C   0  0  0  0  0  0  0  0  0  0  0  0
   23.7797    9.4500   55.5250 C   0  0  0  0  0  0  0  0  0  0  0  0
   23.3828    9.8821   56.6426 O   0  0  0  0  0  0  0  0  0  0  0  0
   23.1109    9.8618   54.3744 N   0  0  0  0  0  0  0  0  0  0  0  0
   23.3705    9.5531   53.4144 H   0  0  0  0  0  0  0  0  0  0  0  0
   21.9497   10.7875   54.3779 C   0  0  0  0  0  0  0  0  0  0  0  0
   20.8129   10.1745   55.0792 C   0  0  0  0  0  0  0  0  0  0  0  0
   20.3242    8.8684   54.8787 N   0  0  0  0  0  0  0  0  0  0  0  0
   20.1558   10.8518   55.9703 O   0  0  0  0  0  0  0  0  0  0  0  0
   20.0928    8.2614   55.6698 H   0  0  0  0  0  0  0  0  0  0  0  0
   20.1960    8.5493   53.9062 H   0  0  0  0  0  0  0  0  0  0  0  0
   21.5755   10.8896   52.8935 C   0  0  0  0  0  0  0  0  0  0  0  0
   21.3015   12.1950   52.3671 C   0  0  0  0  0  0  0  0  0  0  0  0
   20.5421   13.0714   53.1618 C   0  0  0  0  0  0  0  0  0  0  0  0
   20.2293   14.3390   52.6818 C   0  0  0  0  0  0  0  0  0  0  0  0
   20.6353   14.7659   51.4588 C   0  0  0  0  0  0  0  0  0  0  0  0
   21.3916   13.9002   50.6613 C   0  0  0  0  0  0  0  0  0  0  0  0
   21.7038   12.6562   51.1228 C   0  0  0  0  0  0  0  0  0  0  0  0
   24.8533    7.3869   54.6360 C   0  0  0  0  0  0  0  0  0  0  0  0
   23.6589    7.0179   53.9354 C   0  0  0  0  0  0  0  0  0  0  0  0
   22.8176    6.0283   54.4682 C   0  0  0  0  0  0  0  0  0  0  0  0
   21.6449    5.6254   53.8611 C   0  0  0  0  0  0  0  0  0  0  0  0
   21.2497    6.1963   52.6816 C   0  0  0  0  0  0  0  0  0  0  0  0
   22.0311    7.1644   52.1253 C   0  0  0  0  0  0  0  0  0  0  0  0
   23.2100    7.5522   52.7565 C   0  0  0  0  0  0  0  0  0  0  0  0
   28.0314   10.1787   57.1965 C   0  0  0  0  0  0  0  0  0  0  0  0
   28.8220   11.0732   59.3671 C   0  0  0  0  0  0  0  0  0  0  0  0
   28.2631   12.1730   59.0049 O   0  0  0  0  0  0  0  0  0  0  0  0
   28.7277   10.0026   58.4592 N   0  0  0  0  0  0  0  0  0  0  0  0
   29.1507    9.0944   58.6919 H   0  0  0  0  0  0  0  0  0  0  0  0
   29.4892   11.0961   60.6878 C   0  0  0  0  0  0  0  0  0  0  0  0
   29.8084    7.4303   60.6409 C   0  0  0  0  0  0  0  0  0  0  0  0
   30.4931    8.6168   61.3219 C   0  0  0  0  0  0  0  0  0  0  0  0
   31.4230    8.3152   62.0812 O   0  0  0  0  0  0  0  0  0  0  0  0
   29.9927    9.8502   61.0057 N   0  0  0  0  0  0  0  0  0  0  0  0
   31.0581   10.4370   61.6025 H   0  0  0  0  0  0  0  0  0  0  0  0
   30.4953   12.2519   60.7537 C   0  0  0  0  0  0  0  0  0  0  0  0
   29.7922   13.5452   60.9073 C   0  0  0  0  0  0  0  0  0  0  0  0
   30.5271   14.7185   60.7001 C   0  0  0  0  0  0  0  0  0  0  0  0
   30.0087   15.9791   60.8465 C   0  0  0  0  0  0  0  0  0  0  0  0
   28.6999   16.0827   61.2165 C   0  0  0  0  0  0  0  0  0  0  0  0
   27.9364   14.9819   61.4342 C   0  0  0  0  0  0  0  0  0  0  0  0
   28.4933   13.7083   61.2754 C   0  0  0  0  0  0  0  0  0  0  0  0
   28.9837   10.2035   56.0473 C   0  0  0  0  0  0  0  0  0  0  0  0
   28.6392    9.2921   54.9417 C   0  0  0  0  0  0  0  0  0  0  0  0
   27.9881    9.7312   53.8016 C   0  0  0  0  0  0  0  0  0  0  0  0
   27.6296    8.8748   52.8058 C   0  0  0  0  0  0  0  0  0  0  0  0
   27.9180    7.5364   52.9331 C   0  0  0  0  0  0  0  0  0  0  0  0
   28.5630    7.0655   54.0531 C   0  0  0  0  0  0  0  0  0  0  0  0
   28.9128    7.9336   55.0308 C   0  0  0  0  0  0  0  0  0  0  0  0
 36 37  1  0  0  0
 37 38  2  0  0  0
 37 39  1  0  0  0
 39 35  1  0  0  0
 35 41  1  0  0  0
 41 42  1  0  0  0
 42 43  2  0  0  0
 43 44  1  0  0  0
 44 45  2  0  0  0
 45 46  1  0  0  0
 46 47  2  0  0  0
 35 31  1  0  0  0
 31 32  2  0  0  0
 31 33  1  0  0  0
 33 30  1  0  0  0
 30 48  1  0  0  0
 48 49  1  0  0  0
 49 50  2  0  0  0
 50 51  1  0  0  0
 51 52  2  0  0  0
 52 53  1  0  0  0
 53 54  2  0  0  0
 30  1  1  0  0  0
  1  2  2  0  0  0
  1  3  1  0  0  0
  3  5  1  0  0  0
  5 23  1  0  0  0
 23 24  1  0  0  0
 24 25  2  0  0  0
 25 26  1  0  0  0
 26 27  2  0  0  0
 27 28  1  0  0  0
 28 29  2  0  0  0
  5  6  1  0  0  0
  6  7  2  0  0  0
  6  8  1  0  0  0
  8 10  1  0  0  0
 10 16  1  0  0  0
 16 17  1  0  0  0
 17 18  2  0  0  0
 18 19  1  0  0  0
 19 20  2  0  0  0
 20 21  1  0  0  0
 21 22  2  0  0  0
 10 11  1  0  0  0
 11 12  1  0  0  0
 11 13  2  0  0  0
 47 42  1  0  0  0
 54 49  1  0  0  0
 29 24  1  0  0  0
 22 17  1  0  0  0
 39 40  1  0  0  0
 33 34  1  0  0  0
  3  4  1  0  0  0
  8  9  1  0  0  0
 12 14  1  0  0  0
 12 15  1  0  0  0
M  END
> <minimizedAffinity>
21.62061

> <CNNscore>
0.6180737615

> <CNNaffinity>
7.2592825890

> <CNN_VS>
4.4867720604

> <CNNaffinity_variance>
1.0452619791

$$$$
[H]c1c([H])c([H])c(C([H])([H])[C@@]([H])(C(=O)N([H])[H])N([H])C(=O)[C@]([H])(N([H])C(=O)[C@@]([H])(N([H])C(=O)[C@@]([H])(N([H])C(=O)C([H])([H])[H])C([H])([H])c2c([H])c([H])c([H])c([H])c2[H])C([H])([H])c2c([H])c([H])c([H])c([H])c2[H])C([H])([H])c2c([H])c([H])c([H])c([H])c2[H])c([H])c1[H]


 54 57  0  0  0  0  0  0  0  0999 V2000
   25.5399    9.2047   55.7595 C   0  0  0  0  0  0  0  0  0  0  0  0
   26.0624    8.2329   55.0763 O   0  0  0  0  0  0  0  0  0  0  0  0
   26.4364   10.0002   56.5263 N   0  0  0  0  0  0  0  0  0  0  0  0
   26.0054   10.7748   57.1145 H   0  0  0  0  0  0  0  0  0  0  0  0
   27.8394    9.8646   56.5744 C   0  0  0  0  0  0  0  0  0  0  0  0
   28.3742   10.3470   57.9094 C   0  0  0  0  0  0  0  0  0  0  0  0
   28.2485   11.5789   58.1539 O   0  0  0  0  0  0  0  0  0  0  0  0
   28.9785    9.5347   58.8665 N   0  0  0  0  0  0  0  0  0  0  0  0
   29.1233    8.5107   58.7459 H   0  0  0  0  0  0  0  0  0  0  0  0
   29.4881   10.0300   60.1705 C   0  0  0  0  0  0  0  0  0  0  0  0
   29.8617    8.9000   61.0326 C   0  0  0  0  0  0  0  0  0  0  0  0
   30.8049    8.9341   62.0786 N   0  0  0  0  0  0  0  0  0  0  0  0
   29.3113    7.7377   60.8573 O   0  0  0  0  0  0  0  0  0  0  0  0
   30.6043    8.5083   62.9877 H   0  0  0  0  0  0  0  0  0  0  0  0
   31.7099    9.3927   61.8924 H   0  0  0  0  0  0  0  0  0  0  0  0
   28.2595   10.7021   60.7970 C   0  0  0  0  0  0  0  0  0  0  0  0
   28.3172   12.1183   61.0145 C   0  0  0  0  0  0  0  0  0  0  0  0
   29.5481   12.7612   60.7952 C   0  0  0  0  0  0  0  0  0  0  0  0
   29.6586   14.1298   61.0183 C   0  0  0  0  0  0  0  0  0  0  0  0
   28.6086   14.8766   61.4454 C   0  0  0  0  0  0  0  0  0  0  0  0
   27.3798   14.2449   61.6660 C   0  0  0  0  0  0  0  0  0  0  0  0
   27.2611   12.9043   61.4500 C   0  0  0  0  0  0  0  0  0  0  0  0
   28.5768    8.7457   56.0135 C   0  0  0  0  0  0  0  0  0  0  0  0
   28.4323    8.2535   54.6754 C   0  0  0  0  0  0  0  0  0  0  0  0
   29.0123    7.0255   54.3195 C   0  0  0  0  0  0  0  0  0  0  0  0
   28.9086    6.4779   53.0564 C   0  0  0  0  0  0  0  0  0  0  0  0
   28.2137    7.1346   52.0770 C   0  0  0  0  0  0  0  0  0  0  0  0
   27.6293    8.3295   52.3739 C   0  0  0  0  0  0  0  0  0  0  0  0
   27.7495    8.8613   53.6551 C   0  0  0  0  0  0  0  0  0  0  0  0
   24.1064    9.4426   55.7095 C   0  0  0  0  0  0  0  0  0  0  0  0
   22.3665   10.5569   54.3428 C   0  0  0  0  0  0  0  0  0  0  0  0
   21.7754   10.7864   55.4613 O   0  0  0  0  0  0  0  0  0  0  0  0
   23.5866    9.8603   54.4190 N   0  0  0  0  0  0  0  0  0  0  0  0
   24.1108    9.6492   53.5596 H   0  0  0  0  0  0  0  0  0  0  0  0
   21.6724   11.0560   53.1350 C   0  0  0  0  0  0  0  0  0  0  0  0
   19.4285    8.5705   51.6087 C   0  0  0  0  0  0  0  0  0  0  0  0
   20.9022    8.9707   51.5177 C   0  0  0  0  0  0  0  0  0  0  0  0
   21.5745    8.3029   50.7213 O   0  0  0  0  0  0  0  0  0  0  0  0
   21.2845   10.0085   52.3229 N   0  0  0  0  0  0  0  0  0  0  0  0
   22.4659   10.0862   51.6643 H   0  0  0  0  0  0  0  0  0  0  0  0
   20.5585   12.0338   53.5294 C   0  0  0  0  0  0  0  0  0  0  0  0
   20.5647   13.2157   52.6386 C   0  0  0  0  0  0  0  0  0  0  0  0
   21.4621   13.2211   51.5642 C   0  0  0  0  0  0  0  0  0  0  0  0
   21.5962   14.2666   50.6877 C   0  0  0  0  0  0  0  0  0  0  0  0
   20.8042   15.3594   50.8850 C   0  0  0  0  0  0  0  0  0  0  0  0
   19.9165   15.4146   51.9103 C   0  0  0  0  0  0  0  0  0  0  0  0
   19.8012   14.3311   52.7878 C   0  0  0  0  0  0  0  0  0  0  0  0
   23.2448    8.3944   56.3313 C   0  0  0  0  0  0  0  0  0  0  0  0
   22.6230    7.4608   55.3754 C   0  0  0  0  0  0  0  0  0  0  0  0
   23.3443    6.4574   54.7515 C   0  0  0  0  0  0  0  0  0  0  0  0
   22.7744    5.6297   53.8329 C   0  0  0  0  0  0  0  0  0  0  0  0
   21.4475    5.7931   53.5116 C   0  0  0  0  0  0  0  0  0  0  0  0
   20.7013    6.7807   54.1116 C   0  0  0  0  0  0  0  0  0  0  0  0
   21.2861    7.5918   55.0237 C   0  0  0  0  0  0  0  0  0  0  0  0
 36 37  1  0  0  0
 37 38  2  0  0  0
 37 39  1  0  0  0
 39 35  1  0  0  0
 35 41  1  0  0  0
 41 42  1  0  0  0
 42 43  2  0  0  0
 43 44  1  0  0  0
 44 45  2  0  0  0
 45 46  1  0  0  0
 46 47  2  0  0  0
 35 31  1  0  0  0
 31 32  2  0  0  0
 31 33  1  0  0  0
 33 30  1  0  0  0
 30 48  1  0  0  0
 48 49  1  0  0  0
 49 50  2  0  0  0
 50 51  1  0  0  0
 51 52  2  0  0  0
 52 53  1  0  0  0
 53 54  2  0  0  0
 30  1  1  0  0  0
  1  2  2  0  0  0
  1  3  1  0  0  0
  3  5  1  0  0  0
  5 23  1  0  0  0
 23 24  1  0  0  0
 24 25  2  0  0  0
 25 26  1  0  0  0
 26 27  2  0  0  0
 27 28  1  0  0  0
 28 29  2  0  0  0
  5  6  1  0  0  0
  6  7  2  0  0  0
  6  8  1  0  0  0
  8 10  1  0  0  0
 10 16  1  0  0  0
 16 17  1  0  0  0
 17 18  2  0  0  0
 18 19  1  0  0  0
 19 20  2  0  0  0
 20 21  1  0  0  0
 21 22  2  0  0  0
 10 11  1  0  0  0
 11 12  1  0  0  0
 11 13  2  0  0  0
 47 42  1  0  0  0
 54 49  1  0  0  0
 29 24  1  0  0  0
 22 17  1  0  0  0
 39 40  1  0  0  0
 33 34  1  0  0  0
  3  4  1  0  0  0
  8  9  1  0  0  0
 12 14  1  0  0  0
 12 15  1  0  0  0
M  END
> <minimizedAffinity>
30.25308

> <CNNscore>
0.5556446910

> <CNNaffinity>
6.8228330612

> <CNN_VS>
3.7910709381

> <CNNaffinity_variance>
1.1783168316

$$$$
[H]c1c([H])c([H])c(C([H])([H])[C@@]([H])(C(=O)N([H])[H])N([H])C(=O)[C@]([H])(N([H])C(=O)[C@@]([H])(N([H])C(=O)[C@@]([H])(N([H])C(=O)C([H])([H])[H])C([H])([H])c2c([H])c([H])c([H])c([H])c2[H])C([H])([H])c2c([H])c([H])c([H])c([H])c2[H])C([H])([H])c2c([H])c([H])c([H])c([H])c2[H])c([H])c1[H]


 54 57  0  0  0  0  0  0  0  0999 V2000
   26.8232    9.2401   57.0800 C   0  0  0  0  0  0  0  0  0  0  0  0
   25.9724    9.1519   58.0559 O   0  0  0  0  0  0  0  0  0  0  0  0
   26.2905    9.1877   55.7617 N   0  0  0  0  0  0  0  0  0  0  0  0
   26.9900    9.2243   54.9610 H   0  0  0  0  0  0  0  0  0  0  0  0
   24.9258    9.1000   55.4164 C   0  0  0  0  0  0  0  0  0  0  0  0
   24.5604    7.6734   55.0532 C   0  0  0  0  0  0  0  0  0  0  0  0
   25.5173    6.8574   54.9458 O   0  0  0  0  0  0  0  0  0  0  0  0
   23.2631    7.2127   54.8395 N   0  0  0  0  0  0  0  0  0  0  0  0
   22.4178    7.8171   54.9060 H   0  0  0  0  0  0  0  0  0  0  0  0
   22.9300    5.8079   54.4915 C   0  0  0  0  0  0  0  0  0  0  0  0
   23.8295    5.3183   53.4374 C   0  0  0  0  0  0  0  0  0  0  0  0
   24.3578    6.0841   52.3794 N   0  0  0  0  0  0  0  0  0  0  0  0
   24.1999    4.0745   53.4235 O   0  0  0  0  0  0  0  0  0  0  0  0
   25.3469    6.0231   52.1229 H   0  0  0  0  0  0  0  0  0  0  0  0
   23.7101    6.6997   51.8641 H   0  0  0  0  0  0  0  0  0  0  0  0
   21.5252    5.9185   53.8849 C   0  0  0  0  0  0  0  0  0  0  0  0
   21.2700    7.0171   52.9993 C   0  0  0  0  0  0  0  0  0  0  0  0
   22.2814    7.9821   52.8507 C   0  0  0  0  0  0  0  0  0  0  0  0
   22.0689    9.0792   52.0223 C   0  0  0  0  0  0  0  0  0  0  0  0
   20.9063    9.2545   51.3439 C   0  0  0  0  0  0  0  0  0  0  0  0
   19.8943    8.2988   51.4859 C   0  0  0  0  0  0  0  0  0  0  0  0
   20.0929    7.2198   52.2950 C   0  0  0  0  0  0  0  0  0  0  0  0
   23.8609    9.8301   56.0824 C   0  0  0  0  0  0  0  0  0  0  0  0
   22.6789   10.3264   55.4421 C   0  0  0  0  0  0  0  0  0  0  0  0
   21.4158    9.9717   55.9421 C   0  0  0  0  0  0  0  0  0  0  0  0
   20.2315   10.4171   55.3898 C   0  0  0  0  0  0  0  0  0  0  0  0
   20.2492   11.2468   54.3015 C   0  0  0  0  0  0  0  0  0  0  0  0
   21.4512   11.6226   53.7806 C   0  0  0  0  0  0  0  0  0  0  0  0
   22.6317   11.1588   54.3550 C   0  0  0  0  0  0  0  0  0  0  0  0
   28.2415    9.3942   57.3610 C   0  0  0  0  0  0  0  0  0  0  0  0
   29.1167   10.2374   59.5196 C   0  0  0  0  0  0  0  0  0  0  0  0
   29.1782   11.3808   58.9348 O   0  0  0  0  0  0  0  0  0  0  0  0
   28.6333    9.1694   58.7416 N   0  0  0  0  0  0  0  0  0  0  0  0
   28.5559    8.2298   59.1526 H   0  0  0  0  0  0  0  0  0  0  0  0
   29.5695   10.2109   60.9282 C   0  0  0  0  0  0  0  0  0  0  0  0
   29.5804    6.5549   61.3479 C   0  0  0  0  0  0  0  0  0  0  0  0
   30.5322    7.7255   61.6010 C   0  0  0  0  0  0  0  0  0  0  0  0
   31.6286    7.4101   62.0813 O   0  0  0  0  0  0  0  0  0  0  0  0
   30.0522    8.9619   61.2659 N   0  0  0  0  0  0  0  0  0  0  0  0
   31.2925    9.4859   61.4166 H   0  0  0  0  0  0  0  0  0  0  0  0
   30.5204   11.3829   61.2016 C   0  0  0  0  0  0  0  0  0  0  0  0
   29.7802   12.6645   61.1993 C   0  0  0  0  0  0  0  0  0  0  0  0
   30.5139   13.8439   61.0250 C   0  0  0  0  0  0  0  0  0  0  0  0
   29.9584   15.0971   61.0403 C   0  0  0  0  0  0  0  0  0  0  0  0
   28.6118   15.1866   61.2383 C   0  0  0  0  0  0  0  0  0  0  0  0
   27.8471   14.0793   61.4158 C   0  0  0  0  0  0  0  0  0  0  0  0
   28.4426   12.8136   61.3937 C   0  0  0  0  0  0  0  0  0  0  0  0
   29.1758    8.7200   56.4121 C   0  0  0  0  0  0  0  0  0  0  0  0
   28.7869    8.8129   54.9936 C   0  0  0  0  0  0  0  0  0  0  0  0
   29.0525    9.9365   54.2297 C   0  0  0  0  0  0  0  0  0  0  0  0
   28.6471   10.0347   52.9337 C   0  0  0  0  0  0  0  0  0  0  0  0
   27.9526    8.9930   52.3652 C   0  0  0  0  0  0  0  0  0  0  0  0
   27.6705    7.8620   53.0956 C   0  0  0  0  0  0  0  0  0  0  0  0
   28.0842    7.7833   54.3819 C   0  0  0  0  0  0  0  0  0  0  0  0
 36 37  1  0  0  0
 37 38  2  0  0  0
 37 39  1  0  0  0
 39 35  1  0  0  0
 35 41  1  0  0  0
 41 42  1  0  0  0
 42 43  2  0  0  0
 43 44  1  0  0  0
 44 45  2  0  0  0
 45 46  1  0  0  0
 46 47  2  0  0  0
 35 31  1  0  0  0
 31 32  2  0  0  0
 31 33  1  0  0  0
 33 30  1  0  0  0
 30 48  1  0  0  0
 48 49  1  0  0  0
 49 50  2  0  0  0
 50 51  1  0  0  0
 51 52  2  0  0  0
 52 53  1  0  0  0
 53 54  2  0  0  0
 30  1  1  0  0  0
  1  2  2  0  0  0
  1  3  1  0  0  0
  3  5  1  0  0  0
  5 23  1  0  0  0
 23 24  1  0  0  0
 24 25  2  0  0  0
 25 26  1  0  0  0
 26 27  2  0  0  0
 27 28  1  0  0  0
 28 29  2  0  0  0
  5  6  1  0  0  0
  6  7  2  0  0  0
  6  8  1  0  0  0
  8 10  1  0  0  0
 10 16  1  0  0  0
 16 17  1  0  0  0
 17 18  2  0  0  0
 18 19  1  0  0  0
 19 20  2  0  0  0
 20 21  1  0  0  0
 21 22  2  0  0  0
 10 11  1  0  0  0
 11 12  1  0  0  0
 11 13  2  0  0  0
 47 42  1  0  0  0
 54 49  1  0  0  0
 29 24  1  0  0  0
 22 17  1  0  0  0
 39 40  1  0  0  0
 33 34  1  0  0  0
  3  4  1  0  0  0
  8  9  1  0  0  0
 12 14  1  0  0  0
 12 15  1  0  0  0
M  END
> <minimizedAffinity>
21.50152

> <CNNscore>
0.5238555670

> <CNNaffinity>
7.1533913612

> <CNN_VS>
3.7473437786

> <CNNaffinity_variance>
1.3596835136

$$$$
[H]c1c([H])c([H])c(C([H])([H])[C@@]([H])(C(=O)N([H])[H])N([H])C(=O)[C@]([H])(N([H])C(=O)[C@@]([H])(N([H])C(=O)[C@@]([H])(N([H])C(=O)C([H])([H])[H])C([H])([H])c2c([H])c([H])c([H])c([H])c2[H])C([H])([H])c2c([H])c([H])c([H])c([H])c2[H])C([H])([H])c2c([H])c([H])c([H])c([H])c2[H])c([H])c1[H]


 54 57  0  0  0  0  0  0  0  0999 V2000
   26.2701    9.9439   56.7334 C   0  0  0  0  0  0  0  0  0  0  0  0
   26.1961    8.9283   57.5379 O   0  0  0  0  0  0  0  0  0  0  0  0
   25.1574   10.1596   55.8734 N   0  0  0  0  0  0  0  0  0  0  0  0
   25.2317   10.9706   55.1888 H   0  0  0  0  0  0  0  0  0  0  0  0
   23.9648    9.4071   55.8476 C   0  0  0  0  0  0  0  0  0  0  0  0
   22.9943    9.9841   54.8348 C   0  0  0  0  0  0  0  0  0  0  0  0
   22.0175   10.6349   55.2991 O   0  0  0  0  0  0  0  0  0  0  0  0
   23.1107    9.8499   53.4530 N   0  0  0  0  0  0  0  0  0  0  0  0
   23.8827    9.3293   52.9868 H   0  0  0  0  0  0  0  0  0  0  0  0
   22.1502   10.4309   52.4807 C   0  0  0  0  0  0  0  0  0  0  0  0
   22.1131   11.8939   52.6152 C   0  0  0  0  0  0  0  0  0  0  0  0
   22.5414   12.6327   53.7357 N   0  0  0  0  0  0  0  0  0  0  0  0
   21.6470   12.6248   51.6491 O   0  0  0  0  0  0  0  0  0  0  0  0
   23.1198   13.4705   53.6290 H   0  0  0  0  0  0  0  0  0  0  0  0
   22.2416   12.3066   54.6672 H   0  0  0  0  0  0  0  0  0  0  0  0
   20.7959    9.8892   52.9563 C   0  0  0  0  0  0  0  0  0  0  0  0
   20.6444    8.4659   53.0427 C   0  0  0  0  0  0  0  0  0  0  0  0
   20.6766    7.7336   51.8430 C   0  0  0  0  0  0  0  0  0  0  0  0
   20.5080    6.3532   51.8750 C   0  0  0  0  0  0  0  0  0  0  0  0
   20.3107    5.6789   53.0365 C   0  0  0  0  0  0  0  0  0  0  0  0
   20.2774    6.3998   54.2352 C   0  0  0  0  0  0  0  0  0  0  0  0
   20.4421    7.7528   54.2145 C   0  0  0  0  0  0  0  0  0  0  0  0
   23.9031    7.9604   55.9654 C   0  0  0  0  0  0  0  0  0  0  0  0
   23.8693    7.0462   54.8624 C   0  0  0  0  0  0  0  0  0  0  0  0
   23.5506    5.6974   55.0864 C   0  0  0  0  0  0  0  0  0  0  0  0
   23.4857    4.7578   54.0769 C   0  0  0  0  0  0  0  0  0  0  0  0
   23.7373    5.1215   52.7817 C   0  0  0  0  0  0  0  0  0  0  0  0
   24.0484    6.4207   52.5120 C   0  0  0  0  0  0  0  0  0  0  0  0
   24.1087    7.3490   53.5480 C   0  0  0  0  0  0  0  0  0  0  0  0
   27.4445   10.8010   56.7476 C   0  0  0  0  0  0  0  0  0  0  0  0
   28.6145   10.2974   58.8723 C   0  0  0  0  0  0  0  0  0  0  0  0
   28.8120    9.1297   58.3716 O   0  0  0  0  0  0  0  0  0  0  0  0
   27.9071   11.2059   58.0637 N   0  0  0  0  0  0  0  0  0  0  0  0
   27.7201   12.1579   58.4052 H   0  0  0  0  0  0  0  0  0  0  0  0
   29.1571   10.5138   60.2319 C   0  0  0  0  0  0  0  0  0  0  0  0
   31.6289    8.1754   61.6336 C   0  0  0  0  0  0  0  0  0  0  0  0
   30.1414    8.1691   61.2761 C   0  0  0  0  0  0  0  0  0  0  0  0
   29.5566    7.1018   61.5019 O   0  0  0  0  0  0  0  0  0  0  0  0
   29.6525    9.3364   60.7565 N   0  0  0  0  0  0  0  0  0  0  0  0
   28.3877    8.8734   60.9026 H   0  0  0  0  0  0  0  0  0  0  0  0
   30.1312   11.6985   60.2317 C   0  0  0  0  0  0  0  0  0  0  0  0
   29.4373   12.9423   60.6344 C   0  0  0  0  0  0  0  0  0  0  0  0
   30.1810   14.1280   60.6600 C   0  0  0  0  0  0  0  0  0  0  0  0
   29.6716   15.3397   61.0493 C   0  0  0  0  0  0  0  0  0  0  0  0
   28.3630   15.3790   61.4322 C   0  0  0  0  0  0  0  0  0  0  0  0
   27.5912   14.2625   61.4310 C   0  0  0  0  0  0  0  0  0  0  0  0
   28.1390   13.0402   61.0270 C   0  0  0  0  0  0  0  0  0  0  0  0
   28.5798   10.3737   55.8779 C   0  0  0  0  0  0  0  0  0  0  0  0
   28.2983    9.2033   55.0278 C   0  0  0  0  0  0  0  0  0  0  0  0
   29.1193    8.0887   55.0147 C   0  0  0  0  0  0  0  0  0  0  0  0
   28.8799    7.0315   54.1908 C   0  0  0  0  0  0  0  0  0  0  0  0
   27.7960    7.0690   53.3457 C   0  0  0  0  0  0  0  0  0  0  0  0
   26.9600    8.1613   53.3319 C   0  0  0  0  0  0  0  0  0  0  0  0
   27.2142    9.2011   54.1601 C   0  0  0  0  0  0  0  0  0  0  0  0
 36 37  1  0  0  0
 37 38  2  0  0  0
 37 39  1  0  0  0
 39 35  1  0  0  0
 35 41  1  0  0  0
 41 42  1  0  0  0
 42 43  2  0  0  0
 43 44  1  0  0  0
 44 45  2  0  0  0
 45 46  1  0  0  0
 46 47  2  0  0  0
 35 31  1  0  0  0
 31 32  2  0  0  0
 31 33  1  0  0  0
 33 30  1  0  0  0
 30 48  1  0  0  0
 48 49  1  0  0  0
 49 50  2  0  0  0
 50 51  1  0  0  0
 51 52  2  0  0  0
 52 53  1  0  0  0
 53 54  2  0  0  0
 30  1  1  0  0  0
  1  2  2  0  0  0
  1  3  1  0  0  0
  3  5  1  0  0  0
  5 23  1  0  0  0
 23 24  1  0  0  0
 24 25  2  0  0  0
 25 26  1  0  0  0
 26 27  2  0  0  0
 27 28  1  0  0  0
 28 29  2  0  0  0
  5  6  1  0  0  0
  6  7  2  0  0  0
  6  8  1  0  0  0
  8 10  1  0  0  0
 10 16  1  0  0  0
 16 17  1  0  0  0
 17 18  2  0  0  0
 18 19  1  0  0  0
 19 20  2  0  0  0
 20 21  1  0  0  0
 21 22  2  0  0  0
 10 11  1  0  0  0
 11 12  1  0  0  0
 11 13  2  0  0  0
 47 42  1  0  0  0
 54 49  1  0  0  0
 29 24  1  0  0  0
 22 17  1  0  0  0
 39 40  1  0  0  0
 33 34  1  0  0  0
  3  4  1  0  0  0
  8  9  1  0  0  0
 12 14  1  0  0  0
 12 15  1  0  0  0
M  END
> <minimizedAffinity>
26.91264

> <CNNscore>
0.5187249184

> <CNNaffinity>
7.2259216309

> <CNN_VS>
3.7482655048

> <CNNaffinity_variance>
1.4398815632

$$$$
[H]c1c([H])c([H])c(C([H])([H])[C@@]([H])(C(=O)N([H])[H])N([H])C(=O)[C@]([H])(N([H])C(=O)[C@@]([H])(N([H])C(=O)[C@@]([H])(N([H])C(=O)C([H])([H])[H])C([H])([H])c2c([H])c([H])c([H])c([H])c2[H])C([H])([H])c2c([H])c([H])c([H])c([H])c2[H])C([H])([H])c2c([H])c([H])c([H])c([H])c2[H])c([H])c1[H]


 54 57  0  0  0  0  0  0  0  0999 V2000
   26.1702    9.9289   56.8634 C   0  0  0  0  0  0  0  0  0  0  0  0
   26.1623   11.2200   56.9939 O   0  0  0  0  0  0  0  0  0  0  0  0
   27.0995    9.2116   57.6674 N   0  0  0  0  0  0  0  0  0  0  0  0
   27.1317    8.1564   57.5357 H   0  0  0  0  0  0  0  0  0  0  0  0
   27.9744    9.7644   58.6256 C   0  0  0  0  0  0  0  0  0  0  0  0
   28.7238    8.6667   59.3566 C   0  0  0  0  0  0  0  0  0  0  0  0
   29.4980    7.9539   58.6598 O   0  0  0  0  0  0  0  0  0  0  0  0
   28.6196    8.4024   60.7205 N   0  0  0  0  0  0  0  0  0  0  0  0
   28.0048    8.9394   61.3670 H   0  0  0  0  0  0  0  0  0  0  0  0
   29.3700    7.3253   61.4149 C   0  0  0  0  0  0  0  0  0  0  0  0
   30.7966    7.6696   61.4944 C   0  0  0  0  0  0  0  0  0  0  0  0
   31.3972    8.8320   60.9720 N   0  0  0  0  0  0  0  0  0  0  0  0
   31.6288    6.8646   62.0809 O   0  0  0  0  0  0  0  0  0  0  0  0
   32.0701    9.3739   61.5212 H   0  0  0  0  0  0  0  0  0  0  0  0
   31.1445    9.1114   60.0118 H   0  0  0  0  0  0  0  0  0  0  0  0
   29.2358    6.1309   60.4615 C   0  0  0  0  0  0  0  0  0  0  0  0
   28.3973    5.0435   60.8749 C   0  0  0  0  0  0  0  0  0  0  0  0
   27.0604    5.0506   60.4403 C   0  0  0  0  0  0  0  0  0  0  0  0
   26.2026    4.0300   60.8374 C   0  0  0  0  0  0  0  0  0  0  0  0
   26.6142    3.0151   61.6394 C   0  0  0  0  0  0  0  0  0  0  0  0
   27.9432    3.0001   62.0765 C   0  0  0  0  0  0  0  0  0  0  0  0
   28.7918    3.9954   61.6925 C   0  0  0  0  0  0  0  0  0  0  0  0
   28.7499   10.9768   58.4278 C   0  0  0  0  0  0  0  0  0  0  0  0
   29.1481   11.8773   59.4690 C   0  0  0  0  0  0  0  0  0  0  0  0
   28.3778   13.0214   59.7314 C   0  0  0  0  0  0  0  0  0  0  0  0
   28.6874   13.9303   60.7235 C   0  0  0  0  0  0  0  0  0  0  0  0
   29.7908   13.7402   61.5106 C   0  0  0  0  0  0  0  0  0  0  0  0
   30.5696   12.6423   61.2971 C   0  0  0  0  0  0  0  0  0  0  0  0
   30.2368   11.7410   60.2893 C   0  0  0  0  0  0  0  0  0  0  0  0
   25.2524    9.2840   55.9383 C   0  0  0  0  0  0  0  0  0  0  0  0
   22.8202    9.6414   55.6328 C   0  0  0  0  0  0  0  0  0  0  0  0
   22.6823    8.4849   56.1775 O   0  0  0  0  0  0  0  0  0  0  0  0
   24.1411   10.1034   55.4869 N   0  0  0  0  0  0  0  0  0  0  0  0
   24.3185   11.0232   55.0622 H   0  0  0  0  0  0  0  0  0  0  0  0
   21.5658   10.3171   55.2330 C   0  0  0  0  0  0  0  0  0  0  0  0
   22.0068   10.6657   51.5962 C   0  0  0  0  0  0  0  0  0  0  0  0
   21.8647   11.5838   52.8116 C   0  0  0  0  0  0  0  0  0  0  0  0
   21.9015   12.7944   52.5563 O   0  0  0  0  0  0  0  0  0  0  0  0
   21.7160   10.9524   54.0162 N   0  0  0  0  0  0  0  0  0  0  0  0
   21.3805   12.1310   54.5940 H   0  0  0  0  0  0  0  0  0  0  0  0
   20.3851    9.3428   55.3283 C   0  0  0  0  0  0  0  0  0  0  0  0
   20.4218    8.3706   54.2130 C   0  0  0  0  0  0  0  0  0  0  0  0
   20.5955    8.8684   52.9161 C   0  0  0  0  0  0  0  0  0  0  0  0
   20.6100    8.0824   51.7930 C   0  0  0  0  0  0  0  0  0  0  0  0
   20.4439    6.7392   51.9622 C   0  0  0  0  0  0  0  0  0  0  0  0
   20.2688    6.1971   53.1942 C   0  0  0  0  0  0  0  0  0  0  0  0
   20.2600    7.0248   54.3220 C   0  0  0  0  0  0  0  0  0  0  0  0
   25.8772    8.5401   54.8051 C   0  0  0  0  0  0  0  0  0  0  0  0
   24.9777    7.5977   54.1160 C   0  0  0  0  0  0  0  0  0  0  0  0
   24.6973    6.3416   54.6259 C   0  0  0  0  0  0  0  0  0  0  0  0
   23.9042    5.4580   53.9596 C   0  0  0  0  0  0  0  0  0  0  0  0
   23.3674    5.8182   52.7460 C   0  0  0  0  0  0  0  0  0  0  0  0
   23.6262    7.0581   52.2094 C   0  0  0  0  0  0  0  0  0  0  0  0
   24.4155    7.9227   52.8886 C   0  0  0  0  0  0  0  0  0  0  0  0
 36 37  1  0  0  0
 37 38  2  0  0  0
 37 39  1  0  0  0
 39 35  1  0  0  0
 35 41  1  0  0  0
 41 42  1  0  0  0
 42 43  2  0  0  0
 43 44  1  0  0  0
 44 45  2  0  0  0
 45 46  1  0  0  0
 46 47  2  0  0  0
 35 31  1  0  0  0
 31 32  2  0  0  0
 31 33  1  0  0  0
 33 30  1  0  0  0
 30 48  1  0  0  0
 48 49  1  0  0  0
 49 50  2  0  0  0
 50 51  1  0  0  0
 51 52  2  0  0  0
 52 53  1  0  0  0
 53 54  2  0  0  0
 30  1  1  0  0  0
  1  2  2  0  0  0
  1  3  1  0  0  0
  3  5  1  0  0  0
  5 23  1  0  0  0
 23 24  1  0  0  0
 24 25  2  0  0  0
 25 26  1  0  0  0
 26 27  2  0  0  0
 27 28  1  0  0  0
 28 29  2  0  0  0
  5  6  1  0  0  0
  6  7  2  0  0  0
  6  8  1  0  0  0
  8 10  1  0  0  0
 10 16  1  0  0  0
 16 17  1  0  0  0
 17 18  2  0  0  0
 18 19  1  0  0  0
 19 20  2  0  0  0
 20 21  1  0  0  0
 21 22  2  0  0  0
 10 11  1  0  0  0
 11 12  1  0  0  0
 11 13  2  0  0  0
 47 42  1  0  0  0
 54 49  1  0  0  0
 29 24  1  0  0  0
 22 17  1  0  0  0
 39 40  1  0  0  0
 33 34  1  0  0  0
  3  4  1  0  0  0
  8  9  1  0  0  0
 12 14  1  0  0  0
 12 15  1  0  0  0
M  END
> <minimizedAffinity>
15.99589

> <CNNscore>
0.5125421286

> <CNNaffinity>
7.0229291916

> <CNN_VS>
3.5995471478

> <CNNaffinity_variance>
0.9759833217

$$$$
[H]c1c([H])c([H])c(C([H])([H])[C@@]([H])(C(=O)N([H])[H])N([H])C(=O)[C@]([H])(N([H])C(=O)[C@@]([H])(N([H])C(=O)[C@@]([H])(N([H])C(=O)C([H])([H])[H])C([H])([H])c2c([H])c([H])c([H])c([H])c2[H])C([H])([H])c2c([H])c([H])c([H])c([H])c2[H])C([H])([H])c2c([H])c([H])c([H])c([H])c2[H])c([H])c1[H]


 54 57  0  0  0  0  0  0  0  0999 V2000
   25.9600    9.1135   56.2410 C   0  0  0  0  0  0  0  0  0  0  0  0
   25.2896   10.1321   56.6849 O   0  0  0  0  0  0  0  0  0  0  0  0
   27.1712    8.8016   56.9193 N   0  0  0  0  0  0  0  0  0  0  0  0
   27.7396    7.9888   56.5345 H   0  0  0  0  0  0  0  0  0  0  0  0
   27.6846    9.4610   58.0555 C   0  0  0  0  0  0  0  0  0  0  0  0
   28.5321    8.5129   58.8823 C   0  0  0  0  0  0  0  0  0  0  0  0
   29.4395    7.8874   58.2670 O   0  0  0  0  0  0  0  0  0  0  0  0
   28.3810    8.2953   60.2500 N   0  0  0  0  0  0  0  0  0  0  0  0
   27.6587    8.7673   60.8331 H   0  0  0  0  0  0  0  0  0  0  0  0
   29.2289    7.3662   61.0394 C   0  0  0  0  0  0  0  0  0  0  0  0
   30.6284    7.8146   61.0203 C   0  0  0  0  0  0  0  0  0  0  0  0
   31.3011    8.4707   62.0699 N   0  0  0  0  0  0  0  0  0  0  0  0
   31.3591    7.6226   59.9649 O   0  0  0  0  0  0  0  0  0  0  0  0
   32.2448    8.1913   62.3516 H   0  0  0  0  0  0  0  0  0  0  0  0
   30.8141    9.2508   62.5370 H   0  0  0  0  0  0  0  0  0  0  0  0
   29.1529    6.0568   60.2434 C   0  0  0  0  0  0  0  0  0  0  0  0
   28.3286    5.0080   60.7695 C   0  0  0  0  0  0  0  0  0  0  0  0
   26.9582    5.0380   60.4570 C   0  0  0  0  0  0  0  0  0  0  0  0
   26.1149    4.0558   60.9663 C   0  0  0  0  0  0  0  0  0  0  0  0
   26.5724    3.0573   61.7640 C   0  0  0  0  0  0  0  0  0  0  0  0
   27.9349    3.0197   62.0800 C   0  0  0  0  0  0  0  0  0  0  0  0
   28.7696    3.9773   61.5855 C   0  0  0  0  0  0  0  0  0  0  0  0
   28.1571   10.8347   58.0650 C   0  0  0  0  0  0  0  0  0  0  0  0
   28.6222   11.5364   59.2247 C   0  0  0  0  0  0  0  0  0  0  0  0
   29.5889   10.9457   60.0539 C   0  0  0  0  0  0  0  0  0  0  0  0
   30.0962   11.5607   61.1811 C   0  0  0  0  0  0  0  0  0  0  0  0
   29.6603   12.8076   61.5394 C   0  0  0  0  0  0  0  0  0  0  0  0
   28.7242   13.4248   60.7646 C   0  0  0  0  0  0  0  0  0  0  0  0
   28.2272   12.7829   59.6334 C   0  0  0  0  0  0  0  0  0  0  0  0
   25.4598    8.3483   55.1104 C   0  0  0  0  0  0  0  0  0  0  0  0
   23.3419    7.4923   54.1520 C   0  0  0  0  0  0  0  0  0  0  0  0
   24.0240    6.4512   53.8295 O   0  0  0  0  0  0  0  0  0  0  0  0
   24.0450    8.5095   54.8231 N   0  0  0  0  0  0  0  0  0  0  0  0
   23.5551    9.3665   55.1119 H   0  0  0  0  0  0  0  0  0  0  0  0
   21.9140    7.4705   53.7642 C   0  0  0  0  0  0  0  0  0  0  0  0
   20.8561   10.4406   55.6619 C   0  0  0  0  0  0  0  0  0  0  0  0
   20.4067    8.9884   55.4907 C   0  0  0  0  0  0  0  0  0  0  0  0
   19.4117    8.6700   56.1546 O   0  0  0  0  0  0  0  0  0  0  0  0
   21.1575    8.2338   54.6313 N   0  0  0  0  0  0  0  0  0  0  0  0
   20.2159    7.2601   54.6614 H   0  0  0  0  0  0  0  0  0  0  0  0
   21.7630    7.8147   52.2772 C   0  0  0  0  0  0  0  0  0  0  0  0
   21.6987    9.2810   52.0868 C   0  0  0  0  0  0  0  0  0  0  0  0
   22.0397   10.0976   53.1716 C   0  0  0  0  0  0  0  0  0  0  0  0
   21.9870   11.4671   53.1416 C   0  0  0  0  0  0  0  0  0  0  0  0
   21.5762   12.0563   51.9820 C   0  0  0  0  0  0  0  0  0  0  0  0
   21.2301   11.3181   50.8968 C   0  0  0  0  0  0  0  0  0  0  0  0
   21.2956    9.9220   50.9573 C   0  0  0  0  0  0  0  0  0  0  0  0
   26.2795    8.4060   53.8643 C   0  0  0  0  0  0  0  0  0  0  0  0
   27.7330    8.2869   54.0766 C   0  0  0  0  0  0  0  0  0  0  0  0
   28.5034    9.3531   54.5081 C   0  0  0  0  0  0  0  0  0  0  0  0
   29.8530    9.2493   54.6552 C   0  0  0  0  0  0  0  0  0  0  0  0
   30.4715    8.0558   54.3661 C   0  0  0  0  0  0  0  0  0  0  0  0
   29.7366    6.9762   53.9341 C   0  0  0  0  0  0  0  0  0  0  0  0
   28.3958    7.0994   53.7963 C   0  0  0  0  0  0  0  0  0  0  0  0
 36 37  1  0  0  0
 37 38  2  0  0  0
 37 39  1  0  0  0
 39 35  1  0  0  0
 35 41  1  0  0  0
 41 42  1  0  0  0
 42 43  2  0  0  0
 43 44  1  0  0  0
 44 45  2  0  0  0
 45 46  1  0  0  0
 46 47  2  0  0  0
 35 31  1  0  0  0
 31 32  2  0  0  0
 31 33  1  0  0  0
 33 30  1  0  0  0
 30 48  1  0  0  0
 48 49  1  0  0  0
 49 50  2  0  0  0
 50 51  1  0  0  0
 51 52  2  0  0  0
 52 53  1  0  0  0
 53 54  2  0  0  0
 30  1  1  0  0  0
  1  2  2  0  0  0
  1  3  1  0  0  0
  3  5  1  0  0  0
  5 23  1  0  0  0
 23 24  1  0  0  0
 24 25  2  0  0  0
 25 26  1  0  0  0
 26 27  2  0  0  0
 27 28  1  0  0  0
 28 29  2  0  0  0
  5  6  1  0  0  0
  6  7  2  0  0  0
  6  8  1  0  0  0
  8 10  1  0  0  0
 10 16  1  0  0  0
 16 17  1  0  0  0
 17 18  2  0  0  0
 18 19  1  0  0  0
 19 20  2  0  0  0
 20 21  1  0  0  0
 21 22  2  0  0  0
 10 11  1  0  0  0
 11 12  1  0  0  0
 11 13  2  0  0  0
 47 42  1  0  0  0
 54 49  1  0  0  0
 29 24  1  0  0  0
 22 17  1  0  0  0
 39 40  1  0  0  0
 33 34  1  0  0  0
  3  4  1  0  0  0
  8  9  1  0  0  0
 12 14  1  0  0  0
 12 15  1  0  0  0
M  END
> <minimizedAffinity>
19.95325

> <CNNscore>
0.4963135719

> <CNNaffinity>
7.1628136635

> <CNN_VS>
3.5550017357

> <CNNaffinity_variance>
1.3909565210

$$$$
[H]c1c([H])c([H])c(C([H])([H])[C@@]([H])(C(=O)N([H])[H])N([H])C(=O)[C@]([H])(N([H])C(=O)[C@@]([H])(N([H])C(=O)[C@@]([H])(N([H])C(=O)C([H])([H])[H])C([H])([H])c2c([H])c([H])c([H])c([H])c2[H])C([H])([H])c2c([H])c([H])c([H])c([H])c2[H])C([H])([H])c2c([H])c([H])c([H])c([H])c2[H])c([H])c1[H]


 54 57  0  0  0  0  0  0  0  0999 V2000
   28.6099    8.7995   58.3194 C   0  0  0  0  0  0  0  0  0  0  0  0
   28.0321    9.7561   58.9790 O   0  0  0  0  0  0  0  0  0  0  0  0
   29.5173    7.9798   59.0468 N   0  0  0  0  0  0  0  0  0  0  0  0
   30.0182    7.2177   58.4991 H   0  0  0  0  0  0  0  0  0  0  0  0
   29.8090    8.0764   60.4233 C   0  0  0  0  0  0  0  0  0  0  0  0
   29.3934    9.4326   60.9605 C   0  0  0  0  0  0  0  0  0  0  0  0
   28.2112    9.5286   61.3921 O   0  0  0  0  0  0  0  0  0  0  0  0
   30.2163   10.5556   61.0126 N   0  0  0  0  0  0  0  0  0  0  0  0
   31.2021   10.5647   60.6774 H   0  0  0  0  0  0  0  0  0  0  0  0
   29.7878   11.8719   61.5504 C   0  0  0  0  0  0  0  0  0  0  0  0
   28.6232   12.3707   60.8056 C   0  0  0  0  0  0  0  0  0  0  0  0
   27.3646   12.6875   61.3537 N   0  0  0  0  0  0  0  0  0  0  0  0
   28.6987   12.5486   59.5222 O   0  0  0  0  0  0  0  0  0  0  0  0
   26.8762   13.5498   61.0971 H   0  0  0  0  0  0  0  0  0  0  0  0
   26.9466   12.0139   62.0137 H   0  0  0  0  0  0  0  0  0  0  0  0
   30.9729   12.7895   61.2225 C   0  0  0  0  0  0  0  0  0  0  0  0
   30.6995   14.1848   61.0368 C   0  0  0  0  0  0  0  0  0  0  0  0
   29.3790   14.6223   61.2401 C   0  0  0  0  0  0  0  0  0  0  0  0
   29.0609   15.9626   61.0464 C   0  0  0  0  0  0  0  0  0  0  0  0
   29.9903   16.8748   60.6633 C   0  0  0  0  0  0  0  0  0  0  0  0
   31.3070   16.4481   60.4589 C   0  0  0  0  0  0  0  0  0  0  0  0
   31.6290   15.1369   60.6465 C   0  0  0  0  0  0  0  0  0  0  0  0
   29.6493    6.9909   61.3755 C   0  0  0  0  0  0  0  0  0  0  0  0
   28.7659    5.8748   61.2097 C   0  0  0  0  0  0  0  0  0  0  0  0
   27.9738    5.7802   60.0544 C   0  0  0  0  0  0  0  0  0  0  0  0
   27.1077    4.7321   59.8149 C   0  0  0  0  0  0  0  0  0  0  0  0
   26.9889    3.7164   60.7246 C   0  0  0  0  0  0  0  0  0  0  0  0
   27.7394    3.7607   61.8614 C   0  0  0  0  0  0  0  0  0  0  0  0
   28.6046    4.8294   62.0803 C   0  0  0  0  0  0  0  0  0  0  0  0
   28.3106    8.6014   56.9104 C   0  0  0  0  0  0  0  0  0  0  0  0
   26.3322    8.3300   55.4446 C   0  0  0  0  0  0  0  0  0  0  0  0
   26.9811    7.3538   54.9162 O   0  0  0  0  0  0  0  0  0  0  0  0
   26.9822    9.0117   56.4897 N   0  0  0  0  0  0  0  0  0  0  0  0
   26.5143    9.7996   56.9567 H   0  0  0  0  0  0  0  0  0  0  0  0
   24.9946    8.5978   54.8708 C   0  0  0  0  0  0  0  0  0  0  0  0
   22.5885    6.4019   53.1589 C   0  0  0  0  0  0  0  0  0  0  0  0
   23.7649    6.2548   54.1257 C   0  0  0  0  0  0  0  0  0  0  0  0
   24.0229    5.0907   54.4579 O   0  0  0  0  0  0  0  0  0  0  0  0
   24.3762    7.4214   54.4959 N   0  0  0  0  0  0  0  0  0  0  0  0
   25.3936    6.7154   55.0455 H   0  0  0  0  0  0  0  0  0  0  0  0
   24.1850    9.4993   55.8111 C   0  0  0  0  0  0  0  0  0  0  0  0
   22.8343    9.7469   55.2589 C   0  0  0  0  0  0  0  0  0  0  0  0
   21.8516    8.7729   55.4714 C   0  0  0  0  0  0  0  0  0  0  0  0
   20.5735    8.8597   54.9832 C   0  0  0  0  0  0  0  0  0  0  0  0
   20.2535    9.9637   54.2489 C   0  0  0  0  0  0  0  0  0  0  0  0
   21.1636   10.9411   54.0067 C   0  0  0  0  0  0  0  0  0  0  0  0
   22.4601   10.8251   54.5195 C   0  0  0  0  0  0  0  0  0  0  0  0
   29.3540    9.0603   55.9468 C   0  0  0  0  0  0  0  0  0  0  0  0
   28.9094    9.1287   54.5433 C   0  0  0  0  0  0  0  0  0  0  0  0
   28.7360   10.3338   53.8843 C   0  0  0  0  0  0  0  0  0  0  0  0
   28.2783   10.3910   52.6032 C   0  0  0  0  0  0  0  0  0  0  0  0
   27.9767    9.2228   51.9437 C   0  0  0  0  0  0  0  0  0  0  0  0
   28.1362    8.0079   52.5688 C   0  0  0  0  0  0  0  0  0  0  0  0
   28.5944    7.9725   53.8419 C   0  0  0  0  0  0  0  0  0  0  0  0
 36 37  1  0  0  0
 37 38  2  0  0  0
 37 39  1  0  0  0
 39 35  1  0  0  0
 35 41  1  0  0  0
 41 42  1  0  0  0
 42 43  2  0  0  0
 43 44  1  0  0  0
 44 45  2  0  0  0
 45 46  1  0  0  0
 46 47  2  0  0  0
 35 31  1  0  0  0
 31 32  2  0  0  0
 31 33  1  0  0  0
 33 30  1  0  0  0
 30 48  1  0  0  0
 48 49  1  0  0  0
 49 50  2  0  0  0
 50 51  1  0  0  0
 51 52  2  0  0  0
 52 53  1  0  0  0
 53 54  2  0  0  0
 30  1  1  0  0  0
  1  2  2  0  0  0
  1  3  1  0  0  0
  3  5  1  0  0  0
  5 23  1  0  0  0
 23 24  1  0  0  0
 24 25  2  0  0  0
 25 26  1  0  0  0
 26 27  2  0  0  0
 27 28  1  0  0  0
 28 29  2  0  0  0
  5  6  1  0  0  0
  6  7  2  0  0  0
  6  8  1  0  0  0
  8 10  1  0  0  0
 10 16  1  0  0  0
 16 17  1  0  0  0
 17 18  2  0  0  0
 18 19  1  0  0  0
 19 20  2  0  0  0
 20 21  1  0  0  0
 21 22  2  0  0  0
 10 11  1  0  0  0
 11 12  1  0  0  0
 11 13  2  0  0  0
 47 42  1  0  0  0
 54 49  1  0  0  0
 29 24  1  0  0  0
 22 17  1  0  0  0
 39 40  1  0  0  0
 33 34  1  0  0  0
  3  4  1  0  0  0
  8  9  1  0  0  0
 12 14  1  0  0  0
 12 15  1  0  0  0
M  END
> <minimizedAffinity>
21.03197

> <CNNscore>
0.4892171919

> <CNNaffinity>
7.1088781357

> <CNN_VS>
3.4777853489

> <CNNaffinity_variance>
0.5588179827

$$$$
[H]c1c([H])c([H])c(C([H])([H])[C@@]([H])(C(=O)N([H])[H])N([H])C(=O)[C@]([H])(N([H])C(=O)[C@@]([H])(N([H])C(=O)[C@@]([H])(N([H])C(=O)C([H])([H])[H])C([H])([H])c2c([H])c([H])c([H])c([H])c2[H])C([H])([H])c2c([H])c([H])c([H])c([H])c2[H])C([H])([H])c2c([H])c([H])c([H])c([H])c2[H])c([H])c1[H]


 54 57  0  0  0  0  0  0  0  0999 V2000
   25.5141    9.7092   56.8826 C   0  0  0  0  0  0  0  0  0  0  0  0
   25.2097    8.9739   57.9077 O   0  0  0  0  0  0  0  0  0  0  0  0
   24.4748    9.9559   55.9427 N   0  0  0  0  0  0  0  0  0  0  0  0
   24.7321   10.5289   55.0841 H   0  0  0  0  0  0  0  0  0  0  0  0
   23.1371    9.5207   56.0449 C   0  0  0  0  0  0  0  0  0  0  0  0
   22.2430   10.3314   55.1262 C   0  0  0  0  0  0  0  0  0  0  0  0
   21.5114   11.2004   55.6763 O   0  0  0  0  0  0  0  0  0  0  0  0
   22.1814   10.1863   53.7420 N   0  0  0  0  0  0  0  0  0  0  0  0
   22.7481    9.4945   53.2085 H   0  0  0  0  0  0  0  0  0  0  0  0
   21.3021   10.9980   52.8625 C   0  0  0  0  0  0  0  0  0  0  0  0
   21.1037   10.3179   51.5748 C   0  0  0  0  0  0  0  0  0  0  0  0
   20.7250   10.9320   50.3648 N   0  0  0  0  0  0  0  0  0  0  0  0
   21.2711    9.0340   51.4841 O   0  0  0  0  0  0  0  0  0  0  0  0
   21.1992   10.7087   49.4855 H   0  0  0  0  0  0  0  0  0  0  0  0
   19.9446   11.6059   50.3937 H   0  0  0  0  0  0  0  0  0  0  0  0
   22.1363   12.2575   52.5954 C   0  0  0  0  0  0  0  0  0  0  0  0
   21.4370   13.4429   52.1928 C   0  0  0  0  0  0  0  0  0  0  0  0
   20.3481   13.8557   52.9804 C   0  0  0  0  0  0  0  0  0  0  0  0
   19.6234   14.9852   52.6141 C   0  0  0  0  0  0  0  0  0  0  0  0
   19.9328   15.7123   51.5103 C   0  0  0  0  0  0  0  0  0  0  0  0
   21.0151   15.3086   50.7208 C   0  0  0  0  0  0  0  0  0  0  0  0
   21.7319   14.2034   51.0715 C   0  0  0  0  0  0  0  0  0  0  0  0
   22.7330    8.1325   56.1864 C   0  0  0  0  0  0  0  0  0  0  0  0
   22.2099    7.3165   55.1308 C   0  0  0  0  0  0  0  0  0  0  0  0
   20.9404    7.5953   54.6001 C   0  0  0  0  0  0  0  0  0  0  0  0
   20.3717    6.8648   53.5759 C   0  0  0  0  0  0  0  0  0  0  0  0
   21.0486    5.8105   53.0249 C   0  0  0  0  0  0  0  0  0  0  0  0
   22.2866    5.5015   53.5037 C   0  0  0  0  0  0  0  0  0  0  0  0
   22.8378    6.2529   54.5383 C   0  0  0  0  0  0  0  0  0  0  0  0
   26.8588   10.2441   56.7427 C   0  0  0  0  0  0  0  0  0  0  0  0
   28.2972    9.8230   58.7151 C   0  0  0  0  0  0  0  0  0  0  0  0
   28.4411    8.6395   58.2336 O   0  0  0  0  0  0  0  0  0  0  0  0
   27.4824   10.6981   57.9736 N   0  0  0  0  0  0  0  0  0  0  0  0
   27.3307   11.6604   58.3034 H   0  0  0  0  0  0  0  0  0  0  0  0
   29.0076   10.0907   59.9853 C   0  0  0  0  0  0  0  0  0  0  0  0
   29.3821    6.5741   61.0029 C   0  0  0  0  0  0  0  0  0  0  0  0
   30.2604    7.8227   60.9038 C   0  0  0  0  0  0  0  0  0  0  0  0
   31.4372    7.6599   61.2513 O   0  0  0  0  0  0  0  0  0  0  0  0
   29.6360    8.9508   60.4466 N   0  0  0  0  0  0  0  0  0  0  0  0
   30.8373    9.5623   60.3105 H   0  0  0  0  0  0  0  0  0  0  0  0
   29.9038   11.3270   59.8413 C   0  0  0  0  0  0  0  0  0  0  0  0
   29.2513   12.5145   60.4368 C   0  0  0  0  0  0  0  0  0  0  0  0
   29.9295   13.7372   60.3688 C   0  0  0  0  0  0  0  0  0  0  0  0
   29.4560   14.9034   60.9121 C   0  0  0  0  0  0  0  0  0  0  0  0
   28.2534   14.8562   61.5540 C   0  0  0  0  0  0  0  0  0  0  0  0
   27.5496   13.7001   61.6550 C   0  0  0  0  0  0  0  0  0  0  0  0
   28.0581   12.5261   61.0890 C   0  0  0  0  0  0  0  0  0  0  0  0
   27.8045    9.4355   55.9181 C   0  0  0  0  0  0  0  0  0  0  0  0
   27.2369    8.9155   54.6614 C   0  0  0  0  0  0  0  0  0  0  0  0
   26.0692    8.1725   54.6331 C   0  0  0  0  0  0  0  0  0  0  0  0
   25.5771    7.6540   53.4744 C   0  0  0  0  0  0  0  0  0  0  0  0
   26.2565    7.8700   52.2986 C   0  0  0  0  0  0  0  0  0  0  0  0
   27.4206    8.6029   52.2904 C   0  0  0  0  0  0  0  0  0  0  0  0
   27.8920    9.1114   53.4528 C   0  0  0  0  0  0  0  0  0  0  0  0
 36 37  1  0  0  0
 37 38  2  0  0  0
 37 39  1  0  0  0
 39 35  1  0  0  0
 35 41  1  0  0  0
 41 42  1  0  0  0
 42 43  2  0  0  0
 43 44  1  0  0  0
 44 45  2  0  0  0
 45 46  1  0  0  0
 46 47  2  0  0  0
 35 31  1  0  0  0
 31 32  2  0  0  0
 31 33  1  0  0  0
 33 30  1  0  0  0
 30 48  1  0  0  0
 48 49  1  0  0  0
 49 50  2  0  0  0
 50 51  1  0  0  0
 51 52  2  0  0  0
 52 53  1  0  0  0
 53 54  2  0  0  0
 30  1  1  0  0  0
  1  2  2  0  0  0
  1  3  1  0  0  0
  3  5  1  0  0  0
  5 23  1  0  0  0
 23 24  1  0  0  0
 24 25  2  0  0  0
 25 26  1  0  0  0
 26 27  2  0  0  0
 27 28  1  0  0  0
 28 29  2  0  0  0
  5  6  1  0  0  0
  6  7  2  0  0  0
  6  8  1  0  0  0
  8 10  1  0  0  0
 10 16  1  0  0  0
 16 17  1  0  0  0
 17 18  2  0  0  0
 18 19  1  0  0  0
 19 20  2  0  0  0
 20 21  1  0  0  0
 21 22  2  0  0  0
 10 11  1  0  0  0
 11 12  1  0  0  0
 11 13  2  0  0  0
 47 42  1  0  0  0
 54 49  1  0  0  0
 29 24  1  0  0  0
 22 17  1  0  0  0
 39 40  1  0  0  0
 33 34  1  0  0  0
  3  4  1  0  0  0
  8  9  1  0  0  0
 12 14  1  0  0  0
 12 15  1  0  0  0
M  END
> <minimizedAffinity>
25.26976

> <CNNscore>
0.4765841663

> <CNNaffinity>
6.9143781662

> <CNN_VS>
3.2952830791

> <CNNaffinity_variance>
2.2335693836

$$$$
[H]c1c([H])c(N2C([H])([H])C(=O)N(c3c([H])c([H])c([N+](=O)[O-])c([H])c3[H])C([H])([H])C2([H])[H])c([H])c([H])c1N1C([H])([H])C([H])([H])OC([H])([H])C1([H])[H]


 28 31  0  0  0  0  0  0  0  0999 V2000
   20.6679    6.3877   53.8568 N   0  0  0  0  0  0  0  0  0  0  0  0
   20.5723    7.8397   54.0644 C   0  0  0  0  0  0  0  0  0  0  0  0
   21.8200    8.4732   54.5586 C   0  0  0  0  0  0  0  0  0  0  0  0
   23.0481    7.8358   54.1972 N   0  0  0  0  0  0  0  0  0  0  0  0
   23.0718    6.6860   53.2898 C   0  0  0  0  0  0  0  0  0  0  0  0
   21.9546    5.7939   53.8120 C   0  0  0  0  0  0  0  0  0  0  0  0
   22.1978    4.6202   54.1709 O   0  0  0  0  0  0  0  0  0  0  0  0
   17.0671    4.1821   53.4785 C   0  0  0  0  0  0  0  0  0  0  0  0
   17.0602    5.5291   53.6980 C   0  0  0  0  0  0  0  0  0  0  0  0
   18.2694    6.2271   53.8142 C   0  0  0  0  0  0  0  0  0  0  0  0
   19.4980    5.6076   53.7169 C   0  0  0  0  0  0  0  0  0  0  0  0
   19.4906    4.2670   53.4975 C   0  0  0  0  0  0  0  0  0  0  0  0
   18.2891    3.5549   53.3787 C   0  0  0  0  0  0  0  0  0  0  0  0
   14.6584    4.1917   53.3183 O   0  0  0  0  0  0  0  0  0  0  0  0
   15.8281    3.4793   53.3670 N   0  0  0  0  0  0  0  0  0  0  0  0
   15.7839    2.2546   53.3152 O   0  0  0  0  0  0  0  0  0  0  0  0
   24.2494    8.2940   54.7504 C   0  0  0  0  0  0  0  0  0  0  0  0
   25.4988    7.9995   54.3105 C   0  0  0  0  0  0  0  0  0  0  0  0
   26.6648    8.4687   54.9100 C   0  0  0  0  0  0  0  0  0  0  0  0
   26.5725    9.2895   56.0297 C   0  0  0  0  0  0  0  0  0  0  0  0
   25.2843    9.5949   56.4872 C   0  0  0  0  0  0  0  0  0  0  0  0
   24.1549    9.1159   55.8716 C   0  0  0  0  0  0  0  0  0  0  0  0
   27.7019    9.8100   56.6761 N   0  0  0  0  0  0  0  0  0  0  0  0
   28.6203    8.9927   57.4257 C   0  0  0  0  0  0  0  0  0  0  0  0
   28.5829    9.5285   58.8447 C   0  0  0  0  0  0  0  0  0  0  0  0
   29.0490   10.8292   58.8105 O   0  0  0  0  0  0  0  0  0  0  0  0
   28.2646   11.7099   58.0887 C   0  0  0  0  0  0  0  0  0  0  0  0
   28.0185   11.2130   56.6622 C   0  0  0  0  0  0  0  0  0  0  0  0
 14 15  1  0  0  0
 15 16  2  0  0  0
 15  8  1  0  0  0
  8  9  2  0  0  0
  9 10  1  0  0  0
 10 11  2  0  0  0
 11 12  1  0  0  0
 12 13  2  0  0  0
 11  1  1  0  0  0
  1  2  1  0  0  0
  2  3  1  0  0  0
  3  4  1  0  0  0
  4  5  1  0  0  0
  5  6  1  0  0  0
  6  7  2  0  0  0
  4 17  1  0  0  0
 17 18  2  0  0  0
 18 19  1  0  0  0
 19 20  2  0  0  0
 20 21  1  0  0  0
 21 22  2  0  0  0
 20 23  1  0  0  0
 23 24  1  0  0  0
 24 25  1  0  0  0
 25 26  1  0  0  0
 26 27  1  0  0  0
 27 28  1  0  0  0
 13  8  1  0  0  0
  6  1  1  0  0  0
 22 17  1  0  0  0
 28 23  1  0  0  0
M  CHG 1  14  -1
M  CHG 1  15   1
M  END
> <minimizedAffinity>
26.66884

> <CNNscore>
0.5094760656

> <CNNaffinity>
5.9036879539

> <CNN_VS>
3.0077877045

> <CNNaffinity_variance>
1.0155339241

$$$$
[H]c1c([H])c(N2C([H])([H])C(=O)N(c3c([H])c([H])c([N+](=O)[O-])c([H])c3[H])C([H])([H])C2([H])[H])c([H])c([H])c1N1C([H])([H])C([H])([H])OC([H])([H])C1([H])[H]


 28 31  0  0  0  0  0  0  0  0999 V2000
   24.8873    8.6601   54.6700 N   0  0  0  0  0  0  0  0  0  0  0  0
   26.3105    8.6254   54.3040 C   0  0  0  0  0  0  0  0  0  0  0  0
   27.2128    9.2809   55.2832 C   0  0  0  0  0  0  0  0  0  0  0  0
   26.7779    9.2937   56.6455 N   0  0  0  0  0  0  0  0  0  0  0  0
   25.5615    8.5930   57.0638 C   0  0  0  0  0  0  0  0  0  0  0  0
   24.5399    8.9848   56.0057 C   0  0  0  0  0  0  0  0  0  0  0  0
   23.4768    9.5570   56.3341 O   0  0  0  0  0  0  0  0  0  0  0  0
   21.8299    7.9773   51.8136 C   0  0  0  0  0  0  0  0  0  0  0  0
   21.8974    9.1407   52.5237 C   0  0  0  0  0  0  0  0  0  0  0  0
   22.9240    9.3343   53.4572 C   0  0  0  0  0  0  0  0  0  0  0  0
   23.8942    8.3852   53.7031 C   0  0  0  0  0  0  0  0  0  0  0  0
   23.8160    7.2323   52.9890 C   0  0  0  0  0  0  0  0  0  0  0  0
   22.7951    7.0241   52.0513 C   0  0  0  0  0  0  0  0  0  0  0  0
   19.4849    8.0522   51.2452 O   0  0  0  0  0  0  0  0  0  0  0  0
   20.7756    7.7883   50.8679 N   0  0  0  0  0  0  0  0  0  0  0  0
   20.9956    7.3943   49.7273 O   0  0  0  0  0  0  0  0  0  0  0  0
   27.5068   10.0217   57.5930 C   0  0  0  0  0  0  0  0  0  0  0  0
   28.3288    9.5061   58.5416 C   0  0  0  0  0  0  0  0  0  0  0  0
   29.0186   10.2762   59.4745 C   0  0  0  0  0  0  0  0  0  0  0  0
   28.8736   11.6598   59.4565 C   0  0  0  0  0  0  0  0  0  0  0  0
   28.0251   12.1955   58.4793 C   0  0  0  0  0  0  0  0  0  0  0  0
   27.3604   11.4073   57.5734 C   0  0  0  0  0  0  0  0  0  0  0  0
   29.5473   12.4986   60.3549 N   0  0  0  0  0  0  0  0  0  0  0  0
   28.9156   13.0692   61.5162 C   0  0  0  0  0  0  0  0  0  0  0  0
   29.0007   14.5729   61.3330 C   0  0  0  0  0  0  0  0  0  0  0  0
   30.3397   14.9157   61.3239 O   0  0  0  0  0  0  0  0  0  0  0  0
   31.0660   14.3979   60.2675 C   0  0  0  0  0  0  0  0  0  0  0  0
   30.9227   12.8772   60.1710 C   0  0  0  0  0  0  0  0  0  0  0  0
 14 15  1  0  0  0
 15 16  2  0  0  0
 15  8  1  0  0  0
  8  9  2  0  0  0
  9 10  1  0  0  0
 10 11  2  0  0  0
 11 12  1  0  0  0
 12 13  2  0  0  0
 11  1  1  0  0  0
  1  2  1  0  0  0
  2  3  1  0  0  0
  3  4  1  0  0  0
  4  5  1  0  0  0
  5  6  1  0  0  0
  6  7  2  0  0  0
  4 17  1  0  0  0
 17 18  2  0  0  0
 18 19  1  0  0  0
 19 20  2  0  0  0
 20 21  1  0  0  0
 21 22  2  0  0  0
 20 23  1  0  0  0
 23 24  1  0  0  0
 24 25  1  0  0  0
 25 26  1  0  0  0
 26 27  1  0  0  0
 27 28  1  0  0  0
 13  8  1  0  0  0
  6  1  1  0  0  0
 22 17  1  0  0  0
 28 23  1  0  0  0
M  CHG 1  14  -1
M  CHG 1  15   1
M  END
> <minimizedAffinity>
18.22919

> <CNNscore>
0.4810345471

> <CNNaffinity>
5.4772872925

> <CNN_VS>
2.6347644329

> <CNNaffinity_variance>
0.2395939380

$$$$
[H]c1c([H])c(N2C([H])([H])C(=O)N(c3c([H])c([H])c([N+](=O)[O-])c([H])c3[H])C([H])([H])C2([H])[H])c([H])c([H])c1N1C([H])([H])C([H])([H])OC([H])([H])C1([H])[H]


 28 31  0  0  0  0  0  0  0  0999 V2000
   26.6147    9.3126   56.5230 N   0  0  0  0  0  0  0  0  0  0  0  0
   27.0239    8.4995   55.3689 C   0  0  0  0  0  0  0  0  0  0  0  0
   25.9102    7.7903   54.6912 C   0  0  0  0  0  0  0  0  0  0  0  0
   24.6194    8.4003   54.7724 N   0  0  0  0  0  0  0  0  0  0  0  0
   24.4351    9.7144   55.3929 C   0  0  0  0  0  0  0  0  0  0  0  0
   25.2393    9.6186   56.6816 C   0  0  0  0  0  0  0  0  0  0  0  0
   24.6851    9.8017   57.7882 O   0  0  0  0  0  0  0  0  0  0  0  0
   29.4871   10.5241   59.3960 C   0  0  0  0  0  0  0  0  0  0  0  0
   29.0080    9.2468   59.3594 C   0  0  0  0  0  0  0  0  0  0  0  0
   28.0618    8.8799   58.3936 C   0  0  0  0  0  0  0  0  0  0  0  0
   27.5759    9.7657   57.4544 C   0  0  0  0  0  0  0  0  0  0  0  0
   28.0617   11.0334   57.5013 C   0  0  0  0  0  0  0  0  0  0  0  0
   29.0089   11.4154   58.4614 C   0  0  0  0  0  0  0  0  0  0  0  0
   31.0666    9.9037   61.1130 O   0  0  0  0  0  0  0  0  0  0  0  0
   30.4480   10.8889   60.3887 N   0  0  0  0  0  0  0  0  0  0  0  0
   30.7326   12.0612   60.6105 O   0  0  0  0  0  0  0  0  0  0  0  0
   23.5022    7.7130   54.2841 C   0  0  0  0  0  0  0  0  0  0  0  0
   22.6418    8.1544   53.3320 C   0  0  0  0  0  0  0  0  0  0  0  0
   21.5321    7.4364   52.8939 C   0  0  0  0  0  0  0  0  0  0  0  0
   21.2649    6.1890   53.4494 C   0  0  0  0  0  0  0  0  0  0  0  0
   22.1504    5.7305   54.4331 C   0  0  0  0  0  0  0  0  0  0  0  0
   23.2363    6.4639   54.8416 C   0  0  0  0  0  0  0  0  0  0  0  0
   20.1752    5.4044   53.0478 N   0  0  0  0  0  0  0  0  0  0  0  0
   18.8353    5.9213   52.9434 C   0  0  0  0  0  0  0  0  0  0  0  0
   18.0039    5.1070   53.9169 C   0  0  0  0  0  0  0  0  0  0  0  0
   18.0243    3.7944   53.4846 O   0  0  0  0  0  0  0  0  0  0  0  0
   19.2692    3.1932   53.5075 C   0  0  0  0  0  0  0  0  0  0  0  0
   20.3074    4.0074   52.7319 C   0  0  0  0  0  0  0  0  0  0  0  0
 14 15  1  0  0  0
 15 16  2  0  0  0
 15  8  1  0  0  0
  8  9  2  0  0  0
  9 10  1  0  0  0
 10 11  2  0  0  0
 11 12  1  0  0  0
 12 13  2  0  0  0
 11  1  1  0  0  0
  1  2  1  0  0  0
  2  3  1  0  0  0
  3  4  1  0  0  0
  4  5  1  0  0  0
  5  6  1  0  0  0
  6  7  2  0  0  0
  4 17  1  0  0  0
 17 18  2  0  0  0
 18 19  1  0  0  0
 19 20  2  0  0  0
 20 21  1  0  0  0
 21 22  2  0  0  0
 20 23  1  0  0  0
 23 24  1  0  0  0
 24 25  1  0  0  0
 25 26  1  0  0  0
 26 27  1  0  0  0
 27 28  1  0  0  0
 13  8  1  0  0  0
  6  1  1  0  0  0
 22 17  1  0  0  0
 28 23  1  0  0  0
M  CHG 1  14  -1
M  CHG 1  15   1
M  END
> <minimizedAffinity>
25.89214

> <CNNscore>
0.4068039954

> <CNNaffinity>
5.1934223175

> <CNN_VS>
2.1127049923

> <CNNaffinity_variance>
0.1070582867

$$$$
[H]c1c([H])c(N2C([H])([H])C(=O)N(c3c([H])c([H])c([N+](=O)[O-])c([H])c3[H])C([H])([H])C2([H])[H])c([H])c([H])c1N1C([H])([H])C([H])([H])OC([H])([H])C1([H])[H]


 28 31  0  0  0  0  0  0  0  0999 V2000
   22.8944    7.1027   54.7115 N   0  0  0  0  0  0  0  0  0  0  0  0
   22.3997    6.8383   53.3529 C   0  0  0  0  0  0  0  0  0  0  0  0
   21.9458    8.0454   52.6185 C   0  0  0  0  0  0  0  0  0  0  0  0
   22.5689    9.2827   52.9737 N   0  0  0  0  0  0  0  0  0  0  0  0
   23.6779    9.3307   53.9295 C   0  0  0  0  0  0  0  0  0  0  0  0
   23.2079    8.4384   55.0695 C   0  0  0  0  0  0  0  0  0  0  0  0
   23.1150    8.8928   56.2315 O   0  0  0  0  0  0  0  0  0  0  0  0
   23.2125    3.9978   57.5806 C   0  0  0  0  0  0  0  0  0  0  0  0
   22.2267    4.9388   57.6525 C   0  0  0  0  0  0  0  0  0  0  0  0
   22.1491    5.9489   56.6847 C   0  0  0  0  0  0  0  0  0  0  0  0
   23.0411    6.0449   55.6369 C   0  0  0  0  0  0  0  0  0  0  0  0
   24.0166    5.1016   55.5766 C   0  0  0  0  0  0  0  0  0  0  0  0
   24.1070    4.0846   56.5371 C   0  0  0  0  0  0  0  0  0  0  0  0
   23.5699    3.3226   59.8706 O   0  0  0  0  0  0  0  0  0  0  0  0
   23.2854    2.9752   58.5759 N   0  0  0  0  0  0  0  0  0  0  0  0
   23.1014    1.7940   58.3013 O   0  0  0  0  0  0  0  0  0  0  0  0
   22.0860   10.4774   52.4273 C   0  0  0  0  0  0  0  0  0  0  0  0
   21.7363   10.6836   51.1325 C   0  0  0  0  0  0  0  0  0  0  0  0
   21.2772   11.9007   50.6356 C   0  0  0  0  0  0  0  0  0  0  0  0
   21.1614   12.9878   51.4961 C   0  0  0  0  0  0  0  0  0  0  0  0
   21.5223   12.7789   52.8333 C   0  0  0  0  0  0  0  0  0  0  0  0
   21.9706   11.5649   53.2907 C   0  0  0  0  0  0  0  0  0  0  0  0
   20.6934   14.2383   51.0698 N   0  0  0  0  0  0  0  0  0  0  0  0
   19.5261   14.3958   50.2416 C   0  0  0  0  0  0  0  0  0  0  0  0
   20.0118   15.0670   48.9705 C   0  0  0  0  0  0  0  0  0  0  0  0
   20.4993   16.3127   49.3181 O   0  0  0  0  0  0  0  0  0  0  0  0
   21.6083   16.2942   50.1437 C   0  0  0  0  0  0  0  0  0  0  0  0
   21.3620   15.4663   51.4071 C   0  0  0  0  0  0  0  0  0  0  0  0
 14 15  1  0  0  0
 15 16  2  0  0  0
 15  8  1  0  0  0
  8  9  2  0  0  0
  9 10  1  0  0  0
 10 11  2  0  0  0
 11 12  1  0  0  0
 12 13  2  0  0  0
 11  1  1  0  0  0
  1  2  1  0  0  0
  2  3  1  0  0  0
  3  4  1  0  0  0
  4  5  1  0  0  0
  5  6  1  0  0  0
  6  7  2  0  0  0
  4 17  1  0  0  0
 17 18  2  0  0  0
 18 19  1  0  0  0
 19 20  2  0  0  0
 20 21  1  0  0  0
 21 22  2  0  0  0
 20 23  1  0  0  0
 23 24  1  0  0  0
 24 25  1  0  0  0
 25 26  1  0  0  0
 26 27  1  0  0  0
 27 28  1  0  0  0
 13  8  1  0  0  0
  6  1  1  0  0  0
 22 17  1  0  0  0
 28 23  1  0  0  0
M  CHG 1  14  -1
M  CHG 1  15   1
M  END
> <minimizedAffinity>
45.86124

> <CNNscore>
0.3643375039

> <CNNaffinity>
5.2163400650

> <CNN_VS>
1.9005082846

> <CNNaffinity_variance>
0.3641294837

$$$$
[H]c1c([H])c(N2C([H])([H])C(=O)N(c3c([H])c([H])c([N+](=O)[O-])c([H])c3[H])C([H])([H])C2([H])[H])c([H])c([H])c1N1C([H])([H])C([H])([H])OC([H])([H])C1([H])[H]


 28 31  0  0  0  0  0  0  0  0999 V2000
   24.2770    7.6214   53.7139 N   0  0  0  0  0  0  0  0  0  0  0  0
   24.1393    6.3488   52.9914 C   0  0  0  0  0  0  0  0  0  0  0  0
   22.7778    5.7600   53.0380 C   0  0  0  0  0  0  0  0  0  0  0  0
   21.6888    6.6761   53.1793 N   0  0  0  0  0  0  0  0  0  0  0  0
   21.9043    8.1248   53.1607 C   0  0  0  0  0  0  0  0  0  0  0  0
   23.1001    8.3215   54.0816 C   0  0  0  0  0  0  0  0  0  0  0  0
   23.0088    9.0586   55.0884 O   0  0  0  0  0  0  0  0  0  0  0  0
   28.1649    9.1000   54.5331 C   0  0  0  0  0  0  0  0  0  0  0  0
   27.7705    8.7919   53.2634 C   0  0  0  0  0  0  0  0  0  0  0  0
   26.4765    8.3089   53.0285 C   0  0  0  0  0  0  0  0  0  0  0  0
   25.5572    8.1228   54.0400 C   0  0  0  0  0  0  0  0  0  0  0  0
   25.9623    8.4342   55.2986 C   0  0  0  0  0  0  0  0  0  0  0  0
   27.2535    8.9187   55.5494 C   0  0  0  0  0  0  0  0  0  0  0  0
   29.7231   10.9358   54.7055 O   0  0  0  0  0  0  0  0  0  0  0  0
   29.4887    9.5868   54.7619 N   0  0  0  0  0  0  0  0  0  0  0  0
   30.4213    8.8283   55.0059 O   0  0  0  0  0  0  0  0  0  0  0  0
   20.3949    6.1806   53.3778 C   0  0  0  0  0  0  0  0  0  0  0  0
   19.2598    6.9179   53.4750 C   0  0  0  0  0  0  0  0  0  0  0  0
   17.9961    6.3746   53.6913 C   0  0  0  0  0  0  0  0  0  0  0  0
   17.8602    4.9959   53.8207 C   0  0  0  0  0  0  0  0  0  0  0  0
   19.0299    4.2318   53.7219 C   0  0  0  0  0  0  0  0  0  0  0  0
   20.2608    4.7997   53.5070 C   0  0  0  0  0  0  0  0  0  0  0  0
   16.6188    4.3783   54.0255 N   0  0  0  0  0  0  0  0  0  0  0  0
   16.4811    2.9723   54.3041 C   0  0  0  0  0  0  0  0  0  0  0  0
   15.6448    2.4089   53.1704 C   0  0  0  0  0  0  0  0  0  0  0  0
   14.4028    3.0124   53.2301 O   0  0  0  0  0  0  0  0  0  0  0  0
   14.4075    4.3774   53.0097 C   0  0  0  0  0  0  0  0  0  0  0  0
   15.3774    5.1005   53.9471 C   0  0  0  0  0  0  0  0  0  0  0  0
 14 15  1  0  0  0
 15 16  2  0  0  0
 15  8  1  0  0  0
  8  9  2  0  0  0
  9 10  1  0  0  0
 10 11  2  0  0  0
 11 12  1  0  0  0
 12 13  2  0  0  0
 11  1  1  0  0  0
  1  2  1  0  0  0
  2  3  1  0  0  0
  3  4  1  0  0  0
  4  5  1  0  0  0
  5  6  1  0  0  0
  6  7  2  0  0  0
  4 17  1  0  0  0
 17 18  2  0  0  0
 18 19  1  0  0  0
 19 20  2  0  0  0
 20 21  1  0  0  0
 21 22  2  0  0  0
 20 23  1  0  0  0
 23 24  1  0  0  0
 24 25  1  0  0  0
 25 26  1  0  0  0
 26 27  1  0  0  0
 27 28  1  0  0  0
 13  8  1  0  0  0
  6  1  1  0  0  0
 22 17  1  0  0  0
 28 23  1  0  0  0
M  CHG 1  14  -1
M  CHG 1  15   1
M  END
> <minimizedAffinity>
28.50082

> <CNNscore>
0.3612630069

> <CNNaffinity>
5.6458544731

> <CNN_VS>
2.0396382809

> <CNNaffinity_variance>
0.4350033402

$$$$
[H]c1c([H])c(N2C([H])([H])C(=O)N(c3c([H])c([H])c([N+](=O)[O-])c([H])c3[H])C([H])([H])C2([H])[H])c([H])c([H])c1N1C([H])([H])C([H])([H])OC([H])([H])C1([H])[H]


 28 31  0  0  0  0  0  0  0  0999 V2000
   26.1019    7.0468   54.8783 N   0  0  0  0  0  0  0  0  0  0  0  0
   25.4188    6.8917   53.5861 C   0  0  0  0  0  0  0  0  0  0  0  0
   24.3169    7.8583   53.3537 C   0  0  0  0  0  0  0  0  0  0  0  0
   24.4279    9.1250   54.0081 N   0  0  0  0  0  0  0  0  0  0  0  0
   25.6249    9.4861   54.7715 C   0  0  0  0  0  0  0  0  0  0  0  0
   25.9042    8.2460   55.6086 C   0  0  0  0  0  0  0  0  0  0  0  0
   25.9456    8.3214   56.8567 O   0  0  0  0  0  0  0  0  0  0  0  0
   28.4559    3.9117   56.4916 C   0  0  0  0  0  0  0  0  0  0  0  0
   27.1664    4.1145   56.8898 C   0  0  0  0  0  0  0  0  0  0  0  0
   26.4161    5.1582   56.3326 C   0  0  0  0  0  0  0  0  0  0  0  0
   26.9265    6.0142   55.3789 C   0  0  0  0  0  0  0  0  0  0  0  0
   28.2106    5.8007   54.9908 C   0  0  0  0  0  0  0  0  0  0  0  0
   28.9739    4.7605   55.5388 C   0  0  0  0  0  0  0  0  0  0  0  0
   29.0567    1.5754   56.5855 O   0  0  0  0  0  0  0  0  0  0  0  0
   29.2137    2.8475   57.0704 N   0  0  0  0  0  0  0  0  0  0  0  0
   30.0002    3.0427   57.9912 O   0  0  0  0  0  0  0  0  0  0  0  0
   23.3570   10.0243   53.9515 C   0  0  0  0  0  0  0  0  0  0  0  0
   22.6479   10.4948   55.0085 C   0  0  0  0  0  0  0  0  0  0  0  0
   21.5765   11.3770   54.8952 C   0  0  0  0  0  0  0  0  0  0  0  0
   21.1874   11.8178   53.6342 C   0  0  0  0  0  0  0  0  0  0  0  0
   21.9165   11.3335   52.5406 C   0  0  0  0  0  0  0  0  0  0  0  0
   22.9688   10.4647   52.6878 C   0  0  0  0  0  0  0  0  0  0  0  0
   20.1282   12.7161   53.4449 N   0  0  0  0  0  0  0  0  0  0  0  0
   19.9082   13.4162   52.2062 C   0  0  0  0  0  0  0  0  0  0  0  0
   20.0096   14.8918   52.5447 C   0  0  0  0  0  0  0  0  0  0  0  0
   18.9873   15.1873   53.4267 O   0  0  0  0  0  0  0  0  0  0  0  0
   19.0697   14.5466   54.6492 C   0  0  0  0  0  0  0  0  0  0  0  0
   19.1889   13.0293   54.4882 C   0  0  0  0  0  0  0  0  0  0  0  0
 14 15  1  0  0  0
 15 16  2  0  0  0
 15  8  1  0  0  0
  8  9  2  0  0  0
  9 10  1  0  0  0
 10 11  2  0  0  0
 11 12  1  0  0  0
 12 13  2  0  0  0
 11  1  1  0  0  0
  1  2  1  0  0  0
  2  3  1  0  0  0
  3  4  1  0  0  0
  4  5  1  0  0  0
  5  6  1  0  0  0
  6  7  2  0  0  0
  4 17  1  0  0  0
 17 18  2  0  0  0
 18 19  1  0  0  0
 19 20  2  0  0  0
 20 21  1  0  0  0
 21 22  2  0  0  0
 20 23  1  0  0  0
 23 24  1  0  0  0
 24 25  1  0  0  0
 25 26  1  0  0  0
 26 27  1  0  0  0
 27 28  1  0  0  0
 13  8  1  0  0  0
  6  1  1  0  0  0
 22 17  1  0  0  0
 28 23  1  0  0  0
M  CHG 1  14  -1
M  CHG 1  15   1
M  END
> <minimizedAffinity>
136.60674

> <CNNscore>
0.0655863881

> <CNNaffinity>
4.1705055237

> <CNN_VS>
0.2735283971

> <CNNaffinity_variance>
0.5688475966

$$$$
[H]c1c([H])c(N2C([H])([H])C(=O)N(c3c([H])c([H])c([N+](=O)[O-])c([H])c3[H])C([H])([H])C2([H])[H])c([H])c([H])c1N1C([H])([H])C([H])([H])OC([H])([H])C1([H])[H]


 28 31  0  0  0  0  0  0  0  0999 V2000
   24.5663    6.7944   53.1909 N   0  0  0  0  0  0  0  0  0  0  0  0
   23.9117    6.4668   51.9162 C   0  0  0  0  0  0  0  0  0  0  0  0
   22.5288    5.9457   52.0518 C   0  0  0  0  0  0  0  0  0  0  0  0
   21.7900    6.3810   53.1963 N   0  0  0  0  0  0  0  0  0  0  0  0
   22.3338    7.3798   54.1196 C   0  0  0  0  0  0  0  0  0  0  0  0
   23.7631    6.9118   54.3534 C   0  0  0  0  0  0  0  0  0  0  0  0
   24.1633    6.6549   55.5107 O   0  0  0  0  0  0  0  0  0  0  0  0
   28.7711    7.2381   53.4995 C   0  0  0  0  0  0  0  0  0  0  0  0
   28.0856    6.3600   54.2878 C   0  0  0  0  0  0  0  0  0  0  0  0
   26.6963    6.2363   54.1563 C   0  0  0  0  0  0  0  0  0  0  0  0
   25.9664    6.9759   53.2490 C   0  0  0  0  0  0  0  0  0  0  0  0
   26.6610    7.8454   52.4701 C   0  0  0  0  0  0  0  0  0  0  0  0
   28.0512    7.9801   52.5897 C   0  0  0  0  0  0  0  0  0  0  0  0
   31.0073    6.7765   52.7156 O   0  0  0  0  0  0  0  0  0  0  0  0
   30.1873    7.3600   53.6457 N   0  0  0  0  0  0  0  0  0  0  0  0
   30.6884    7.9721   54.5832 O   0  0  0  0  0  0  0  0  0  0  0  0
   20.5382    5.8146   53.4628 C   0  0  0  0  0  0  0  0  0  0  0  0
   20.3071    4.6635   54.1431 C   0  0  0  0  0  0  0  0  0  0  0  0
   19.0389    4.1330   54.3655 C   0  0  0  0  0  0  0  0  0  0  0  0
   17.9241    4.8023   53.8703 C   0  0  0  0  0  0  0  0  0  0  0  0
   18.1589    5.9905   53.1667 C   0  0  0  0  0  0  0  0  0  0  0  0
   19.4229    6.4863   52.9662 C   0  0  0  0  0  0  0  0  0  0  0  0
   16.6173    4.3355   54.0677 N   0  0  0  0  0  0  0  0  0  0  0  0
   15.9561    4.3784   55.3460 C   0  0  0  0  0  0  0  0  0  0  0  0
   15.6409    2.9356   55.6941 C   0  0  0  0  0  0  0  0  0  0  0  0
   14.7627    2.4597   54.7389 O   0  0  0  0  0  0  0  0  0  0  0  0
   15.2740    2.4010   53.4556 C   0  0  0  0  0  0  0  0  0  0  0  0
   15.8406    3.7503   53.0079 C   0  0  0  0  0  0  0  0  0  0  0  0
 14 15  1  0  0  0
 15 16  2  0  0  0
 15  8  1  0  0  0
  8  9  2  0  0  0
  9 10  1  0  0  0
 10 11  2  0  0  0
 11 12  1  0  0  0
 12 13  2  0  0  0
 11  1  1  0  0  0
  1  2  1  0  0  0
  2  3  1  0  0  0
  3  4  1  0  0  0
  4  5  1  0  0  0
  5  6  1  0  0  0
  6  7  2  0  0  0
  4 17  1  0  0  0
 17 18  2  0  0  0
 18 19  1  0  0  0
 19 20  2  0  0  0
 20 21  1  0  0  0
 21 22  2  0  0  0
 20 23  1  0  0  0
 23 24  1  0  0  0
 24 25  1  0  0  0
 25 26  1  0  0  0
 26 27  1  0  0  0
 27 28  1  0  0  0
 13  8  1  0  0  0
  6  1  1  0  0  0
 22 17  1  0  0  0
 28 23  1  0  0  0
M  CHG 1  14  -1
M  CHG 1  15   1
M  END
> <minimizedAffinity>
73.62986

> <CNNscore>
0.0627225488

> <CNNaffinity>
4.5563421249

> <CNN_VS>
0.2857853770

> <CNNaffinity_variance>
0.9831016660

$$$$
[H]c1c([H])c(S(=O)(=O)C(C([H])([H])[H])(C([H])([H])[H])C([H])([H])[H])c([H])c([H])c1C([H])([H])Oc1c([H])c([H])c2c(=O)n(C([H])([H])C([H])(F)F)c(=O)n(C([H])([H])[H])c2c1[H]


 32 34  0  0  0  0  0  0  0  0999 V2000
   23.3668    7.0182   54.1568 C   0  0  0  0  0  0  0  0  0  0  0  0
   24.7169    6.9579   53.8787 C   0  0  0  0  0  0  0  0  0  0  0  0
   25.6437    7.7433   54.5362 C   0  0  0  0  0  0  0  0  0  0  0  0
   26.9608    7.7049   54.2861 N   0  0  0  0  0  0  0  0  0  0  0  0
   27.4340    6.7912   53.2725 C   0  0  0  0  0  0  0  0  0  0  0  0
   27.8576    8.4841   54.9421 C   0  0  0  0  0  0  0  0  0  0  0  0
   29.0881    8.4135   54.6726 O   0  0  0  0  0  0  0  0  0  0  0  0
   27.4577    9.3481   55.8928 N   0  0  0  0  0  0  0  0  0  0  0  0
   26.1404    9.4067   56.1639 C   0  0  0  0  0  0  0  0  0  0  0  0
   25.6782   10.1935   57.0452 O   0  0  0  0  0  0  0  0  0  0  0  0
   25.2151    8.6237   55.5085 C   0  0  0  0  0  0  0  0  0  0  0  0
   23.8654    8.6796   55.7819 C   0  0  0  0  0  0  0  0  0  0  0  0
   22.9434    7.8911   55.1204 C   0  0  0  0  0  0  0  0  0  0  0  0
   22.5135    6.1899   53.4435 O   0  0  0  0  0  0  0  0  0  0  0  0
   21.3386    6.6473   52.8212 C   0  0  0  0  0  0  0  0  0  0  0  0
   21.3990   10.8583   52.7604 C   0  0  0  0  0  0  0  0  0  0  0  0
   21.1918   10.2139   53.9638 C   0  0  0  0  0  0  0  0  0  0  0  0
   21.1745    8.8369   53.9682 C   0  0  0  0  0  0  0  0  0  0  0  0
   21.3600    8.1324   52.7992 C   0  0  0  0  0  0  0  0  0  0  0  0
   21.5655    8.7965   51.6079 C   0  0  0  0  0  0  0  0  0  0  0  0
   21.5880   10.1751   51.5712 C   0  0  0  0  0  0  0  0  0  0  0  0
   21.4285   12.6082   52.7091 S   0  0  0  0  0  0  0  0  0  0  0  0
   22.7180   13.0909   53.3084 O   0  0  0  0  0  0  0  0  0  0  0  0
   20.2906   13.1878   53.4926 O   0  0  0  0  0  0  0  0  0  0  0  0
   22.7740   13.3337   50.5196 C   0  0  0  0  0  0  0  0  0  0  0  0
   21.3575   13.1991   51.0341 C   0  0  0  0  0  0  0  0  0  0  0  0
   20.5749   14.4765   50.9292 C   0  0  0  0  0  0  0  0  0  0  0  0
   20.6694   12.1646   50.1705 C   0  0  0  0  0  0  0  0  0  0  0  0
   28.3982   10.1713   56.5872 C   0  0  0  0  0  0  0  0  0  0  0  0
   28.2524   10.0841   58.0928 C   0  0  0  0  0  0  0  0  0  0  0  0
   28.5761    8.8090   58.5061 F   0  0  0  0  0  0  0  0  0  0  0  0
   29.0605   10.9829   58.7344 F   0  0  0  0  0  0  0  0  0  0  0  0
 25 26  1  0  0  0
 26 27  1  0  0  0
 26 28  1  0  0  0
 26 22  1  0  0  0
 22 23  2  0  0  0
 22 24  2  0  0  0
 22 16  1  0  0  0
 16 17  2  0  0  0
 17 18  1  0  0  0
 18 19  2  0  0  0
 19 15  1  0  0  0
 15 14  1  0  0  0
 14  1  1  0  0  0
  1  2  2  0  0  0
  2  3  1  0  0  0
  3  4  1  0  0  0
  4  5  1  0  0  0
  4  6  1  0  0  0
  6  7  2  0  0  0
  6  8  1  0  0  0
  8 29  1  0  0  0
 29 30  1  0  0  0
 30 31  1  0  0  0
 30 32  1  0  0  0
  8  9  1  0  0  0
  9 10  2  0  0  0
  9 11  1  0  0  0
 11 12  1  0  0  0
 12 13  2  0  0  0
 19 20  1  0  0  0
 20 21  2  0  0  0
 21 16  1  0  0  0
 13  1  1  0  0  0
 11  3  2  0  0  0
M  END
> <minimizedAffinity>
27.19830

> <CNNscore>
0.5695225000

> <CNNaffinity>
6.1491794586

> <CNN_VS>
3.5020961761

> <CNNaffinity_variance>
0.3020477891

$$$$
[H]c1c([H])c(S(=O)(=O)C(C([H])([H])[H])(C([H])([H])[H])C([H])([H])[H])c([H])c([H])c1C([H])([H])Oc1c([H])c([H])c2c(=O)n(C([H])([H])C([H])(F)F)c(=O)n(C([H])([H])[H])c2c1[H]


 32 34  0  0  0  0  0  0  0  0999 V2000
   26.4892    9.2791   55.8783 C   0  0  0  0  0  0  0  0  0  0  0  0
   26.0754    8.2780   55.0237 C   0  0  0  0  0  0  0  0  0  0  0  0
   24.7685    8.1688   54.5897 C   0  0  0  0  0  0  0  0  0  0  0  0
   24.3394    7.2067   53.7597 N   0  0  0  0  0  0  0  0  0  0  0  0
   25.2985    6.2317   53.2954 C   0  0  0  0  0  0  0  0  0  0  0  0
   23.0510    7.1145   53.3433 C   0  0  0  0  0  0  0  0  0  0  0  0
   22.6932    6.1912   52.5615 O   0  0  0  0  0  0  0  0  0  0  0  0
   22.1269    8.0025   53.7527 N   0  0  0  0  0  0  0  0  0  0  0  0
   22.5310    8.9792   54.5864 C   0  0  0  0  0  0  0  0  0  0  0  0
   21.7250    9.8574   55.0205 O   0  0  0  0  0  0  0  0  0  0  0  0
   23.8344    9.0889   55.0200 C   0  0  0  0  0  0  0  0  0  0  0  0
   24.2536   10.0865   55.8735 C   0  0  0  0  0  0  0  0  0  0  0  0
   25.5625   10.1901   56.3040 C   0  0  0  0  0  0  0  0  0  0  0  0
   27.8225    9.3062   56.2585 O   0  0  0  0  0  0  0  0  0  0  0  0
   28.2999    8.7024   57.4350 C   0  0  0  0  0  0  0  0  0  0  0  0
   28.8570   11.6908   60.3503 C   0  0  0  0  0  0  0  0  0  0  0  0
   28.4742   12.0665   59.0781 C   0  0  0  0  0  0  0  0  0  0  0  0
   28.2959   11.0785   58.1354 C   0  0  0  0  0  0  0  0  0  0  0  0
   28.4966    9.7559   58.4635 C   0  0  0  0  0  0  0  0  0  0  0  0
   28.8789    9.4028   59.7408 C   0  0  0  0  0  0  0  0  0  0  0  0
   29.0654   10.3694   60.7068 C   0  0  0  0  0  0  0  0  0  0  0  0
   29.0949   12.9144   61.5798 S   0  0  0  0  0  0  0  0  0  0  0  0
   30.2679   12.5253   62.4330 O   0  0  0  0  0  0  0  0  0  0  0  0
   27.8861   13.0373   62.4563 O   0  0  0  0  0  0  0  0  0  0  0  0
   30.9618   14.6784   60.8492 C   0  0  0  0  0  0  0  0  0  0  0  0
   29.4602   14.4926   60.8479 C   0  0  0  0  0  0  0  0  0  0  0  0
   28.7338   15.6080   61.5431 C   0  0  0  0  0  0  0  0  0  0  0  0
   29.0166   14.4845   59.4013 C   0  0  0  0  0  0  0  0  0  0  0  0
   20.7682    7.9103   53.3170 C   0  0  0  0  0  0  0  0  0  0  0  0
   20.5208    8.6419   52.0135 C   0  0  0  0  0  0  0  0  0  0  0  0
   21.3453    9.7453   51.9498 F   0  0  0  0  0  0  0  0  0  0  0  0
   20.7571    7.8416   50.9289 F   0  0  0  0  0  0  0  0  0  0  0  0
 25 26  1  0  0  0
 26 27  1  0  0  0
 26 28  1  0  0  0
 26 22  1  0  0  0
 22 23  2  0  0  0
 22 24  2  0  0  0
 22 16  1  0  0  0
 16 17  2  0  0  0
 17 18  1  0  0  0
 18 19  2  0  0  0
 19 15  1  0  0  0
 15 14  1  0  0  0
 14  1  1  0  0  0
  1  2  2  0  0  0
  2  3  1  0  0  0
  3  4  1  0  0  0
  4  5  1  0  0  0
  4  6  1  0  0  0
  6  7  2  0  0  0
  6  8  1  0  0  0
  8 29  1  0  0  0
 29 30  1  0  0  0
 30 31  1  0  0  0
 30 32  1  0  0  0
  8  9  1  0  0  0
  9 10  2  0  0  0
  9 11  1  0  0  0
 11 12  1  0  0  0
 12 13  2  0  0  0
 19 20  1  0  0  0
 20 21  2  0  0  0
 21 16  1  0  0  0
 13  1  1  0  0  0
 11  3  2  0  0  0
M  END
> <minimizedAffinity>
5.78974

> <CNNscore>
0.5636194944

> <CNNaffinity>
6.0880708694

> <CNN_VS>
3.4313554764

> <CNNaffinity_variance>
0.2358838022

$$$$
[H]c1c([H])c(S(=O)(=O)C(C([H])([H])[H])(C([H])([H])[H])C([H])([H])[H])c([H])c([H])c1C([H])([H])Oc1c([H])c([H])c2c(=O)n(C([H])([H])C([H])(F)F)c(=O)n(C([H])([H])[H])c2c1[H]


 32 34  0  0  0  0  0  0  0  0999 V2000
   22.6941    5.9928   53.7140 C   0  0  0  0  0  0  0  0  0  0  0  0
   22.7651    7.1100   54.5206 C   0  0  0  0  0  0  0  0  0  0  0  0
   23.9572    7.7543   54.7889 C   0  0  0  0  0  0  0  0  0  0  0  0
   24.0550    8.8411   55.5687 N   0  0  0  0  0  0  0  0  0  0  0  0
   22.8456    9.3650   56.1597 C   0  0  0  0  0  0  0  0  0  0  0  0
   25.2350    9.4618   55.8217 C   0  0  0  0  0  0  0  0  0  0  0  0
   25.2782   10.4822   56.5623 O   0  0  0  0  0  0  0  0  0  0  0  0
   26.3840    9.0055   55.2907 N   0  0  0  0  0  0  0  0  0  0  0  0
   26.3143    7.9155   54.5036 C   0  0  0  0  0  0  0  0  0  0  0  0
   27.3492    7.4195   53.9631 O   0  0  0  0  0  0  0  0  0  0  0  0
   25.1256    7.2720   54.2354 C   0  0  0  0  0  0  0  0  0  0  0  0
   25.0484    6.1559   53.4306 C   0  0  0  0  0  0  0  0  0  0  0  0
   23.8526    5.5159   53.1662 C   0  0  0  0  0  0  0  0  0  0  0  0
   21.4511    5.4152   53.5032 O   0  0  0  0  0  0  0  0  0  0  0  0
   20.3580    6.1161   52.9642 C   0  0  0  0  0  0  0  0  0  0  0  0
   21.2366   10.2348   53.0235 C   0  0  0  0  0  0  0  0  0  0  0  0
   21.4332    9.5301   51.8526 C   0  0  0  0  0  0  0  0  0  0  0  0
   21.1417    8.1842   51.8483 C   0  0  0  0  0  0  0  0  0  0  0  0
   20.6677    7.5686   52.9857 C   0  0  0  0  0  0  0  0  0  0  0  0
   20.4785    8.2919   54.1448 C   0  0  0  0  0  0  0  0  0  0  0  0
   20.7615    9.6413   54.1805 C   0  0  0  0  0  0  0  0  0  0  0  0
   21.5943   11.9480   53.0735 S   0  0  0  0  0  0  0  0  0  0  0  0
   23.0013   12.1372   53.5632 O   0  0  0  0  0  0  0  0  0  0  0  0
   20.6639   12.6641   54.0042 O   0  0  0  0  0  0  0  0  0  0  0  0
   20.7165   13.9691   51.5652 C   0  0  0  0  0  0  0  0  0  0  0  0
   21.4853   12.6707   51.4532 C   0  0  0  0  0  0  0  0  0  0  0  0
   20.8817   11.7191   50.4607 C   0  0  0  0  0  0  0  0  0  0  0  0
   22.8760   13.0202   50.9700 C   0  0  0  0  0  0  0  0  0  0  0  0
   27.6300    9.6555   55.5537 C   0  0  0  0  0  0  0  0  0  0  0  0
   28.1236    9.4244   56.9674 C   0  0  0  0  0  0  0  0  0  0  0  0
   28.3485   10.6424   57.5734 F   0  0  0  0  0  0  0  0  0  0  0  0
   27.2214    8.7129   57.7105 F   0  0  0  0  0  0  0  0  0  0  0  0
 25 26  1  0  0  0
 26 27  1  0  0  0
 26 28  1  0  0  0
 26 22  1  0  0  0
 22 23  2  0  0  0
 22 24  2  0  0  0
 22 16  1  0  0  0
 16 17  2  0  0  0
 17 18  1  0  0  0
 18 19  2  0  0  0
 19 15  1  0  0  0
 15 14  1  0  0  0
 14  1  1  0  0  0
  1  2  2  0  0  0
  2  3  1  0  0  0
  3  4  1  0  0  0
  4  5  1  0  0  0
  4  6  1  0  0  0
  6  7  2  0  0  0
  6  8  1  0  0  0
  8 29  1  0  0  0
 29 30  1  0  0  0
 30 31  1  0  0  0
 30 32  1  0  0  0
  8  9  1  0  0  0
  9 10  2  0  0  0
  9 11  1  0  0  0
 11 12  1  0  0  0
 12 13  2  0  0  0
 19 20  1  0  0  0
 20 21  2  0  0  0
 21 16  1  0  0  0
 13  1  1  0  0  0
 11  3  2  0  0  0
M  END
> <minimizedAffinity>
22.01551

> <CNNscore>
0.5473414660

> <CNNaffinity>
6.1773767471

> <CNN_VS>
3.3811345100

> <CNNaffinity_variance>
0.3703991771

$$$$
[H]c1c([H])c(S(=O)(=O)C(C([H])([H])[H])(C([H])([H])[H])C([H])([H])[H])c([H])c([H])c1C([H])([H])Oc1c([H])c([H])c2c(=O)n(C([H])([H])C([H])(F)F)c(=O)n(C([H])([H])[H])c2c1[H]


 32 34  0  0  0  0  0  0  0  0999 V2000
   26.7660    9.0597   55.6843 C   0  0  0  0  0  0  0  0  0  0  0  0
   25.4326    9.3882   55.8181 C   0  0  0  0  0  0  0  0  0  0  0  0
   24.4450    8.7989   55.0529 C   0  0  0  0  0  0  0  0  0  0  0  0
   23.1424    9.0990   55.1621 N   0  0  0  0  0  0  0  0  0  0  0  0
   22.7530   10.0939   56.1341 C   0  0  0  0  0  0  0  0  0  0  0  0
   22.1850    8.5098   54.4018 C   0  0  0  0  0  0  0  0  0  0  0  0
   20.9711    8.8246   54.5399 O   0  0  0  0  0  0  0  0  0  0  0  0
   22.5059    7.5787   53.4852 N   0  0  0  0  0  0  0  0  0  0  0  0
   23.8070    7.2583   53.3550 C   0  0  0  0  0  0  0  0  0  0  0  0
   24.1965    6.3910   52.5152 O   0  0  0  0  0  0  0  0  0  0  0  0
   24.7930    7.8457   54.1178 C   0  0  0  0  0  0  0  0  0  0  0  0
   26.1263    7.5217   53.9887 C   0  0  0  0  0  0  0  0  0  0  0  0
   27.1095    8.1150   54.7572 C   0  0  0  0  0  0  0  0  0  0  0  0
   27.6846    9.7058   56.4978 O   0  0  0  0  0  0  0  0  0  0  0  0
   28.2275    9.1258   57.6577 C   0  0  0  0  0  0  0  0  0  0  0  0
   29.0810   12.1880   60.4206 C   0  0  0  0  0  0  0  0  0  0  0  0
   28.4909   12.5232   59.2182 C   0  0  0  0  0  0  0  0  0  0  0  0
   28.2179   11.5114   58.3248 C   0  0  0  0  0  0  0  0  0  0  0  0
   28.5288   10.2053   58.6324 C   0  0  0  0  0  0  0  0  0  0  0  0
   29.1180    9.8928   59.8397 C   0  0  0  0  0  0  0  0  0  0  0  0
   29.4038   10.8840   60.7552 C   0  0  0  0  0  0  0  0  0  0  0  0
   29.4456   13.4429   61.5858 S   0  0  0  0  0  0  0  0  0  0  0  0
   30.5797   12.9839   62.4565 O   0  0  0  0  0  0  0  0  0  0  0  0
   28.2601   13.7287   62.4562 O   0  0  0  0  0  0  0  0  0  0  0  0
   29.1486   15.0911   59.5060 C   0  0  0  0  0  0  0  0  0  0  0  0
   29.9598   14.9383   60.7739 C   0  0  0  0  0  0  0  0  0  0  0  0
   31.4406   14.9532   60.5245 C   0  0  0  0  0  0  0  0  0  0  0  0
   29.6290   16.1222   61.6563 C   0  0  0  0  0  0  0  0  0  0  0  0
   21.5014    6.9545   52.6816 C   0  0  0  0  0  0  0  0  0  0  0  0
   21.0354    7.8345   51.5397 C   0  0  0  0  0  0  0  0  0  0  0  0
   19.6636    7.9629   51.5974 F   0  0  0  0  0  0  0  0  0  0  0  0
   21.6052    9.0776   51.5909 F   0  0  0  0  0  0  0  0  0  0  0  0
 25 26  1  0  0  0
 26 27  1  0  0  0
 26 28  1  0  0  0
 26 22  1  0  0  0
 22 23  2  0  0  0
 22 24  2  0  0  0
 22 16  1  0  0  0
 16 17  2  0  0  0
 17 18  1  0  0  0
 18 19  2  0  0  0
 19 15  1  0  0  0
 15 14  1  0  0  0
 14  1  1  0  0  0
  1  2  2  0  0  0
  2  3  1  0  0  0
  3  4  1  0  0  0
  4  5  1  0  0  0
  4  6  1  0  0  0
  6  7  2  0  0  0
  6  8  1  0  0  0
  8 29  1  0  0  0
 29 30  1  0  0  0
 30 31  1  0  0  0
 30 32  1  0  0  0
  8  9  1  0  0  0
  9 10  2  0  0  0
  9 11  1  0  0  0
 11 12  1  0  0  0
 12 13  2  0  0  0
 19 20  1  0  0  0
 20 21  2  0  0  0
 21 16  1  0  0  0
 13  1  1  0  0  0
 11  3  2  0  0  0
M  END
> <minimizedAffinity>
0.49445

> <CNNscore>
0.5071061254

> <CNNaffinity>
6.0398206711

> <CNN_VS>
3.0628299713

> <CNNaffinity_variance>
0.0615554564

$$$$
[H]c1c([H])c(S(=O)(=O)C(C([H])([H])[H])(C([H])([H])[H])C([H])([H])[H])c([H])c([H])c1C([H])([H])Oc1c([H])c([H])c2c(=O)n(C([H])([H])C([H])(F)F)c(=O)n(C([H])([H])[H])c2c1[H]


 32 34  0  0  0  0  0  0  0  0999 V2000
   23.3945    8.1575   53.8780 C   0  0  0  0  0  0  0  0  0  0  0  0
   24.7351    7.9660   53.6136 C   0  0  0  0  0  0  0  0  0  0  0  0
   25.7279    8.4064   54.4671 C   0  0  0  0  0  0  0  0  0  0  0  0
   27.0375    8.2337   54.2351 N   0  0  0  0  0  0  0  0  0  0  0  0
   27.4292    7.5492   53.0250 C   0  0  0  0  0  0  0  0  0  0  0  0
   27.9999    8.6732   55.0851 C   0  0  0  0  0  0  0  0  0  0  0  0
   29.2203    8.4878   54.8246 O   0  0  0  0  0  0  0  0  0  0  0  0
   27.6771    9.3152   56.2225 N   0  0  0  0  0  0  0  0  0  0  0  0
   26.3690    9.5019   56.4801 C   0  0  0  0  0  0  0  0  0  0  0  0
   25.9773   10.0974   57.5295 O   0  0  0  0  0  0  0  0  0  0  0  0
   25.3778    9.0630   55.6293 C   0  0  0  0  0  0  0  0  0  0  0  0
   24.0373    9.2514   55.8879 C   0  0  0  0  0  0  0  0  0  0  0  0
   23.0490    8.8083   55.0298 C   0  0  0  0  0  0  0  0  0  0  0  0
   22.4711    7.6792   52.9605 O   0  0  0  0  0  0  0  0  0  0  0  0
   21.1509    8.1553   52.8775 C   0  0  0  0  0  0  0  0  0  0  0  0
   21.2429   12.1612   51.5795 C   0  0  0  0  0  0  0  0  0  0  0  0
   21.5313   11.8838   52.9010 C   0  0  0  0  0  0  0  0  0  0  0  0
   21.4973   10.5696   53.3109 C   0  0  0  0  0  0  0  0  0  0  0  0
   21.1831    9.5679   52.4192 C   0  0  0  0  0  0  0  0  0  0  0  0
   20.8983    9.8673   51.1033 C   0  0  0  0  0  0  0  0  0  0  0  0
   20.9242   11.1740   50.6626 C   0  0  0  0  0  0  0  0  0  0  0  0
   21.2746   13.8184   51.0156 S   0  0  0  0  0  0  0  0  0  0  0  0
   20.6390   13.8822   49.6565 O   0  0  0  0  0  0  0  0  0  0  0  0
   22.6814   14.3229   50.9095 O   0  0  0  0  0  0  0  0  0  0  0  0
   20.0118   14.1009   53.3514 C   0  0  0  0  0  0  0  0  0  0  0  0
   20.3438   14.8788   52.0968 C   0  0  0  0  0  0  0  0  0  0  0  0
   19.1264   15.4346   51.4156 C   0  0  0  0  0  0  0  0  0  0  0  0
   21.2108   16.0458   52.5161 C   0  0  0  0  0  0  0  0  0  0  0  0
   28.6868    9.7802   57.1217 C   0  0  0  0  0  0  0  0  0  0  0  0
   28.3592    9.4870   58.5716 C   0  0  0  0  0  0  0  0  0  0  0  0
   28.7005    8.1821   58.8582 F   0  0  0  0  0  0  0  0  0  0  0  0
   29.0285   10.3235   59.4229 F   0  0  0  0  0  0  0  0  0  0  0  0
 25 26  1  0  0  0
 26 27  1  0  0  0
 26 28  1  0  0  0
 26 22  1  0  0  0
 22 23  2  0  0  0
 22 24  2  0  0  0
 22 16  1  0  0  0
 16 17  2  0  0  0
 17 18  1  0  0  0
 18 19  2  0  0  0
 19 15  1  0  0  0
 15 14  1  0  0  0
 14  1  1  0  0  0
  1  2  2  0  0  0
  2  3  1  0  0  0
  3  4  1  0  0  0
  4  5  1  0  0  0
  4  6  1  0  0  0
  6  7  2  0  0  0
  6  8  1  0  0  0
  8 29  1  0  0  0
 29 30  1  0  0  0
 30 31  1  0  0  0
 30 32  1  0  0  0
  8  9  1  0  0  0
  9 10  2  0  0  0
  9 11  1  0  0  0
 11 12  1  0  0  0
 12 13  2  0  0  0
 19 20  1  0  0  0
 20 21  2  0  0  0
 21 16  1  0  0  0
 13  1  1  0  0  0
 11  3  2  0  0  0
M  END
> <minimizedAffinity>
27.18056

> <CNNscore>
0.4811450243

> <CNNaffinity>
5.7616600990

> <CNN_VS>
2.7721941471

> <CNNaffinity_variance>
0.3969677687

$$$$
[H]c1c([H])c(S(=O)(=O)C(C([H])([H])[H])(C([H])([H])[H])C([H])([H])[H])c([H])c([H])c1C([H])([H])Oc1c([H])c([H])c2c(=O)n(C([H])([H])C([H])(F)F)c(=O)n(C([H])([H])[H])c2c1[H]


 32 34  0  0  0  0  0  0  0  0999 V2000
   28.1698    9.3772   56.9740 C   0  0  0  0  0  0  0  0  0  0  0  0
   28.7506    9.1040   58.1954 C   0  0  0  0  0  0  0  0  0  0  0  0
   28.9421   10.0763   59.1578 C   0  0  0  0  0  0  0  0  0  0  0  0
   29.5035    9.8386   60.3524 N   0  0  0  0  0  0  0  0  0  0  0  0
   29.9309    8.4907   60.6467 C   0  0  0  0  0  0  0  0  0  0  0  0
   29.6838   10.8064   61.2865 C   0  0  0  0  0  0  0  0  0  0  0  0
   30.2171   10.5355   62.3973 O   0  0  0  0  0  0  0  0  0  0  0  0
   29.2997   12.0743   61.0517 N   0  0  0  0  0  0  0  0  0  0  0  0
   28.7329   12.3405   59.8599 C   0  0  0  0  0  0  0  0  0  0  0  0
   28.3421   13.5086   59.5566 O   0  0  0  0  0  0  0  0  0  0  0  0
   28.5416   11.3713   58.8992 C   0  0  0  0  0  0  0  0  0  0  0  0
   27.9621   11.6381   57.6776 C   0  0  0  0  0  0  0  0  0  0  0  0
   27.7735   10.6609   56.7191 C   0  0  0  0  0  0  0  0  0  0  0  0
   28.0198    8.3345   56.0722 O   0  0  0  0  0  0  0  0  0  0  0  0
   27.8945    8.5283   54.6853 C   0  0  0  0  0  0  0  0  0  0  0  0
   23.9437    7.6141   53.5473 C   0  0  0  0  0  0  0  0  0  0  0  0
   24.7576    8.2761   52.6498 C   0  0  0  0  0  0  0  0  0  0  0  0
   26.0468    8.5683   53.0358 C   0  0  0  0  0  0  0  0  0  0  0  0
   26.5011    8.2057   54.2845 C   0  0  0  0  0  0  0  0  0  0  0  0
   25.6709    7.5448   55.1657 C   0  0  0  0  0  0  0  0  0  0  0  0
   24.3746    7.2381   54.8082 C   0  0  0  0  0  0  0  0  0  0  0  0
   22.2974    7.2227   53.0979 S   0  0  0  0  0  0  0  0  0  0  0  0
   21.9738    5.8415   53.5904 O   0  0  0  0  0  0  0  0  0  0  0  0
   22.1253    7.2522   51.6099 O   0  0  0  0  0  0  0  0  0  0  0  0
   19.7487    7.8040   53.6425 C   0  0  0  0  0  0  0  0  0  0  0  0
   21.1452    8.3477   53.8508 C   0  0  0  0  0  0  0  0  0  0  0  0
   21.3114    9.7452   53.3269 C   0  0  0  0  0  0  0  0  0  0  0  0
   21.3883    8.3829   55.3439 C   0  0  0  0  0  0  0  0  0  0  0  0
   29.4871   13.0978   62.0323 C   0  0  0  0  0  0  0  0  0  0  0  0
   28.1872   13.7574   62.4454 C   0  0  0  0  0  0  0  0  0  0  0  0
   27.9515   14.8441   61.6300 F   0  0  0  0  0  0  0  0  0  0  0  0
   27.1294   12.8936   62.3593 F   0  0  0  0  0  0  0  0  0  0  0  0
 25 26  1  0  0  0
 26 27  1  0  0  0
 26 28  1  0  0  0
 26 22  1  0  0  0
 22 23  2  0  0  0
 22 24  2  0  0  0
 22 16  1  0  0  0
 16 17  2  0  0  0
 17 18  1  0  0  0
 18 19  2  0  0  0
 19 15  1  0  0  0
 15 14  1  0  0  0
 14  1  1  0  0  0
  1  2  2  0  0  0
  2  3  1  0  0  0
  3  4  1  0  0  0
  4  5  1  0  0  0
  4  6  1  0  0  0
  6  7  2  0  0  0
  6  8  1  0  0  0
  8 29  1  0  0  0
 29 30  1  0  0  0
 30 31  1  0  0  0
 30 32  1  0  0  0
  8  9  1  0  0  0
  9 10  2  0  0  0
  9 11  1  0  0  0
 11 12  1  0  0  0
 12 13  2  0  0  0
 19 20  1  0  0  0
 20 21  2  0  0  0
 21 16  1  0  0  0
 13  1  1  0  0  0
 11  3  2  0  0  0
M  END
> <minimizedAffinity>
4.59868

> <CNNscore>
0.4482486546

> <CNNaffinity>
6.0027070045

> <CNN_VS>
2.6907052994

> <CNNaffinity_variance>
0.0814714655

$$$$
[H]c1c([H])c(S(=O)(=O)C(C([H])([H])[H])(C([H])([H])[H])C([H])([H])[H])c([H])c([H])c1C([H])([H])Oc1c([H])c([H])c2c(=O)n(C([H])([H])C([H])(F)F)c(=O)n(C([H])([H])[H])c2c1[H]


 32 34  0  0  0  0  0  0  0  0999 V2000
   28.3295    9.3635   58.2122 C   0  0  0  0  0  0  0  0  0  0  0  0
   28.1861   10.7328   58.3024 C   0  0  0  0  0  0  0  0  0  0  0  0
   28.7602   11.4715   59.3187 C   0  0  0  0  0  0  0  0  0  0  0  0
   28.6372   12.8024   59.4304 N   0  0  0  0  0  0  0  0  0  0  0  0
   27.8609   13.4997   58.4318 C   0  0  0  0  0  0  0  0  0  0  0  0
   29.2084   13.5125   60.4360 C   0  0  0  0  0  0  0  0  0  0  0  0
   29.0650   14.7643   60.5002 O   0  0  0  0  0  0  0  0  0  0  0  0
   29.9390   12.9010   61.3859 N   0  0  0  0  0  0  0  0  0  0  0  0
   30.0787   11.5650   61.2976 C   0  0  0  0  0  0  0  0  0  0  0  0
   30.7508   10.9097   62.1509 O   0  0  0  0  0  0  0  0  0  0  0  0
   29.5063   10.8271   60.2842 C   0  0  0  0  0  0  0  0  0  0  0  0
   29.6460    9.4594   60.1888 C   0  0  0  0  0  0  0  0  0  0  0  0
   29.0690    8.7262   59.1696 C   0  0  0  0  0  0  0  0  0  0  0  0
   27.7154    8.7089   57.1550 O   0  0  0  0  0  0  0  0  0  0  0  0
   27.5779    9.2742   55.8751 C   0  0  0  0  0  0  0  0  0  0  0  0
   24.0366    7.8083   54.1287 C   0  0  0  0  0  0  0  0  0  0  0  0
   23.9404    8.6994   55.1789 C   0  0  0  0  0  0  0  0  0  0  0  0
   25.1066    9.1700   55.7399 C   0  0  0  0  0  0  0  0  0  0  0  0
   26.3294    8.7569   55.2588 C   0  0  0  0  0  0  0  0  0  0  0  0
   26.4025    7.8659   54.2085 C   0  0  0  0  0  0  0  0  0  0  0  0
   25.2521    7.3766   53.6258 C   0  0  0  0  0  0  0  0  0  0  0  0
   22.5790    7.1847   53.3858 S   0  0  0  0  0  0  0  0  0  0  0  0
   22.1037    5.9953   54.1699 O   0  0  0  0  0  0  0  0  0  0  0  0
   22.8373    6.7544   51.9742 O   0  0  0  0  0  0  0  0  0  0  0  0
   19.9717    7.6971   53.1214 C   0  0  0  0  0  0  0  0  0  0  0  0
   21.2810    8.3991   53.4080 C   0  0  0  0  0  0  0  0  0  0  0  0
   21.5594    9.5261   52.4553 C   0  0  0  0  0  0  0  0  0  0  0  0
   21.1733    8.9864   54.7983 C   0  0  0  0  0  0  0  0  0  0  0  0
   30.5432   13.6442   62.4475 C   0  0  0  0  0  0  0  0  0  0  0  0
   31.6883   14.5158   61.9736 C   0  0  0  0  0  0  0  0  0  0  0  0
   32.0038   14.1818   60.6735 F   0  0  0  0  0  0  0  0  0  0  0  0
   31.3721   15.8459   62.0314 F   0  0  0  0  0  0  0  0  0  0  0  0
 25 26  1  0  0  0
 26 27  1  0  0  0
 26 28  1  0  0  0
 26 22  1  0  0  0
 22 23  2  0  0  0
 22 24  2  0  0  0
 22 16  1  0  0  0
 16 17  2  0  0  0
 17 18  1  0  0  0
 18 19  2  0  0  0
 19 15  1  0  0  0
 15 14  1  0  0  0
 14  1  1  0  0  0
  1  2  2  0  0  0
  2  3  1  0  0  0
  3  4  1  0  0  0
  4  5  1  0  0  0
  4  6  1  0  0  0
  6  7  2  0  0  0
  6  8  1  0  0  0
  8 29  1  0  0  0
 29 30  1  0  0  0
 30 31  1  0  0  0
 30 32  1  0  0  0
  8  9  1  0  0  0
  9 10  2  0  0  0
  9 11  1  0  0  0
 11 12  1  0  0  0
 12 13  2  0  0  0
 19 20  1  0  0  0
 20 21  2  0  0  0
 21 16  1  0  0  0
 13  1  1  0  0  0
 11  3  2  0  0  0
M  END
> <minimizedAffinity>
3.85793

> <CNNscore>
0.4464804232

> <CNNaffinity>
5.7950496674

> <CNN_VS>
2.5873761177

> <CNNaffinity_variance>
0.2734743059

$$$$
[H]c1c([H])c(S(=O)(=O)C(C([H])([H])[H])(C([H])([H])[H])C([H])([H])[H])c([H])c([H])c1C([H])([H])Oc1c([H])c([H])c2c(=O)n(C([H])([H])C([H])(F)F)c(=O)n(C([H])([H])[H])c2c1[H]


 32 34  0  0  0  0  0  0  0  0999 V2000
   23.6821    8.6037   53.4754 C   0  0  0  0  0  0  0  0  0  0  0  0
   25.0429    8.4579   53.2996 C   0  0  0  0  0  0  0  0  0  0  0  0
   25.9449    8.6300   54.3316 C   0  0  0  0  0  0  0  0  0  0  0  0
   27.2716    8.4945   54.1888 N   0  0  0  0  0  0  0  0  0  0  0  0
   27.7832    8.1497   52.8829 C   0  0  0  0  0  0  0  0  0  0  0  0
   28.1437    8.6673   55.2142 C   0  0  0  0  0  0  0  0  0  0  0  0
   29.3845    8.5293   55.0322 O   0  0  0  0  0  0  0  0  0  0  0  0
   27.7078    8.9890   56.4458 N   0  0  0  0  0  0  0  0  0  0  0  0
   26.3801    9.1311   56.6169 C   0  0  0  0  0  0  0  0  0  0  0  0
   25.8846    9.4332   57.7449 O   0  0  0  0  0  0  0  0  0  0  0  0
   25.4795    8.9597   55.5881 C   0  0  0  0  0  0  0  0  0  0  0  0
   24.1194    9.1039   55.7575 C   0  0  0  0  0  0  0  0  0  0  0  0
   23.2223    8.9304   54.7210 C   0  0  0  0  0  0  0  0  0  0  0  0
   22.8557    8.4106   52.3787 O   0  0  0  0  0  0  0  0  0  0  0  0
   21.4741    8.6704   52.4007 C   0  0  0  0  0  0  0  0  0  0  0  0
   19.4583    5.1399   53.5014 C   0  0  0  0  0  0  0  0  0  0  0  0
   20.8389    5.1387   53.4824 C   0  0  0  0  0  0  0  0  0  0  0  0
   21.4842    6.3001   53.1204 C   0  0  0  0  0  0  0  0  0  0  0  0
   20.7627    7.4256   52.7887 C   0  0  0  0  0  0  0  0  0  0  0  0
   19.3838    7.4048   52.8145 C   0  0  0  0  0  0  0  0  0  0  0  0
   18.7089    6.2566   53.1728 C   0  0  0  0  0  0  0  0  0  0  0  0
   18.5972    3.6847   53.9557 S   0  0  0  0  0  0  0  0  0  0  0  0
   19.1907    3.1441   55.2248 O   0  0  0  0  0  0  0  0  0  0  0  0
   18.7124    2.6377   52.8902 O   0  0  0  0  0  0  0  0  0  0  0  0
   16.0503    3.1448   53.3623 C   0  0  0  0  0  0  0  0  0  0  0  0
   16.8812    4.0288   54.2664 C   0  0  0  0  0  0  0  0  0  0  0  0
   16.5694    5.4886   54.1019 C   0  0  0  0  0  0  0  0  0  0  0  0
   16.5468    3.6436   55.6910 C   0  0  0  0  0  0  0  0  0  0  0  0
   28.6221    9.1721   57.5297 C   0  0  0  0  0  0  0  0  0  0  0  0
   28.3291   10.4196   58.3380 C   0  0  0  0  0  0  0  0  0  0  0  0
   29.3057   10.5767   59.2987 F   0  0  0  0  0  0  0  0  0  0  0  0
   28.2901   11.5379   57.5502 F   0  0  0  0  0  0  0  0  0  0  0  0
 25 26  1  0  0  0
 26 27  1  0  0  0
 26 28  1  0  0  0
 26 22  1  0  0  0
 22 23  2  0  0  0
 22 24  2  0  0  0
 22 16  1  0  0  0
 16 17  2  0  0  0
 17 18  1  0  0  0
 18 19  2  0  0  0
 19 15  1  0  0  0
 15 14  1  0  0  0
 14  1  1  0  0  0
  1  2  2  0  0  0
  2  3  1  0  0  0
  3  4  1  0  0  0
  4  5  1  0  0  0
  4  6  1  0  0  0
  6  7  2  0  0  0
  6  8  1  0  0  0
  8 29  1  0  0  0
 29 30  1  0  0  0
 30 31  1  0  0  0
 30 32  1  0  0  0
  8  9  1  0  0  0
  9 10  2  0  0  0
  9 11  1  0  0  0
 11 12  1  0  0  0
 12 13  2  0  0  0
 19 20  1  0  0  0
 20 21  2  0  0  0
 21 16  1  0  0  0
 13  1  1  0  0  0
 11  3  2  0  0  0
M  END
> <minimizedAffinity>
25.28970

> <CNNscore>
0.4429506958

> <CNNaffinity>
5.9805431366

> <CNN_VS>
2.6490857601

> <CNNaffinity_variance>
0.1301622093

$$$$
[H]c1c([H])c(S(=O)(=O)C(C([H])([H])[H])(C([H])([H])[H])C([H])([H])[H])c([H])c([H])c1C([H])([H])Oc1c([H])c([H])c2c(=O)n(C([H])([H])C([H])(F)F)c(=O)n(C([H])([H])[H])c2c1[H]


 32 34  0  0  0  0  0  0  0  0999 V2000
   24.5066    8.2928   53.0745 C   0  0  0  0  0  0  0  0  0  0  0  0
   24.4191    8.6705   54.3987 C   0  0  0  0  0  0  0  0  0  0  0  0
   25.5348    8.8375   55.1958 C   0  0  0  0  0  0  0  0  0  0  0  0
   25.4787    9.2038   56.4848 N   0  0  0  0  0  0  0  0  0  0  0  0
   24.1786    9.4357   57.0698 C   0  0  0  0  0  0  0  0  0  0  0  0
   26.5856    9.3633   57.2535 C   0  0  0  0  0  0  0  0  0  0  0  0
   26.4836    9.7093   58.4625 O   0  0  0  0  0  0  0  0  0  0  0  0
   27.8148    9.1571   56.7469 N   0  0  0  0  0  0  0  0  0  0  0  0
   27.8999    8.7886   55.4549 C   0  0  0  0  0  0  0  0  0  0  0  0
   29.0192    8.5738   54.8979 O   0  0  0  0  0  0  0  0  0  0  0  0
   26.7874    8.6216   54.6589 C   0  0  0  0  0  0  0  0  0  0  0  0
   26.8686    8.2445   53.3358 C   0  0  0  0  0  0  0  0  0  0  0  0
   25.7485    8.0791   52.5437 C   0  0  0  0  0  0  0  0  0  0  0  0
   23.3298    8.1507   52.3548 O   0  0  0  0  0  0  0  0  0  0  0  0
   22.0778    8.5727   52.8355 C   0  0  0  0  0  0  0  0  0  0  0  0
   19.6907    5.1756   53.5440 C   0  0  0  0  0  0  0  0  0  0  0  0
   19.0827    6.3362   53.1086 C   0  0  0  0  0  0  0  0  0  0  0  0
   19.8758    7.4388   52.8812 C   0  0  0  0  0  0  0  0  0  0  0  0
   21.2364    7.3744   53.0855 C   0  0  0  0  0  0  0  0  0  0  0  0
   21.8233    6.2045   53.5209 C   0  0  0  0  0  0  0  0  0  0  0  0
   21.0556    5.0834   53.7573 C   0  0  0  0  0  0  0  0  0  0  0  0
   18.7201    3.7500   53.8454 S   0  0  0  0  0  0  0  0  0  0  0  0
   19.2966    3.0076   55.0166 O   0  0  0  0  0  0  0  0  0  0  0  0
   18.7192    2.8394   52.6557 O   0  0  0  0  0  0  0  0  0  0  0  0
   16.8834    5.6789   54.0357 C   0  0  0  0  0  0  0  0  0  0  0  0
   17.0479    4.1911   54.2564 C   0  0  0  0  0  0  0  0  0  0  0  0
   16.6885    3.7650   55.6508 C   0  0  0  0  0  0  0  0  0  0  0  0
   16.1014    3.4949   53.3031 C   0  0  0  0  0  0  0  0  0  0  0  0
   28.9845    9.3238   57.5522 C   0  0  0  0  0  0  0  0  0  0  0  0
   28.6722    9.8644   58.9327 C   0  0  0  0  0  0  0  0  0  0  0  0
   29.2514    9.0476   59.8807 F   0  0  0  0  0  0  0  0  0  0  0  0
   29.1372   11.1411   59.0955 F   0  0  0  0  0  0  0  0  0  0  0  0
 25 26  1  0  0  0
 26 27  1  0  0  0
 26 28  1  0  0  0
 26 22  1  0  0  0
 22 23  2  0  0  0
 22 24  2  0  0  0
 22 16  1  0  0  0
 16 17  2  0  0  0
 17 18  1  0  0  0
 18 19  2  0  0  0
 19 15  1  0  0  0
 15 14  1  0  0  0
 14  1  1  0  0  0
  1  2  2  0  0  0
  2  3  1  0  0  0
  3  4  1  0  0  0
  4  5  1  0  0  0
  4  6  1  0  0  0
  6  7  2  0  0  0
  6  8  1  0  0  0
  8 29  1  0  0  0
 29 30  1  0  0  0
 30 31  1  0  0  0
 30 32  1  0  0  0
  8  9  1  0  0  0
  9 10  2  0  0  0
  9 11  1  0  0  0
 11 12  1  0  0  0
 12 13  2  0  0  0
 19 20  1  0  0  0
 20 21  2  0  0  0
 21 16  1  0  0  0
 13  1  1  0  0  0
 11  3  2  0  0  0
M  END
> <minimizedAffinity>
30.15900

> <CNNscore>
0.4359329045

> <CNNaffinity>
5.7373814583

> <CNN_VS>
2.5011134148

> <CNNaffinity_variance>
0.1095884219

$$$$
[H]OB(O[H])[C@@]([H])(N([H])C(=O)[C@@]([H])(N([H])C(=O)[C@@]([H])(N([H])C(=O)OC([H])([H])c1c([H])c([H])c([H])c([H])c1[H])C([H])([H])c1c([H])c([H])c([H])c([H])c1[H])C([H])([H])c1c([H])c([H])c([H])c([H])c1[H])C([H])([H])C([H])(C([H])([H])[H])C([H])([H])[H]


 46 48  0  0  0  0  0  0  0  0999 V2000
   25.5055    7.4369   54.8566 N   0  0  0  0  0  0  0  0  0  0  0  0
   26.3811    8.4437   55.2570 C   0  0  0  0  0  0  0  0  0  0  0  0
   25.8631    9.3428   56.0495 O   0  0  0  0  0  0  0  0  0  0  0  0
   25.8425    6.6431   54.2783 H   0  0  0  0  0  0  0  0  0  0  0  0
   24.0691    7.4126   55.2659 C   0  0  0  0  0  0  0  0  0  0  0  0
   21.9384    6.6002   54.1036 N   0  0  0  0  0  0  0  0  0  0  0  0
   23.3240    6.6850   54.2345 C   0  0  0  0  0  0  0  0  0  0  0  0
   24.0198    6.0461   53.3556 O   0  0  0  0  0  0  0  0  0  0  0  0
   21.3359    7.1166   54.8171 H   0  0  0  0  0  0  0  0  0  0  0  0
   21.2025    5.8668   53.1289 C   0  0  0  0  0  0  0  0  0  0  0  0
   20.0012    6.7097   52.4817 B   0  0  0  0  0  0  0  0  0  0  0  0
   19.2541    7.5293   53.4863 O   0  0  0  0  0  0  0  0  0  0  0  0
   20.2991    7.4732   51.2442 O   0  0  0  0  0  0  0  0  0  0  0  0
   18.5345    7.9635   52.9764 H   0  0  0  0  0  0  0  0  0  0  0  0
   20.8472    8.2674   51.4836 H   0  0  0  0  0  0  0  0  0  0  0  0
   20.8858    4.4696   53.4440 C   0  0  0  0  0  0  0  0  0  0  0  0
   18.6477    4.0230   54.2346 C   0  0  0  0  0  0  0  0  0  0  0  0
   19.5874    3.9034   53.0133 C   0  0  0  0  0  0  0  0  0  0  0  0
   19.6116    2.3959   52.7406 C   0  0  0  0  0  0  0  0  0  0  0  0
   23.7387    8.8209   55.5478 C   0  0  0  0  0  0  0  0  0  0  0  0
   22.8402    9.5416   54.6559 C   0  0  0  0  0  0  0  0  0  0  0  0
   22.7542    9.2281   53.3203 C   0  0  0  0  0  0  0  0  0  0  0  0
   21.8733    9.8822   52.5135 C   0  0  0  0  0  0  0  0  0  0  0  0
   21.0455   10.8726   53.0046 C   0  0  0  0  0  0  0  0  0  0  0  0
   21.1542   11.1643   54.3447 C   0  0  0  0  0  0  0  0  0  0  0  0
   22.0288   10.5281   55.1914 C   0  0  0  0  0  0  0  0  0  0  0  0
   27.7735    8.6590   54.9492 C   0  0  0  0  0  0  0  0  0  0  0  0
   27.9940    8.5355   53.5196 N   0  0  0  0  0  0  0  0  0  0  0  0
   27.0069    8.7179   52.5333 C   0  0  0  0  0  0  0  0  0  0  0  0
   25.8460    9.0133   52.8642 O   0  0  0  0  0  0  0  0  0  0  0  0
   28.9985    8.2886   53.2704 H   0  0  0  0  0  0  0  0  0  0  0  0
   27.3676    8.5587   51.2112 O   0  0  0  0  0  0  0  0  0  0  0  0
   27.9766    9.5691   50.4547 C   0  0  0  0  0  0  0  0  0  0  0  0
   28.3646    9.1273   49.0883 C   0  0  0  0  0  0  0  0  0  0  0  0
   28.9739    7.9254   48.8538 C   0  0  0  0  0  0  0  0  0  0  0  0
   29.3088    7.5659   47.5802 C   0  0  0  0  0  0  0  0  0  0  0  0
   29.0175    8.4419   46.5436 C   0  0  0  0  0  0  0  0  0  0  0  0
   28.4051    9.6475   46.7838 C   0  0  0  0  0  0  0  0  0  0  0  0
   28.0664   10.0158   48.0582 C   0  0  0  0  0  0  0  0  0  0  0  0
   28.6251    9.6564   55.5822 C   0  0  0  0  0  0  0  0  0  0  0  0
   28.5491    9.7709   57.0696 C   0  0  0  0  0  0  0  0  0  0  0  0
   28.4370    8.5955   57.8303 C   0  0  0  0  0  0  0  0  0  0  0  0
   28.4220    8.7220   59.1951 C   0  0  0  0  0  0  0  0  0  0  0  0
   28.5098    9.9141   59.8236 C   0  0  0  0  0  0  0  0  0  0  0  0
   28.6217   11.0709   59.0774 C   0  0  0  0  0  0  0  0  0  0  0  0
   28.6390   10.9768   57.6968 C   0  0  0  0  0  0  0  0  0  0  0  0
 17 18  1  0  0  0
 18 19  1  0  0  0
 18 16  1  0  0  0
 16 10  1  0  0  0
 10  6  1  0  0  0
  6  7  1  0  0  0
  7  8  2  0  0  0
  7  5  1  0  0  0
  5 20  1  0  0  0
 20 21  1  0  0  0
 21 22  2  0  0  0
 22 23  1  0  0  0
 23 24  2  0  0  0
 24 25  1  0  0  0
 25 26  2  0  0  0
  5  1  1  0  0  0
  1  2  1  0  0  0
  2  3  2  0  0  0
  2 27  1  0  0  0
 27 40  1  0  0  0
 40 41  1  0  0  0
 41 42  2  0  0  0
 42 43  1  0  0  0
 43 44  2  0  0  0
 44 45  1  0  0  0
 45 46  2  0  0  0
 27 28  1  0  0  0
 28 29  1  0  0  0
 29 30  2  0  0  0
 29 32  1  0  0  0
 32 33  1  0  0  0
 33 34  1  0  0  0
 34 35  2  0  0  0
 35 36  1  0  0  0
 36 37  2  0  0  0
 37 38  1  0  0  0
 38 39  2  0  0  0
 10 11  1  0  0  0
 11 12  1  0  0  0
 11 13  1  0  0  0
 26 21  1  0  0  0
 46 41  1  0  0  0
 39 34  1  0  0  0
  6  9  1  0  0  0
  1  4  1  0  0  0
 28 31  1  0  0  0
 12 14  1  0  0  0
 13 15  1  0  0  0
M  END
> <minimizedAffinity>
19.23970

> <CNNscore>
0.5763015151

> <CNNaffinity>
6.7567772865

> <CNN_VS>
3.8939409256

> <CNNaffinity_variance>
0.6219956279

$$$$
[H]OB(O[H])[C@@]([H])(N([H])C(=O)[C@@]([H])(N([H])C(=O)[C@@]([H])(N([H])C(=O)OC([H])([H])c1c([H])c([H])c([H])c([H])c1[H])C([H])([H])c1c([H])c([H])c([H])c([H])c1[H])C([H])([H])c1c([H])c([H])c([H])c([H])c1[H])C([H])([H])C([H])(C([H])([H])[H])C([H])([H])[H]


 46 48  0  0  0  0  0  0  0  0999 V2000
   24.3689    9.5417   54.6811 N   0  0  0  0  0  0  0  0  0  0  0  0
   25.4499    8.7402   55.0408 C   0  0  0  0  0  0  0  0  0  0  0  0
   25.1889    7.8343   55.9443 O   0  0  0  0  0  0  0  0  0  0  0  0
   24.4629   10.2469   53.9249 H   0  0  0  0  0  0  0  0  0  0  0  0
   23.0229    9.4059   55.3147 C   0  0  0  0  0  0  0  0  0  0  0  0
   22.3169    7.6873   53.5542 N   0  0  0  0  0  0  0  0  0  0  0  0
   22.4466    8.1341   54.8686 C   0  0  0  0  0  0  0  0  0  0  0  0
   22.0029    7.3428   55.7862 O   0  0  0  0  0  0  0  0  0  0  0  0
   22.6730    8.3210   52.7730 H   0  0  0  0  0  0  0  0  0  0  0  0
   21.7257    6.4713   53.1058 C   0  0  0  0  0  0  0  0  0  0  0  0
   20.1243    6.5359   53.0423 B   0  0  0  0  0  0  0  0  0  0  0  0
   19.4757    5.2078   53.2755 O   0  0  0  0  0  0  0  0  0  0  0  0
   19.4597    7.6260   53.7994 O   0  0  0  0  0  0  0  0  0  0  0  0
   18.5117    5.3743   53.1778 H   0  0  0  0  0  0  0  0  0  0  0  0
   19.5025    7.4125   54.7695 H   0  0  0  0  0  0  0  0  0  0  0  0
   22.2793    5.2229   53.6413 C   0  0  0  0  0  0  0  0  0  0  0  0
   24.1043    5.2171   55.2233 C   0  0  0  0  0  0  0  0  0  0  0  0
   23.7480    5.0570   53.7279 C   0  0  0  0  0  0  0  0  0  0  0  0
   24.5535    6.1749   53.0578 C   0  0  0  0  0  0  0  0  0  0  0  0
   22.3338   10.6697   54.9989 C   0  0  0  0  0  0  0  0  0  0  0  0
   21.9108   10.9362   53.6306 C   0  0  0  0  0  0  0  0  0  0  0  0
   21.9640   12.2028   53.0990 C   0  0  0  0  0  0  0  0  0  0  0  0
   21.6087   12.4222   51.8027 C   0  0  0  0  0  0  0  0  0  0  0  0
   21.1869   11.3907   50.9869 C   0  0  0  0  0  0  0  0  0  0  0  0
   21.1440   10.1347   51.5468 C   0  0  0  0  0  0  0  0  0  0  0  0
   21.4939    9.8717   52.8487 C   0  0  0  0  0  0  0  0  0  0  0  0
   26.8153    8.7356   54.5765 C   0  0  0  0  0  0  0  0  0  0  0  0
   26.8515    8.5897   53.1327 N   0  0  0  0  0  0  0  0  0  0  0  0
   27.7164    9.2925   52.2732 C   0  0  0  0  0  0  0  0  0  0  0  0
   28.5313   10.1054   52.7417 O   0  0  0  0  0  0  0  0  0  0  0  0
   26.1468    7.8823   52.7651 H   0  0  0  0  0  0  0  0  0  0  0  0
   27.6277    9.0516   50.9177 O   0  0  0  0  0  0  0  0  0  0  0  0
   28.1137    9.9380   49.9470 C   0  0  0  0  0  0  0  0  0  0  0  0
   28.4475    9.2733   48.6587 C   0  0  0  0  0  0  0  0  0  0  0  0
   28.1856    9.8525   47.4477 C   0  0  0  0  0  0  0  0  0  0  0  0
   28.5128    9.2011   46.2935 C   0  0  0  0  0  0  0  0  0  0  0  0
   29.1108    7.9515   46.3818 C   0  0  0  0  0  0  0  0  0  0  0  0
   29.3723    7.3741   47.6002 C   0  0  0  0  0  0  0  0  0  0  0  0
   29.0469    8.0206   48.7624 C   0  0  0  0  0  0  0  0  0  0  0  0
   27.8791    9.5814   55.0998 C   0  0  0  0  0  0  0  0  0  0  0  0
   28.0288    9.6465   56.5845 C   0  0  0  0  0  0  0  0  0  0  0  0
   28.0596    8.4449   57.3112 C   0  0  0  0  0  0  0  0  0  0  0  0
   28.2506    8.5275   58.6661 C   0  0  0  0  0  0  0  0  0  0  0  0
   28.4075    9.7008   59.3159 C   0  0  0  0  0  0  0  0  0  0  0  0
   28.3791   10.8834   58.6029 C   0  0  0  0  0  0  0  0  0  0  0  0
   28.1873   10.8338   57.2332 C   0  0  0  0  0  0  0  0  0  0  0  0
 17 18  1  0  0  0
 18 19  1  0  0  0
 18 16  1  0  0  0
 16 10  1  0  0  0
 10  6  1  0  0  0
  6  7  1  0  0  0
  7  8  2  0  0  0
  7  5  1  0  0  0
  5 20  1  0  0  0
 20 21  1  0  0  0
 21 22  2  0  0  0
 22 23  1  0  0  0
 23 24  2  0  0  0
 24 25  1  0  0  0
 25 26  2  0  0  0
  5  1  1  0  0  0
  1  2  1  0  0  0
  2  3  2  0  0  0
  2 27  1  0  0  0
 27 40  1  0  0  0
 40 41  1  0  0  0
 41 42  2  0  0  0
 42 43  1  0  0  0
 43 44  2  0  0  0
 44 45  1  0  0  0
 45 46  2  0  0  0
 27 28  1  0  0  0
 28 29  1  0  0  0
 29 30  2  0  0  0
 29 32  1  0  0  0
 32 33  1  0  0  0
 33 34  1  0  0  0
 34 35  2  0  0  0
 35 36  1  0  0  0
 36 37  2  0  0  0
 37 38  1  0  0  0
 38 39  2  0  0  0
 10 11  1  0  0  0
 11 12  1  0  0  0
 11 13  1  0  0  0
 26 21  1  0  0  0
 46 41  1  0  0  0
 39 34  1  0  0  0
  6  9  1  0  0  0
  1  4  1  0  0  0
 28 31  1  0  0  0
 12 14  1  0  0  0
 13 15  1  0  0  0
M  END
> <minimizedAffinity>
20.94995

> <CNNscore>
0.5296270251

> <CNNaffinity>
6.6303734779

> <CNN_VS>
3.5116250515

> <CNNaffinity_variance>
0.8704153299

$$$$
[H]OB(O[H])[C@@]([H])(N([H])C(=O)[C@@]([H])(N([H])C(=O)[C@@]([H])(N([H])C(=O)OC([H])([H])c1c([H])c([H])c([H])c([H])c1[H])C([H])([H])c1c([H])c([H])c([H])c([H])c1[H])C([H])([H])c1c([H])c([H])c([H])c([H])c1[H])C([H])([H])C([H])(C([H])([H])[H])C([H])([H])[H]


 46 48  0  0  0  0  0  0  0  0999 V2000
   24.8847    7.5266   54.6069 N   0  0  0  0  0  0  0  0  0  0  0  0
   25.9570    8.3289   54.9904 C   0  0  0  0  0  0  0  0  0  0  0  0
   25.7238    9.1122   56.0088 O   0  0  0  0  0  0  0  0  0  0  0  0
   24.9943    6.8257   53.8488 H   0  0  0  0  0  0  0  0  0  0  0  0
   23.5530    7.5905   55.2806 C   0  0  0  0  0  0  0  0  0  0  0  0
   21.1657    7.2091   54.4401 N   0  0  0  0  0  0  0  0  0  0  0  0
   22.5509    7.0890   54.3357 C   0  0  0  0  0  0  0  0  0  0  0  0
   22.9922    6.4612   53.2984 O   0  0  0  0  0  0  0  0  0  0  0  0
   20.7706    7.7217   55.2885 H   0  0  0  0  0  0  0  0  0  0  0  0
   20.1808    6.6944   53.5488 C   0  0  0  0  0  0  0  0  0  0  0  0
   20.3551    5.1273   53.2552 B   0  0  0  0  0  0  0  0  0  0  0  0
   21.6049    4.5566   53.8479 O   0  0  0  0  0  0  0  0  0  0  0  0
   19.1747    4.2585   53.4904 O   0  0  0  0  0  0  0  0  0  0  0  0
   21.6102    3.6131   53.5715 H   0  0  0  0  0  0  0  0  0  0  0  0
   19.0470    4.1526   54.4707 H   0  0  0  0  0  0  0  0  0  0  0  0
   19.8444    7.5148   52.3802 C   0  0  0  0  0  0  0  0  0  0  0  0
   20.1225    9.3939   50.8885 C   0  0  0  0  0  0  0  0  0  0  0  0
   20.8813    8.3843   51.7795 C   0  0  0  0  0  0  0  0  0  0  0  0
   21.8081    7.6742   50.7873 C   0  0  0  0  0  0  0  0  0  0  0  0
   23.4555    8.9729   55.7818 C   0  0  0  0  0  0  0  0  0  0  0  0
   22.5710    9.9193   55.1153 C   0  0  0  0  0  0  0  0  0  0  0  0
   22.8124   10.3409   53.8294 C   0  0  0  0  0  0  0  0  0  0  0  0
   21.9472   11.1892   53.2077 C   0  0  0  0  0  0  0  0  0  0  0  0
   20.8100   11.6502   53.8415 C   0  0  0  0  0  0  0  0  0  0  0  0
   20.5952   11.2111   55.1276 C   0  0  0  0  0  0  0  0  0  0  0  0
   21.4425   10.3562   55.7891 C   0  0  0  0  0  0  0  0  0  0  0  0
   27.2919    8.4367   54.4555 C   0  0  0  0  0  0  0  0  0  0  0  0
   27.2529    8.4039   53.0047 N   0  0  0  0  0  0  0  0  0  0  0  0
   27.8382    9.3663   52.1609 C   0  0  0  0  0  0  0  0  0  0  0  0
   28.4494   10.3313   52.6503 O   0  0  0  0  0  0  0  0  0  0  0  0
   26.7284    7.5626   52.6186 H   0  0  0  0  0  0  0  0  0  0  0  0
   27.7102    9.2031   50.7969 O   0  0  0  0  0  0  0  0  0  0  0  0
   28.3373   10.0375   49.8618 C   0  0  0  0  0  0  0  0  0  0  0  0
   28.5918    9.3705   48.5567 C   0  0  0  0  0  0  0  0  0  0  0  0
   28.3212    9.9764   47.3608 C   0  0  0  0  0  0  0  0  0  0  0  0
   28.5743    9.3215   46.1901 C   0  0  0  0  0  0  0  0  0  0  0  0
   29.1070    8.0410   46.2462 C   0  0  0  0  0  0  0  0  0  0  0  0
   29.3776    7.4367   47.4495 C   0  0  0  0  0  0  0  0  0  0  0  0
   29.1263    8.0865   48.6281 C   0  0  0  0  0  0  0  0  0  0  0  0
   28.3385    9.2987   54.9871 C   0  0  0  0  0  0  0  0  0  0  0  0
   28.3148    9.5717   56.4554 C   0  0  0  0  0  0  0  0  0  0  0  0
   28.3793    8.4852   57.3432 C   0  0  0  0  0  0  0  0  0  0  0  0
   28.4092    8.7632   58.6851 C   0  0  0  0  0  0  0  0  0  0  0  0
   28.3798   10.0210   59.1758 C   0  0  0  0  0  0  0  0  0  0  0  0
   28.3181   11.0908   58.3045 C   0  0  0  0  0  0  0  0  0  0  0  0
   28.2858   10.8433   56.9432 C   0  0  0  0  0  0  0  0  0  0  0  0
 17 18  1  0  0  0
 18 19  1  0  0  0
 18 16  1  0  0  0
 16 10  1  0  0  0
 10  6  1  0  0  0
  6  7  1  0  0  0
  7  8  2  0  0  0
  7  5  1  0  0  0
  5 20  1  0  0  0
 20 21  1  0  0  0
 21 22  2  0  0  0
 22 23  1  0  0  0
 23 24  2  0  0  0
 24 25  1  0  0  0
 25 26  2  0  0  0
  5  1  1  0  0  0
  1  2  1  0  0  0
  2  3  2  0  0  0
  2 27  1  0  0  0
 27 40  1  0  0  0
 40 41  1  0  0  0
 41 42  2  0  0  0
 42 43  1  0  0  0
 43 44  2  0  0  0
 44 45  1  0  0  0
 45 46  2  0  0  0
 27 28  1  0  0  0
 28 29  1  0  0  0
 29 30  2  0  0  0
 29 32  1  0  0  0
 32 33  1  0  0  0
 33 34  1  0  0  0
 34 35  2  0  0  0
 35 36  1  0  0  0
 36 37  2  0  0  0
 37 38  1  0  0  0
 38 39  2  0  0  0
 10 11  1  0  0  0
 11 12  1  0  0  0
 11 13  1  0  0  0
 26 21  1  0  0  0
 46 41  1  0  0  0
 39 34  1  0  0  0
  6  9  1  0  0  0
  1  4  1  0  0  0
 28 31  1  0  0  0
 12 14  1  0  0  0
 13 15  1  0  0  0
M  END
> <minimizedAffinity>
23.54859

> <CNNscore>
0.5114052892

> <CNNaffinity>
6.5672326088

> <CNN_VS>
3.3585174084

> <CNNaffinity_variance>
0.5095533729

$$$$
[H]OB(O[H])[C@@]([H])(N([H])C(=O)[C@@]([H])(N([H])C(=O)[C@@]([H])(N([H])C(=O)OC([H])([H])c1c([H])c([H])c([H])c([H])c1[H])C([H])([H])c1c([H])c([H])c([H])c([H])c1[H])C([H])([H])c1c([H])c([H])c([H])c([H])c1[H])C([H])([H])C([H])(C([H])([H])[H])C([H])([H])[H]


 46 48  0  0  0  0  0  0  0  0999 V2000
   25.3185    7.9794   53.8577 N   0  0  0  0  0  0  0  0  0  0  0  0
   26.6375    7.9231   54.3022 C   0  0  0  0  0  0  0  0  0  0  0  0
   27.1828    6.7372   54.2639 O   0  0  0  0  0  0  0  0  0  0  0  0
   24.8222    8.8889   53.7909 H   0  0  0  0  0  0  0  0  0  0  0  0
   24.5685    6.7662   53.4139 C   0  0  0  0  0  0  0  0  0  0  0  0
   22.6986    8.4763   53.0530 N   0  0  0  0  0  0  0  0  0  0  0  0
   23.2592    7.2063   52.9232 C   0  0  0  0  0  0  0  0  0  0  0  0
   22.5409    6.3258   52.3119 O   0  0  0  0  0  0  0  0  0  0  0  0
   23.2682    9.2255   53.5559 H   0  0  0  0  0  0  0  0  0  0  0  0
   21.4135    8.9061   52.6139 C   0  0  0  0  0  0  0  0  0  0  0  0
   20.4678    7.6950   52.1541 B   0  0  0  0  0  0  0  0  0  0  0  0
   19.6198    7.1607   53.2653 O   0  0  0  0  0  0  0  0  0  0  0  0
   19.6983    7.8755   50.8977 O   0  0  0  0  0  0  0  0  0  0  0  0
   19.1208    6.4127   52.8679 H   0  0  0  0  0  0  0  0  0  0  0  0
   18.9533    8.5113   51.0686 H   0  0  0  0  0  0  0  0  0  0  0  0
   21.3644   10.0961   51.7576 C   0  0  0  0  0  0  0  0  0  0  0  0
   21.4154   11.5017   53.7211 C   0  0  0  0  0  0  0  0  0  0  0  0
   21.9086   11.3775   52.2616 C   0  0  0  0  0  0  0  0  0  0  0  0
   21.3224   12.6238   51.5901 C   0  0  0  0  0  0  0  0  0  0  0  0
   24.6453    5.8416   54.5589 C   0  0  0  0  0  0  0  0  0  0  0  0
   23.5472    5.7870   55.5146 C   0  0  0  0  0  0  0  0  0  0  0  0
   22.5303    6.7116   55.4897 C   0  0  0  0  0  0  0  0  0  0  0  0
   21.4885    6.6148   56.3616 C   0  0  0  0  0  0  0  0  0  0  0  0
   21.4193    5.5954   57.2909 C   0  0  0  0  0  0  0  0  0  0  0  0
   22.4513    4.6855   57.2917 C   0  0  0  0  0  0  0  0  0  0  0  0
   23.5188    4.7477   56.4297 C   0  0  0  0  0  0  0  0  0  0  0  0
   27.5115    8.9598   54.7933 C   0  0  0  0  0  0  0  0  0  0  0  0
   28.2788    9.5264   53.6990 N   0  0  0  0  0  0  0  0  0  0  0  0
   27.9198    9.4528   52.3402 C   0  0  0  0  0  0  0  0  0  0  0  0
   26.8724    8.8737   52.0055 O   0  0  0  0  0  0  0  0  0  0  0  0
   29.1649   10.0201   54.0201 H   0  0  0  0  0  0  0  0  0  0  0  0
   28.7573   10.0348   51.4111 O   0  0  0  0  0  0  0  0  0  0  0  0
   28.3026   10.5788   50.2022 C   0  0  0  0  0  0  0  0  0  0  0  0
   28.5480    9.6951   49.0310 C   0  0  0  0  0  0  0  0  0  0  0  0
   29.0416    8.4264   49.1629 C   0  0  0  0  0  0  0  0  0  0  0  0
   29.2479    7.6547   48.0559 C   0  0  0  0  0  0  0  0  0  0  0  0
   28.9465    8.1860   46.8094 C   0  0  0  0  0  0  0  0  0  0  0  0
   28.4505    9.4604   46.6819 C   0  0  0  0  0  0  0  0  0  0  0  0
   28.2412   10.2409   47.7871 C   0  0  0  0  0  0  0  0  0  0  0  0
   27.1608    9.9325   55.8189 C   0  0  0  0  0  0  0  0  0  0  0  0
   27.8808    9.8349   57.1240 C   0  0  0  0  0  0  0  0  0  0  0  0
   28.3845   11.0105   57.7044 C   0  0  0  0  0  0  0  0  0  0  0  0
   28.9950   10.9034   58.9271 C   0  0  0  0  0  0  0  0  0  0  0  0
   29.1271    9.7299   59.5821 C   0  0  0  0  0  0  0  0  0  0  0  0
   28.6310    8.5730   59.0139 C   0  0  0  0  0  0  0  0  0  0  0  0
   28.0096    8.6477   57.7795 C   0  0  0  0  0  0  0  0  0  0  0  0
 17 18  1  0  0  0
 18 19  1  0  0  0
 18 16  1  0  0  0
 16 10  1  0  0  0
 10  6  1  0  0  0
  6  7  1  0  0  0
  7  8  2  0  0  0
  7  5  1  0  0  0
  5 20  1  0  0  0
 20 21  1  0  0  0
 21 22  2  0  0  0
 22 23  1  0  0  0
 23 24  2  0  0  0
 24 25  1  0  0  0
 25 26  2  0  0  0
  5  1  1  0  0  0
  1  2  1  0  0  0
  2  3  2  0  0  0
  2 27  1  0  0  0
 27 40  1  0  0  0
 40 41  1  0  0  0
 41 42  2  0  0  0
 42 43  1  0  0  0
 43 44  2  0  0  0
 44 45  1  0  0  0
 45 46  2  0  0  0
 27 28  1  0  0  0
 28 29  1  0  0  0
 29 30  2  0  0  0
 29 32  1  0  0  0
 32 33  1  0  0  0
 33 34  1  0  0  0
 34 35  2  0  0  0
 35 36  1  0  0  0
 36 37  2  0  0  0
 37 38  1  0  0  0
 38 39  2  0  0  0
 10 11  1  0  0  0
 11 12  1  0  0  0
 11 13  1  0  0  0
 26 21  1  0  0  0
 46 41  1  0  0  0
 39 34  1  0  0  0
  6  9  1  0  0  0
  1  4  1  0  0  0
 28 31  1  0  0  0
 12 14  1  0  0  0
 13 15  1  0  0  0
M  END
> <minimizedAffinity>
23.49592

> <CNNscore>
0.4109146297

> <CNNaffinity>
6.1803293228

> <CNN_VS>
2.5395877361

> <CNNaffinity_variance>
0.9906352758

$$$$
[H]OB(O[H])[C@@]([H])(N([H])C(=O)[C@@]([H])(N([H])C(=O)[C@@]([H])(N([H])C(=O)OC([H])([H])c1c([H])c([H])c([H])c([H])c1[H])C([H])([H])c1c([H])c([H])c([H])c([H])c1[H])C([H])([H])c1c([H])c([H])c([H])c([H])c1[H])C([H])([H])C([H])(C([H])([H])[H])C([H])([H])[H]


 46 48  0  0  0  0  0  0  0  0999 V2000
   25.2028    7.2008   54.7395 N   0  0  0  0  0  0  0  0  0  0  0  0
   26.2105    8.0877   55.1114 C   0  0  0  0  0  0  0  0  0  0  0  0
   25.8186    9.0901   55.8507 O   0  0  0  0  0  0  0  0  0  0  0  0
   25.4281    6.3393   54.2056 H   0  0  0  0  0  0  0  0  0  0  0  0
   23.7727    7.4057   55.1193 C   0  0  0  0  0  0  0  0  0  0  0  0
   21.5739    7.0924   53.8472 N   0  0  0  0  0  0  0  0  0  0  0  0
   22.9431    6.8968   54.0232 C   0  0  0  0  0  0  0  0  0  0  0  0
   23.5371    6.1841   53.1264 O   0  0  0  0  0  0  0  0  0  0  0  0
   21.0544    7.6761   54.5740 H   0  0  0  0  0  0  0  0  0  0  0  0
   20.7500    6.5729   52.8077 C   0  0  0  0  0  0  0  0  0  0  0  0
   20.5232    7.6110   51.6062 B   0  0  0  0  0  0  0  0  0  0  0  0
   21.4180    7.3542   50.4346 O   0  0  0  0  0  0  0  0  0  0  0  0
   19.1217    7.8755   51.1948 O   0  0  0  0  0  0  0  0  0  0  0  0
   21.2074    8.0678   49.7920 H   0  0  0  0  0  0  0  0  0  0  0  0
   18.7811    7.0856   50.6964 H   0  0  0  0  0  0  0  0  0  0  0  0
   19.5594    5.8184   53.2138 C   0  0  0  0  0  0  0  0  0  0  0  0
   19.7921    3.5650   52.3760 C   0  0  0  0  0  0  0  0  0  0  0  0
   19.7061    4.4155   53.6638 C   0  0  0  0  0  0  0  0  0  0  0  0
   18.4746    3.8450   54.3747 C   0  0  0  0  0  0  0  0  0  0  0  0
   23.6884    8.8272   55.4986 C   0  0  0  0  0  0  0  0  0  0  0  0
   22.7302    9.6954   54.8276 C   0  0  0  0  0  0  0  0  0  0  0  0
   21.8190   10.4398   55.5384 C   0  0  0  0  0  0  0  0  0  0  0  0
   20.9635   11.2813   54.8944 C   0  0  0  0  0  0  0  0  0  0  0  0
   20.9817   11.4136   53.5198 C   0  0  0  0  0  0  0  0  0  0  0  0
   21.9043   10.6561   52.8357 C   0  0  0  0  0  0  0  0  0  0  0  0
   22.7840    9.7967   53.4473 C   0  0  0  0  0  0  0  0  0  0  0  0
   27.6236    8.0829   54.8233 C   0  0  0  0  0  0  0  0  0  0  0  0
   27.8830    8.7913   53.5831 N   0  0  0  0  0  0  0  0  0  0  0  0
   26.9922    8.8657   52.4961 C   0  0  0  0  0  0  0  0  0  0  0  0
   25.8863    8.3026   52.5603 O   0  0  0  0  0  0  0  0  0  0  0  0
   28.8345    9.2671   53.5634 H   0  0  0  0  0  0  0  0  0  0  0  0
   27.3843    9.5721   51.3777 O   0  0  0  0  0  0  0  0  0  0  0  0
   27.7756    8.9582   50.1802 C   0  0  0  0  0  0  0  0  0  0  0  0
   28.2078    9.9269   49.1372 C   0  0  0  0  0  0  0  0  0  0  0  0
   28.5696    9.5330   47.8784 C   0  0  0  0  0  0  0  0  0  0  0  0
   28.9577   10.4622   46.9566 C   0  0  0  0  0  0  0  0  0  0  0  0
   28.9744   11.7998   47.3272 C   0  0  0  0  0  0  0  0  0  0  0  0
   28.6097   12.1906   48.5923 C   0  0  0  0  0  0  0  0  0  0  0  0
   28.2197   11.2650   49.5227 C   0  0  0  0  0  0  0  0  0  0  0  0
   28.6792    8.2440   55.8136 C   0  0  0  0  0  0  0  0  0  0  0  0
   28.4534    9.2535   56.8911 C   0  0  0  0  0  0  0  0  0  0  0  0
   28.4591    8.8236   58.2282 C   0  0  0  0  0  0  0  0  0  0  0  0
   28.3023    9.7759   59.2016 C   0  0  0  0  0  0  0  0  0  0  0  0
   28.1455   11.0888   58.9267 C   0  0  0  0  0  0  0  0  0  0  0  0
   28.1413   11.5138   57.6126 C   0  0  0  0  0  0  0  0  0  0  0  0
   28.2967   10.5764   56.6063 C   0  0  0  0  0  0  0  0  0  0  0  0
 17 18  1  0  0  0
 18 19  1  0  0  0
 18 16  1  0  0  0
 16 10  1  0  0  0
 10  6  1  0  0  0
  6  7  1  0  0  0
  7  8  2  0  0  0
  7  5  1  0  0  0
  5 20  1  0  0  0
 20 21  1  0  0  0
 21 22  2  0  0  0
 22 23  1  0  0  0
 23 24  2  0  0  0
 24 25  1  0  0  0
 25 26  2  0  0  0
  5  1  1  0  0  0
  1  2  1  0  0  0
  2  3  2  0  0  0
  2 27  1  0  0  0
 27 40  1  0  0  0
 40 41  1  0  0  0
 41 42  2  0  0  0
 42 43  1  0  0  0
 43 44  2  0  0  0
 44 45  1  0  0  0
 45 46  2  0  0  0
 27 28  1  0  0  0
 28 29  1  0  0  0
 29 30  2  0  0  0
 29 32  1  0  0  0
 32 33  1  0  0  0
 33 34  1  0  0  0
 34 35  2  0  0  0
 35 36  1  0  0  0
 36 37  2  0  0  0
 37 38  1  0  0  0
 38 39  2  0  0  0
 10 11  1  0  0  0
 11 12  1  0  0  0
 11 13  1  0  0  0
 26 21  1  0  0  0
 46 41  1  0  0  0
 39 34  1  0  0  0
  6  9  1  0  0  0
  1  4  1  0  0  0
 28 31  1  0  0  0
 12 14  1  0  0  0
 13 15  1  0  0  0
M  END
> <minimizedAffinity>
23.82900

> <CNNscore>
0.4052389562

> <CNNaffinity>
6.3562574387

> <CNN_VS>
2.5758030415

> <CNNaffinity_variance>
0.6888386607

$$$$
[H]OB(O[H])[C@@]([H])(N([H])C(=O)[C@@]([H])(N([H])C(=O)[C@@]([H])(N([H])C(=O)OC([H])([H])c1c([H])c([H])c([H])c([H])c1[H])C([H])([H])c1c([H])c([H])c([H])c([H])c1[H])C([H])([H])c1c([H])c([H])c([H])c([H])c1[H])C([H])([H])C([H])(C([H])([H])[H])C([H])([H])[H]


 46 48  0  0  0  0  0  0  0  0999 V2000
   24.2048    9.8991   55.3210 N   0  0  0  0  0  0  0  0  0  0  0  0
   25.2113    8.9408   55.4161 C   0  0  0  0  0  0  0  0  0  0  0  0
   24.8322    7.7881   55.8984 O   0  0  0  0  0  0  0  0  0  0  0  0
   24.3957   10.8244   54.8904 H   0  0  0  0  0  0  0  0  0  0  0  0
   22.8064    9.6428   55.7793 C   0  0  0  0  0  0  0  0  0  0  0  0
   22.6851    7.6427   54.1869 N   0  0  0  0  0  0  0  0  0  0  0  0
   22.4633    8.2652   55.4146 C   0  0  0  0  0  0  0  0  0  0  0  0
   21.8869    7.5498   56.3206 O   0  0  0  0  0  0  0  0  0  0  0  0
   23.1584    8.2097   53.4167 H   0  0  0  0  0  0  0  0  0  0  0  0
   22.3233    6.3179   53.8081 C   0  0  0  0  0  0  0  0  0  0  0  0
   23.5027    5.2546   54.0335 B   0  0  0  0  0  0  0  0  0  0  0  0
   24.6182    5.4004   53.0468 O   0  0  0  0  0  0  0  0  0  0  0  0
   23.9999    5.0781   55.4209 O   0  0  0  0  0  0  0  0  0  0  0  0
   25.2500    4.6804   53.2682 H   0  0  0  0  0  0  0  0  0  0  0  0
   24.5461    5.8715   55.6672 H   0  0  0  0  0  0  0  0  0  0  0  0
   21.5737    6.1628   52.5568 C   0  0  0  0  0  0  0  0  0  0  0  0
   19.5211    7.1175   53.3988 C   0  0  0  0  0  0  0  0  0  0  0  0
   20.1128    5.9281   52.6087 C   0  0  0  0  0  0  0  0  0  0  0  0
   19.6944    4.7140   53.4445 C   0  0  0  0  0  0  0  0  0  0  0  0
   22.0224   10.7609   55.2253 C   0  0  0  0  0  0  0  0  0  0  0  0
   21.7660   10.8194   53.7924 C   0  0  0  0  0  0  0  0  0  0  0  0
   21.4220    9.6950   53.0804 C   0  0  0  0  0  0  0  0  0  0  0  0
   21.1401    9.7799   51.7507 C   0  0  0  0  0  0  0  0  0  0  0  0
   21.1899   10.9858   51.0794 C   0  0  0  0  0  0  0  0  0  0  0  0
   21.5370   12.0934   51.8182 C   0  0  0  0  0  0  0  0  0  0  0  0
   21.8282   12.0500   53.1598 C   0  0  0  0  0  0  0  0  0  0  0  0
   26.6082    9.0031   55.0631 C   0  0  0  0  0  0  0  0  0  0  0  0
   26.7781    8.7333   53.6468 N   0  0  0  0  0  0  0  0  0  0  0  0
   27.8592    9.1815   52.8652 C   0  0  0  0  0  0  0  0  0  0  0  0
   28.7630    9.8575   53.3854 O   0  0  0  0  0  0  0  0  0  0  0  0
   25.9914    8.1475   53.2345 H   0  0  0  0  0  0  0  0  0  0  0  0
   27.8783    8.8504   51.5260 O   0  0  0  0  0  0  0  0  0  0  0  0
   27.8483    9.8036   50.4991 C   0  0  0  0  0  0  0  0  0  0  0  0
   28.2725    9.2605   49.1807 C   0  0  0  0  0  0  0  0  0  0  0  0
   28.0917    9.9499   48.0134 C   0  0  0  0  0  0  0  0  0  0  0  0
   28.5001    9.4076   46.8291 C   0  0  0  0  0  0  0  0  0  0  0  0
   29.0962    8.1541   46.8421 C   0  0  0  0  0  0  0  0  0  0  0  0
   29.2761    7.4657   48.0169 C   0  0  0  0  0  0  0  0  0  0  0  0
   28.8690    8.0024   49.2088 C   0  0  0  0  0  0  0  0  0  0  0  0
   27.5602    9.9734   55.5858 C   0  0  0  0  0  0  0  0  0  0  0  0
   27.9488    9.8399   57.0218 C   0  0  0  0  0  0  0  0  0  0  0  0
   27.9509    8.5610   57.6025 C   0  0  0  0  0  0  0  0  0  0  0  0
   28.3617    8.4567   58.9061 C   0  0  0  0  0  0  0  0  0  0  0  0
   28.7574    9.5196   59.6392 C   0  0  0  0  0  0  0  0  0  0  0  0
   28.7575   10.7778   59.0695 C   0  0  0  0  0  0  0  0  0  0  0  0
   28.3476   10.9165   57.7550 C   0  0  0  0  0  0  0  0  0  0  0  0
 17 18  1  0  0  0
 18 19  1  0  0  0
 18 16  1  0  0  0
 16 10  1  0  0  0
 10  6  1  0  0  0
  6  7  1  0  0  0
  7  8  2  0  0  0
  7  5  1  0  0  0
  5 20  1  0  0  0
 20 21  1  0  0  0
 21 22  2  0  0  0
 22 23  1  0  0  0
 23 24  2  0  0  0
 24 25  1  0  0  0
 25 26  2  0  0  0
  5  1  1  0  0  0
  1  2  1  0  0  0
  2  3  2  0  0  0
  2 27  1  0  0  0
 27 40  1  0  0  0
 40 41  1  0  0  0
 41 42  2  0  0  0
 42 43  1  0  0  0
 43 44  2  0  0  0
 44 45  1  0  0  0
 45 46  2  0  0  0
 27 28  1  0  0  0
 28 29  1  0  0  0
 29 30  2  0  0  0
 29 32  1  0  0  0
 32 33  1  0  0  0
 33 34  1  0  0  0
 34 35  2  0  0  0
 35 36  1  0  0  0
 36 37  2  0  0  0
 37 38  1  0  0  0
 38 39  2  0  0  0
 10 11  1  0  0  0
 11 12  1  0  0  0
 11 13  1  0  0  0
 26 21  1  0  0  0
 46 41  1  0  0  0
 39 34  1  0  0  0
  6  9  1  0  0  0
  1  4  1  0  0  0
 28 31  1  0  0  0
 12 14  1  0  0  0
 13 15  1  0  0  0
M  END
> <minimizedAffinity>
21.62503

> <CNNscore>
0.3352253735

> <CNNaffinity>
6.1969838142

> <CNN_VS>
2.0773861408

> <CNNaffinity_variance>
0.9706360102

$$$$
[H]OB(O[H])[C@@]([H])(N([H])C(=O)[C@@]([H])(N([H])C(=O)[C@@]([H])(N([H])C(=O)OC([H])([H])c1c([H])c([H])c([H])c([H])c1[H])C([H])([H])c1c([H])c([H])c([H])c([H])c1[H])C([H])([H])c1c([H])c([H])c([H])c([H])c1[H])C([H])([H])C([H])(C([H])([H])[H])C([H])([H])[H]


 46 48  0  0  0  0  0  0  0  0999 V2000
   24.8126    9.4341   55.0683 N   0  0  0  0  0  0  0  0  0  0  0  0
   25.9153    9.1077   55.8545 C   0  0  0  0  0  0  0  0  0  0  0  0
   25.6960    9.1108   57.1416 O   0  0  0  0  0  0  0  0  0  0  0  0
   24.8726    9.3957   54.0325 H   0  0  0  0  0  0  0  0  0  0  0  0
   23.4900    9.8051   55.6552 C   0  0  0  0  0  0  0  0  0  0  0  0
   22.8570    7.4368   54.9194 N   0  0  0  0  0  0  0  0  0  0  0  0
   22.6481    8.6052   55.6510 C   0  0  0  0  0  0  0  0  0  0  0  0
   21.5952    8.6305   56.3964 O   0  0  0  0  0  0  0  0  0  0  0  0
   23.7187    7.3867   54.2920 H   0  0  0  0  0  0  0  0  0  0  0  0
   22.0276    6.2793   54.8780 C   0  0  0  0  0  0  0  0  0  0  0  0
   22.2750    5.2833   56.1106 B   0  0  0  0  0  0  0  0  0  0  0  0
   23.7155    4.9193   56.2884 O   0  0  0  0  0  0  0  0  0  0  0  0
   21.6185    5.6223   57.3980 O   0  0  0  0  0  0  0  0  0  0  0  0
   23.7276    4.2881   57.0421 H   0  0  0  0  0  0  0  0  0  0  0  0
   22.0970    6.3919   57.8070 H   0  0  0  0  0  0  0  0  0  0  0  0
   21.8545    5.6287   53.5747 C   0  0  0  0  0  0  0  0  0  0  0  0
   19.8223    6.9229   53.4042 C   0  0  0  0  0  0  0  0  0  0  0  0
   20.5191    5.6253   52.9354 C   0  0  0  0  0  0  0  0  0  0  0  0
   19.5780    4.5254   53.4375 C   0  0  0  0  0  0  0  0  0  0  0  0
   23.0671   10.9956   54.8966 C   0  0  0  0  0  0  0  0  0  0  0  0
   22.3338   10.8306   53.6486 C   0  0  0  0  0  0  0  0  0  0  0  0
   22.0040   11.9103   52.8644 C   0  0  0  0  0  0  0  0  0  0  0  0
   21.3600   11.7299   51.6780 C   0  0  0  0  0  0  0  0  0  0  0  0
   21.0197   10.4696   51.2274 C   0  0  0  0  0  0  0  0  0  0  0  0
   21.3628    9.4088   52.0337 C   0  0  0  0  0  0  0  0  0  0  0  0
   22.0122    9.5482   53.2359 C   0  0  0  0  0  0  0  0  0  0  0  0
   27.2648    8.7571   55.4858 C   0  0  0  0  0  0  0  0  0  0  0  0
   27.4963    9.0648   54.0861 N   0  0  0  0  0  0  0  0  0  0  0  0
   26.7446    8.5509   53.0130 C   0  0  0  0  0  0  0  0  0  0  0  0
   25.7983    7.7761   53.2330 O   0  0  0  0  0  0  0  0  0  0  0  0
   28.3083    9.7352   53.9332 H   0  0  0  0  0  0  0  0  0  0  0  0
   27.0906    8.9306   51.7325 O   0  0  0  0  0  0  0  0  0  0  0  0
   28.0935    9.8692   51.4547 C   0  0  0  0  0  0  0  0  0  0  0  0
   28.3113   10.0830   49.9988 C   0  0  0  0  0  0  0  0  0  0  0  0
   28.4902   11.3278   49.4612 C   0  0  0  0  0  0  0  0  0  0  0  0
   28.6877   11.4703   48.1180 C   0  0  0  0  0  0  0  0  0  0  0  0
   28.7022   10.3321   47.3236 C   0  0  0  0  0  0  0  0  0  0  0  0
   28.5226    9.0840   47.8680 C   0  0  0  0  0  0  0  0  0  0  0  0
   28.3235    8.9326   49.2141 C   0  0  0  0  0  0  0  0  0  0  0  0
   28.4389    8.9559   56.3241 C   0  0  0  0  0  0  0  0  0  0  0  0
   28.3314    9.9685   57.4168 C   0  0  0  0  0  0  0  0  0  0  0  0
   28.6171    9.5710   58.7333 C   0  0  0  0  0  0  0  0  0  0  0  0
   28.5628   10.5297   59.7116 C   0  0  0  0  0  0  0  0  0  0  0  0
   28.2505   11.8193   59.4601 C   0  0  0  0  0  0  0  0  0  0  0  0
   27.9708   12.2125   58.1660 C   0  0  0  0  0  0  0  0  0  0  0  0
   28.0165   11.2678   57.1556 C   0  0  0  0  0  0  0  0  0  0  0  0
 17 18  1  0  0  0
 18 19  1  0  0  0
 18 16  1  0  0  0
 16 10  1  0  0  0
 10  6  1  0  0  0
  6  7  1  0  0  0
  7  8  2  0  0  0
  7  5  1  0  0  0
  5 20  1  0  0  0
 20 21  1  0  0  0
 21 22  2  0  0  0
 22 23  1  0  0  0
 23 24  2  0  0  0
 24 25  1  0  0  0
 25 26  2  0  0  0
  5  1  1  0  0  0
  1  2  1  0  0  0
  2  3  2  0  0  0
  2 27  1  0  0  0
 27 40  1  0  0  0
 40 41  1  0  0  0
 41 42  2  0  0  0
 42 43  1  0  0  0
 43 44  2  0  0  0
 44 45  1  0  0  0
 45 46  2  0  0  0
 27 28  1  0  0  0
 28 29  1  0  0  0
 29 30  2  0  0  0
 29 32  1  0  0  0
 32 33  1  0  0  0
 33 34  1  0  0  0
 34 35  2  0  0  0
 35 36  1  0  0  0
 36 37  2  0  0  0
 37 38  1  0  0  0
 38 39  2  0  0  0
 10 11  1  0  0  0
 11 12  1  0  0  0
 11 13  1  0  0  0
 26 21  1  0  0  0
 46 41  1  0  0  0
 39 34  1  0  0  0
  6  9  1  0  0  0
  1  4  1  0  0  0
 28 31  1  0  0  0
 12 14  1  0  0  0
 13 15  1  0  0  0
M  END
> <minimizedAffinity>
22.58167

> <CNNscore>
0.3308902979

> <CNNaffinity>
6.1892194748

> <CNN_VS>
2.0479526520

> <CNNaffinity_variance>
1.2472114563

$$$$
[H]OC(=O)C([H])([H])[C@@]([H])(C(=O)C([H])([H])Oc1c([H])c([H])c([H])c([H])c1[H])N([H])C(=O)[C@@]([H])(N([H])C(=O)OC([H])([H])c1c([H])c([H])c([H])c([H])c1[H])C([H])(C([H])([H])[H])C([H])([H])[H]


 36 37  0  0  0  0  0  0  0  0999 V2000
   24.1606    9.7859   55.1635 C   0  0  0  0  0  0  0  0  0  0  0  0
   24.5632   10.1780   56.2823 O   0  0  0  0  0  0  0  0  0  0  0  0
   25.1096    9.2190   54.2727 N   0  0  0  0  0  0  0  0  0  0  0  0
   24.7975    8.8934   53.3437 H   0  0  0  0  0  0  0  0  0  0  0  0
   22.7521    9.8817   54.7236 C   0  0  0  0  0  0  0  0  0  0  0  0
   22.4516    8.9831   53.6363 N   0  0  0  0  0  0  0  0  0  0  0  0
   21.6664    9.3718   52.5126 C   0  0  0  0  0  0  0  0  0  0  0  0
   21.2082   10.5397   52.4405 O   0  0  0  0  0  0  0  0  0  0  0  0
   22.8162    8.0073   53.6575 H   0  0  0  0  0  0  0  0  0  0  0  0
   21.3730    8.5115   51.4692 O   0  0  0  0  0  0  0  0  0  0  0  0
   22.1547    7.3508   51.2388 C   0  0  0  0  0  0  0  0  0  0  0  0
   22.5722    6.7887   52.5317 C   0  0  0  0  0  0  0  0  0  0  0  0
   21.6433    6.2741   53.4148 C   0  0  0  0  0  0  0  0  0  0  0  0
   21.9758    5.7373   54.6339 C   0  0  0  0  0  0  0  0  0  0  0  0
   23.3069    5.7065   55.0038 C   0  0  0  0  0  0  0  0  0  0  0  0
   24.2602    6.2070   54.1561 C   0  0  0  0  0  0  0  0  0  0  0  0
   23.8987    6.7510   52.9150 C   0  0  0  0  0  0  0  0  0  0  0  0
   21.2194    8.3550   55.9865 C   0  0  0  0  0  0  0  0  0  0  0  0
   21.8086    9.7329   55.8776 C   0  0  0  0  0  0  0  0  0  0  0  0
   20.7291   10.7935   55.7136 C   0  0  0  0  0  0  0  0  0  0  0  0
   26.5201    9.0807   54.6226 C   0  0  0  0  0  0  0  0  0  0  0  0
   27.2403    8.3631   53.5551 C   0  0  0  0  0  0  0  0  0  0  0  0
   28.0543    7.4951   53.9449 O   0  0  0  0  0  0  0  0  0  0  0  0
   27.0714    8.5864   52.1092 C   0  0  0  0  0  0  0  0  0  0  0  0
   27.8876    9.5965   51.6368 O   0  0  0  0  0  0  0  0  0  0  0  0
   28.1524    9.8367   50.3026 C   0  0  0  0  0  0  0  0  0  0  0  0
   28.2803    8.7740   49.4491 C   0  0  0  0  0  0  0  0  0  0  0  0
   28.5446    8.9286   48.0994 C   0  0  0  0  0  0  0  0  0  0  0  0
   28.6881   10.2118   47.5786 C   0  0  0  0  0  0  0  0  0  0  0  0
   28.5590   11.2974   48.4430 C   0  0  0  0  0  0  0  0  0  0  0  0
   28.2957   11.0961   49.7784 C   0  0  0  0  0  0  0  0  0  0  0  0
   26.6901    8.3889   55.9338 C   0  0  0  0  0  0  0  0  0  0  0  0
   27.4976    9.1549   56.9013 C   0  0  0  0  0  0  0  0  0  0  0  0
   27.6796    8.8268   58.2273 O   0  0  0  0  0  0  0  0  0  0  0  0
   28.0686   10.2076   56.4492 O   0  0  0  0  0  0  0  0  0  0  0  0
   28.5607    8.4847   58.5551 H   0  0  0  0  0  0  0  0  0  0  0  0
 18 19  1  0  0  0
 19 20  1  0  0  0
 19  5  1  0  0  0
  5  6  1  0  0  0
  6  7  1  0  0  0
  7  8  2  0  0  0
  7 10  1  0  0  0
 10 11  1  0  0  0
 11 12  1  0  0  0
 12 13  2  0  0  0
 13 14  1  0  0  0
 14 15  2  0  0  0
 15 16  1  0  0  0
 16 17  2  0  0  0
  5  1  1  0  0  0
  1  2  2  0  0  0
  1  3  1  0  0  0
  3 21  1  0  0  0
 21 32  1  0  0  0
 32 33  1  0  0  0
 33 34  1  0  0  0
 33 35  2  0  0  0
 21 22  1  0  0  0
 22 23  2  0  0  0
 22 24  1  0  0  0
 24 25  1  0  0  0
 25 26  1  0  0  0
 26 27  2  0  0  0
 27 28  1  0  0  0
 28 29  2  0  0  0
 29 30  1  0  0  0
 30 31  2  0  0  0
 17 12  1  0  0  0
 31 26  1  0  0  0
  6  9  1  0  0  0
  3  4  1  0  0  0
 34 36  1  0  0  0
M  END
> <minimizedAffinity>
16.07825

> <CNNscore>
0.6840934753

> <CNNaffinity>
5.9778437614

> <CNN_VS>
4.0894041061

> <CNNaffinity_variance>
0.5225461721

$$$$
[H]OC(=O)C([H])([H])[C@@]([H])(C(=O)C([H])([H])Oc1c([H])c([H])c([H])c([H])c1[H])N([H])C(=O)[C@@]([H])(N([H])C(=O)OC([H])([H])c1c([H])c([H])c([H])c([H])c1[H])C([H])(C([H])([H])[H])C([H])([H])[H]


 36 37  0  0  0  0  0  0  0  0999 V2000
   24.6148    8.8691   55.1233 C   0  0  0  0  0  0  0  0  0  0  0  0
   24.8271    7.6961   54.7405 O   0  0  0  0  0  0  0  0  0  0  0  0
   25.6423    9.5335   55.8433 N   0  0  0  0  0  0  0  0  0  0  0  0
   25.4845   10.4999   56.1710 H   0  0  0  0  0  0  0  0  0  0  0  0
   23.3535    9.5963   54.8646 C   0  0  0  0  0  0  0  0  0  0  0  0
   22.8316    9.3425   53.5442 N   0  0  0  0  0  0  0  0  0  0  0  0
   21.9109   10.2188   52.9002 C   0  0  0  0  0  0  0  0  0  0  0  0
   21.5248   11.2628   53.4833 O   0  0  0  0  0  0  0  0  0  0  0  0
   23.1302    8.4890   53.0266 H   0  0  0  0  0  0  0  0  0  0  0  0
   21.4053    9.9769   51.6350 O   0  0  0  0  0  0  0  0  0  0  0  0
   20.6833    8.7893   51.3526 C   0  0  0  0  0  0  0  0  0  0  0  0
   21.2176    7.6951   52.1768 C   0  0  0  0  0  0  0  0  0  0  0  0
   20.4063    7.0115   53.0610 C   0  0  0  0  0  0  0  0  0  0  0  0
   20.8509    5.9828   53.8541 C   0  0  0  0  0  0  0  0  0  0  0  0
   22.1776    5.6060   53.7691 C   0  0  0  0  0  0  0  0  0  0  0  0
   23.0162    6.2589   52.9040 C   0  0  0  0  0  0  0  0  0  0  0  0
   22.5412    7.3073   52.1026 C   0  0  0  0  0  0  0  0  0  0  0  0
   21.9077    7.9099   56.0225 C   0  0  0  0  0  0  0  0  0  0  0  0
   22.3469    9.3447   55.9451 C   0  0  0  0  0  0  0  0  0  0  0  0
   21.1721   10.2782   55.6894 C   0  0  0  0  0  0  0  0  0  0  0  0
   26.9211    8.8958   56.1418 C   0  0  0  0  0  0  0  0  0  0  0  0
   27.4340    9.3693   57.4403 C   0  0  0  0  0  0  0  0  0  0  0  0
   27.1333    8.6610   58.4281 O   0  0  0  0  0  0  0  0  0  0  0  0
   28.2519   10.5761   57.6487 C   0  0  0  0  0  0  0  0  0  0  0  0
   29.0535   10.4779   58.7701 O   0  0  0  0  0  0  0  0  0  0  0  0
   29.1749   11.4540   59.7399 C   0  0  0  0  0  0  0  0  0  0  0  0
   28.3391   12.5375   59.7000 C   0  0  0  0  0  0  0  0  0  0  0  0
   28.3954   13.5579   60.6333 C   0  0  0  0  0  0  0  0  0  0  0  0
   29.3358   13.4897   61.6577 C   0  0  0  0  0  0  0  0  0  0  0  0
   30.1893   12.3889   61.7030 C   0  0  0  0  0  0  0  0  0  0  0  0
   30.0974   11.3974   60.7534 C   0  0  0  0  0  0  0  0  0  0  0  0
   27.9171    9.1403   55.0580 C   0  0  0  0  0  0  0  0  0  0  0  0
   27.6936    8.3131   53.8577 C   0  0  0  0  0  0  0  0  0  0  0  0
   26.8971    8.6571   52.7870 O   0  0  0  0  0  0  0  0  0  0  0  0
   28.3009    7.1866   53.8294 O   0  0  0  0  0  0  0  0  0  0  0  0
   27.3006    8.9014   51.9048 H   0  0  0  0  0  0  0  0  0  0  0  0
 18 19  1  0  0  0
 19 20  1  0  0  0
 19  5  1  0  0  0
  5  6  1  0  0  0
  6  7  1  0  0  0
  7  8  2  0  0  0
  7 10  1  0  0  0
 10 11  1  0  0  0
 11 12  1  0  0  0
 12 13  2  0  0  0
 13 14  1  0  0  0
 14 15  2  0  0  0
 15 16  1  0  0  0
 16 17  2  0  0  0
  5  1  1  0  0  0
  1  2  2  0  0  0
  1  3  1  0  0  0
  3 21  1  0  0  0
 21 32  1  0  0  0
 32 33  1  0  0  0
 33 34  1  0  0  0
 33 35  2  0  0  0
 21 22  1  0  0  0
 22 23  2  0  0  0
 22 24  1  0  0  0
 24 25  1  0  0  0
 25 26  1  0  0  0
 26 27  2  0  0  0
 27 28  1  0  0  0
 28 29  2  0  0  0
 29 30  1  0  0  0
 30 31  2  0  0  0
 17 12  1  0  0  0
 31 26  1  0  0  0
  6  9  1  0  0  0
  3  4  1  0  0  0
 34 36  1  0  0  0
M  END
> <minimizedAffinity>
2.31548

> <CNNscore>
0.5967862606

> <CNNaffinity>
6.0874958038

> <CNN_VS>
3.6329338551

> <CNNaffinity_variance>
0.3213570714

$$$$
[H]OC(=O)C([H])([H])[C@@]([H])(C(=O)C([H])([H])Oc1c([H])c([H])c([H])c([H])c1[H])N([H])C(=O)[C@@]([H])(N([H])C(=O)OC([H])([H])c1c([H])c([H])c([H])c([H])c1[H])C([H])(C([H])([H])[H])C([H])([H])[H]


 36 37  0  0  0  0  0  0  0  0999 V2000
   23.5379    8.4783   54.0887 C   0  0  0  0  0  0  0  0  0  0  0  0
   23.5442    8.9449   55.2505 O   0  0  0  0  0  0  0  0  0  0  0  0
   24.7773    8.3716   53.4046 N   0  0  0  0  0  0  0  0  0  0  0  0
   24.7921    7.9929   52.4440 H   0  0  0  0  0  0  0  0  0  0  0  0
   22.3104    8.0333   53.3947 C   0  0  0  0  0  0  0  0  0  0  0  0
   21.7360    6.8531   53.9925 N   0  0  0  0  0  0  0  0  0  0  0  0
   20.5831    6.2058   53.4611 C   0  0  0  0  0  0  0  0  0  0  0  0
   20.0276    6.6598   52.4295 O   0  0  0  0  0  0  0  0  0  0  0  0
   22.1698    6.4442   54.8470 H   0  0  0  0  0  0  0  0  0  0  0  0
   20.0271    5.0755   54.0338 O   0  0  0  0  0  0  0  0  0  0  0  0
   19.7092    3.9396   53.2464 C   0  0  0  0  0  0  0  0  0  0  0  0
   18.2847    3.6191   53.4192 C   0  0  0  0  0  0  0  0  0  0  0  0
   17.5297    4.2441   54.3922 C   0  0  0  0  0  0  0  0  0  0  0  0
   16.1974    3.9846   54.5981 C   0  0  0  0  0  0  0  0  0  0  0  0
   15.5720    3.0508   53.7940 C   0  0  0  0  0  0  0  0  0  0  0  0
   16.2856    2.4080   52.8165 C   0  0  0  0  0  0  0  0  0  0  0  0
   17.6460    2.6883   52.6231 C   0  0  0  0  0  0  0  0  0  0  0  0
   21.5160    9.9592   52.0039 C   0  0  0  0  0  0  0  0  0  0  0  0
   21.3247    9.1530   53.2572 C   0  0  0  0  0  0  0  0  0  0  0  0
   21.4503   10.0163   54.5046 C   0  0  0  0  0  0  0  0  0  0  0  0
   26.0396    8.7825   54.0118 C   0  0  0  0  0  0  0  0  0  0  0  0
   27.1684    8.4051   53.1419 C   0  0  0  0  0  0  0  0  0  0  0  0
   28.1655    7.9288   53.7307 O   0  0  0  0  0  0  0  0  0  0  0  0
   27.2019    8.5416   51.6759 C   0  0  0  0  0  0  0  0  0  0  0  0
   27.9279    9.6450   51.2694 O   0  0  0  0  0  0  0  0  0  0  0  0
   28.2190    9.9564   49.9555 C   0  0  0  0  0  0  0  0  0  0  0  0
   28.3768   11.2699   49.6036 C   0  0  0  0  0  0  0  0  0  0  0  0
   28.6696   11.6658   48.3101 C   0  0  0  0  0  0  0  0  0  0  0  0
   28.8113   10.6975   47.3197 C   0  0  0  0  0  0  0  0  0  0  0  0
   28.6515    9.3588   47.6724 C   0  0  0  0  0  0  0  0  0  0  0  0
   28.3608    9.0113   48.9716 C   0  0  0  0  0  0  0  0  0  0  0  0
   26.2033    8.1983   55.3751 C   0  0  0  0  0  0  0  0  0  0  0  0
   27.0708    9.0007   56.2574 C   0  0  0  0  0  0  0  0  0  0  0  0
   28.2667    9.5791   55.8912 O   0  0  0  0  0  0  0  0  0  0  0  0
   26.6578    9.1610   57.4584 O   0  0  0  0  0  0  0  0  0  0  0  0
   28.3451   10.5704   55.7815 H   0  0  0  0  0  0  0  0  0  0  0  0
 18 19  1  0  0  0
 19 20  1  0  0  0
 19  5  1  0  0  0
  5  6  1  0  0  0
  6  7  1  0  0  0
  7  8  2  0  0  0
  7 10  1  0  0  0
 10 11  1  0  0  0
 11 12  1  0  0  0
 12 13  2  0  0  0
 13 14  1  0  0  0
 14 15  2  0  0  0
 15 16  1  0  0  0
 16 17  2  0  0  0
  5  1  1  0  0  0
  1  2  2  0  0  0
  1  3  1  0  0  0
  3 21  1  0  0  0
 21 32  1  0  0  0
 32 33  1  0  0  0
 33 34  1  0  0  0
 33 35  2  0  0  0
 21 22  1  0  0  0
 22 23  2  0  0  0
 22 24  1  0  0  0
 24 25  1  0  0  0
 25 26  1  0  0  0
 26 27  2  0  0  0
 27 28  1  0  0  0
 28 29  2  0  0  0
 29 30  1  0  0  0
 30 31  2  0  0  0
 17 12  1  0  0  0
 31 26  1  0  0  0
  6  9  1  0  0  0
  3  4  1  0  0  0
 34 36  1  0  0  0
M  END
> <minimizedAffinity>
16.99620

> <CNNscore>
0.5644358993

> <CNNaffinity>
6.1945471764

> <CNN_VS>
3.4964249134

> <CNNaffinity_variance>
0.1099866852

$$$$
[H]OC(=O)C([H])([H])[C@@]([H])(C(=O)C([H])([H])Oc1c([H])c([H])c([H])c([H])c1[H])N([H])C(=O)[C@@]([H])(N([H])C(=O)OC([H])([H])c1c([H])c([H])c([H])c([H])c1[H])C([H])(C([H])([H])[H])C([H])([H])[H]


 36 37  0  0  0  0  0  0  0  0999 V2000
   23.7721    8.8916   53.5661 C   0  0  0  0  0  0  0  0  0  0  0  0
   24.4535    8.3031   52.6960 O   0  0  0  0  0  0  0  0  0  0  0  0
   24.3428    9.0707   54.8537 N   0  0  0  0  0  0  0  0  0  0  0  0
   23.7947    9.5502   55.5858 H   0  0  0  0  0  0  0  0  0  0  0  0
   22.4083    9.4086   53.3226 C   0  0  0  0  0  0  0  0  0  0  0  0
   21.4038    8.3774   53.4105 N   0  0  0  0  0  0  0  0  0  0  0  0
   20.6879    7.9029   52.2736 C   0  0  0  0  0  0  0  0  0  0  0  0
   20.9246    8.3836   51.1370 O   0  0  0  0  0  0  0  0  0  0  0  0
   21.1812    7.9514   54.3349 H   0  0  0  0  0  0  0  0  0  0  0  0
   19.7210    6.9163   52.3545 O   0  0  0  0  0  0  0  0  0  0  0  0
   19.9743    5.7009   53.0401 C   0  0  0  0  0  0  0  0  0  0  0  0
   21.2827    5.7886   53.7052 C   0  0  0  0  0  0  0  0  0  0  0  0
   22.4441    5.4643   53.0318 C   0  0  0  0  0  0  0  0  0  0  0  0
   23.6914    5.5280   53.6020 C   0  0  0  0  0  0  0  0  0  0  0  0
   23.7987    5.9369   54.9176 C   0  0  0  0  0  0  0  0  0  0  0  0
   22.6703    6.2678   55.6213 C   0  0  0  0  0  0  0  0  0  0  0  0
   21.4056    6.1958   55.0193 C   0  0  0  0  0  0  0  0  0  0  0  0
   21.2063   10.2549   55.3508 C   0  0  0  0  0  0  0  0  0  0  0  0
   22.1077   10.5881   54.1959 C   0  0  0  0  0  0  0  0  0  0  0  0
   21.5033   11.6635   53.3042 C   0  0  0  0  0  0  0  0  0  0  0  0
   25.6835    8.5968   55.1838 C   0  0  0  0  0  0  0  0  0  0  0  0
   26.2424    9.3876   56.2953 C   0  0  0  0  0  0  0  0  0  0  0  0
   25.5813   10.3998   56.6211 O   0  0  0  0  0  0  0  0  0  0  0  0
   27.4820    9.0775   57.0275 C   0  0  0  0  0  0  0  0  0  0  0  0
   28.1674   10.2174   57.4026 O   0  0  0  0  0  0  0  0  0  0  0  0
   28.6085   10.4860   58.6837 C   0  0  0  0  0  0  0  0  0  0  0  0
   28.5398   11.7696   59.1543 C   0  0  0  0  0  0  0  0  0  0  0  0
   28.9602   12.1220   60.4251 C   0  0  0  0  0  0  0  0  0  0  0  0
   29.4750   11.1393   61.2664 C   0  0  0  0  0  0  0  0  0  0  0  0
   29.5474    9.8308   60.7923 C   0  0  0  0  0  0  0  0  0  0  0  0
   29.1175    9.5263   59.5212 C   0  0  0  0  0  0  0  0  0  0  0  0
   26.5848    8.6428   53.9954 C   0  0  0  0  0  0  0  0  0  0  0  0
   27.9956    8.3581   54.3173 C   0  0  0  0  0  0  0  0  0  0  0  0
   28.9418    9.2984   54.6629 O   0  0  0  0  0  0  0  0  0  0  0  0
   28.3474    7.1285   54.2661 O   0  0  0  0  0  0  0  0  0  0  0  0
   29.2840    9.3615   55.6009 H   0  0  0  0  0  0  0  0  0  0  0  0
 18 19  1  0  0  0
 19 20  1  0  0  0
 19  5  1  0  0  0
  5  6  1  0  0  0
  6  7  1  0  0  0
  7  8  2  0  0  0
  7 10  1  0  0  0
 10 11  1  0  0  0
 11 12  1  0  0  0
 12 13  2  0  0  0
 13 14  1  0  0  0
 14 15  2  0  0  0
 15 16  1  0  0  0
 16 17  2  0  0  0
  5  1  1  0  0  0
  1  2  2  0  0  0
  1  3  1  0  0  0
  3 21  1  0  0  0
 21 32  1  0  0  0
 32 33  1  0  0  0
 33 34  1  0  0  0
 33 35  2  0  0  0
 21 22  1  0  0  0
 22 23  2  0  0  0
 22 24  1  0  0  0
 24 25  1  0  0  0
 25 26  1  0  0  0
 26 27  2  0  0  0
 27 28  1  0  0  0
 28 29  2  0  0  0
 29 30  1  0  0  0
 30 31  2  0  0  0
 17 12  1  0  0  0
 31 26  1  0  0  0
  6  9  1  0  0  0
  3  4  1  0  0  0
 34 36  1  0  0  0
M  END
> <minimizedAffinity>
4.79754

> <CNNscore>
0.5527570844

> <CNNaffinity>
6.1369757652

> <CNN_VS>
3.3922567368

> <CNNaffinity_variance>
0.2333865166

$$$$
[H]OC(=O)C([H])([H])[C@@]([H])(C(=O)C([H])([H])Oc1c([H])c([H])c([H])c([H])c1[H])N([H])C(=O)[C@@]([H])(N([H])C(=O)OC([H])([H])c1c([H])c([H])c([H])c([H])c1[H])C([H])(C([H])([H])[H])C([H])([H])[H]


 36 37  0  0  0  0  0  0  0  0999 V2000
   25.3277    8.3292   55.0302 C   0  0  0  0  0  0  0  0  0  0  0  0
   24.6550    9.2996   55.4469 O   0  0  0  0  0  0  0  0  0  0  0  0
   24.6375    7.2549   54.4098 N   0  0  0  0  0  0  0  0  0  0  0  0
   25.1744    6.4438   54.0633 H   0  0  0  0  0  0  0  0  0  0  0  0
   26.7991    8.2449   55.1499 C   0  0  0  0  0  0  0  0  0  0  0  0
   27.4692    8.4918   53.8969 N   0  0  0  0  0  0  0  0  0  0  0  0
   26.7717    8.5873   52.6580 C   0  0  0  0  0  0  0  0  0  0  0  0
   25.5222    8.4580   52.6294 O   0  0  0  0  0  0  0  0  0  0  0  0
   28.5045    8.6081   53.8795 H   0  0  0  0  0  0  0  0  0  0  0  0
   27.4116    8.8205   51.4534 O   0  0  0  0  0  0  0  0  0  0  0  0
   28.2599    9.9443   51.2834 C   0  0  0  0  0  0  0  0  0  0  0  0
   28.4368   10.1991   49.8461 C   0  0  0  0  0  0  0  0  0  0  0  0
   28.5519    9.1551   48.9493 C   0  0  0  0  0  0  0  0  0  0  0  0
   28.7182    9.3340   47.5983 C   0  0  0  0  0  0  0  0  0  0  0  0
   28.7742   10.6226   47.1022 C   0  0  0  0  0  0  0  0  0  0  0  0
   28.6639   11.6866   47.9587 C   0  0  0  0  0  0  0  0  0  0  0  0
   28.4945   11.4813   49.3357 C   0  0  0  0  0  0  0  0  0  0  0  0
   26.3775   10.2425   56.6013 C   0  0  0  0  0  0  0  0  0  0  0  0
   27.3069    9.1122   56.2608 C   0  0  0  0  0  0  0  0  0  0  0  0
   28.6789    9.6206   55.8411 C   0  0  0  0  0  0  0  0  0  0  0  0
   23.1870    7.2532   54.2448 C   0  0  0  0  0  0  0  0  0  0  0  0
   22.5383    6.7246   55.4585 C   0  0  0  0  0  0  0  0  0  0  0  0
   23.0856    5.7196   55.9668 O   0  0  0  0  0  0  0  0  0  0  0  0
   21.3327    7.2807   56.0958 C   0  0  0  0  0  0  0  0  0  0  0  0
   20.5075    7.9176   55.1885 O   0  0  0  0  0  0  0  0  0  0  0  0
   20.9014    8.9405   54.3480 C   0  0  0  0  0  0  0  0  0  0  0  0
   20.8495    8.7449   52.9941 C   0  0  0  0  0  0  0  0  0  0  0  0
   21.2254    9.7181   52.0847 C   0  0  0  0  0  0  0  0  0  0  0  0
   21.6759   10.9487   52.5550 C   0  0  0  0  0  0  0  0  0  0  0  0
   21.7310   11.1532   53.9324 C   0  0  0  0  0  0  0  0  0  0  0  0
   21.3469   10.1566   54.7999 C   0  0  0  0  0  0  0  0  0  0  0  0
   22.7772    6.4711   53.0419 C   0  0  0  0  0  0  0  0  0  0  0  0
   23.8032    5.5150   52.5856 C   0  0  0  0  0  0  0  0  0  0  0  0
   24.0601    5.1845   51.2728 O   0  0  0  0  0  0  0  0  0  0  0  0
   24.5019    4.9591   53.5029 O   0  0  0  0  0  0  0  0  0  0  0  0
   24.8956    5.4958   50.8192 H   0  0  0  0  0  0  0  0  0  0  0  0
 18 19  1  0  0  0
 19 20  1  0  0  0
 19  5  1  0  0  0
  5  6  1  0  0  0
  6  7  1  0  0  0
  7  8  2  0  0  0
  7 10  1  0  0  0
 10 11  1  0  0  0
 11 12  1  0  0  0
 12 13  2  0  0  0
 13 14  1  0  0  0
 14 15  2  0  0  0
 15 16  1  0  0  0
 16 17  2  0  0  0
  5  1  1  0  0  0
  1  2  2  0  0  0
  1  3  1  0  0  0
  3 21  1  0  0  0
 21 32  1  0  0  0
 32 33  1  0  0  0
 33 34  1  0  0  0
 33 35  2  0  0  0
 21 22  1  0  0  0
 22 23  2  0  0  0
 22 24  1  0  0  0
 24 25  1  0  0  0
 25 26  1  0  0  0
 26 27  2  0  0  0
 27 28  1  0  0  0
 28 29  2  0  0  0
 29 30  1  0  0  0
 30 31  2  0  0  0
 17 12  1  0  0  0
 31 26  1  0  0  0
  6  9  1  0  0  0
  3  4  1  0  0  0
 34 36  1  0  0  0
M  END
> <minimizedAffinity>
14.74015

> <CNNscore>
0.5523682833

> <CNNaffinity>
6.1761374474

> <CNN_VS>
3.4115023613

> <CNNaffinity_variance>
0.2457242012

$$$$
[H]OC(=O)C([H])([H])[C@@]([H])(C(=O)C([H])([H])Oc1c([H])c([H])c([H])c([H])c1[H])N([H])C(=O)[C@@]([H])(N([H])C(=O)OC([H])([H])c1c([H])c([H])c([H])c([H])c1[H])C([H])(C([H])([H])[H])C([H])([H])[H]


 36 37  0  0  0  0  0  0  0  0999 V2000
   24.8302    8.9780   54.0215 C   0  0  0  0  0  0  0  0  0  0  0  0
   24.4096    8.4727   52.9560 O   0  0  0  0  0  0  0  0  0  0  0  0
   23.9832    9.8851   54.7110 N   0  0  0  0  0  0  0  0  0  0  0  0
   24.3140   10.3153   55.5895 H   0  0  0  0  0  0  0  0  0  0  0  0
   26.1589    8.6793   54.5975 C   0  0  0  0  0  0  0  0  0  0  0  0
   26.3266    9.2386   55.9163 N   0  0  0  0  0  0  0  0  0  0  0  0
   27.6016    9.5948   56.4436 C   0  0  0  0  0  0  0  0  0  0  0  0
   28.6366    9.4278   55.7508 O   0  0  0  0  0  0  0  0  0  0  0  0
   25.4922    9.3955   56.5202 H   0  0  0  0  0  0  0  0  0  0  0  0
   27.7669   10.1283   57.7096 O   0  0  0  0  0  0  0  0  0  0  0  0
   28.4517    9.4079   58.7213 C   0  0  0  0  0  0  0  0  0  0  0  0
   29.0404   10.3606   59.6741 C   0  0  0  0  0  0  0  0  0  0  0  0
   28.6601   11.6883   59.6765 C   0  0  0  0  0  0  0  0  0  0  0  0
   29.1757   12.6207   60.5424 C   0  0  0  0  0  0  0  0  0  0  0  0
   30.1246   12.2175   61.4625 C   0  0  0  0  0  0  0  0  0  0  0  0
   30.5293   10.9087   61.4932 C   0  0  0  0  0  0  0  0  0  0  0  0
   29.9896    9.9723   60.5994 C   0  0  0  0  0  0  0  0  0  0  0  0
   27.7812    6.9007   53.9050 C   0  0  0  0  0  0  0  0  0  0  0  0
   26.4587    7.2124   54.5464 C   0  0  0  0  0  0  0  0  0  0  0  0
   25.3063    6.5449   53.8095 C   0  0  0  0  0  0  0  0  0  0  0  0
   22.6544   10.2364   54.2195 C   0  0  0  0  0  0  0  0  0  0  0  0
   21.6836   10.2277   55.3288 C   0  0  0  0  0  0  0  0  0  0  0  0
   20.8640   11.1743   55.3340 O   0  0  0  0  0  0  0  0  0  0  0  0
   21.6111    9.2138   56.3946 C   0  0  0  0  0  0  0  0  0  0  0  0
   22.1398    7.9998   55.9990 O   0  0  0  0  0  0  0  0  0  0  0  0
   21.6694    7.2415   54.9446 C   0  0  0  0  0  0  0  0  0  0  0  0
   20.4508    7.5452   54.3998 C   0  0  0  0  0  0  0  0  0  0  0  0
   19.9085    6.8356   53.3424 C   0  0  0  0  0  0  0  0  0  0  0  0
   20.6225    5.7685   52.8040 C   0  0  0  0  0  0  0  0  0  0  0  0
   21.8636    5.4548   53.3550 C   0  0  0  0  0  0  0  0  0  0  0  0
   22.3638    6.1882   54.4063 C   0  0  0  0  0  0  0  0  0  0  0  0
   22.2181    9.3185   53.1268 C   0  0  0  0  0  0  0  0  0  0  0  0
   21.4590    9.9959   52.0591 C   0  0  0  0  0  0  0  0  0  0  0  0
   20.6389    9.3732   51.1433 O   0  0  0  0  0  0  0  0  0  0  0  0
   21.5870   11.2680   51.9979 O   0  0  0  0  0  0  0  0  0  0  0  0
   19.6447    9.4715   51.1946 H   0  0  0  0  0  0  0  0  0  0  0  0
 18 19  1  0  0  0
 19 20  1  0  0  0
 19  5  1  0  0  0
  5  6  1  0  0  0
  6  7  1  0  0  0
  7  8  2  0  0  0
  7 10  1  0  0  0
 10 11  1  0  0  0
 11 12  1  0  0  0
 12 13  2  0  0  0
 13 14  1  0  0  0
 14 15  2  0  0  0
 15 16  1  0  0  0
 16 17  2  0  0  0
  5  1  1  0  0  0
  1  2  2  0  0  0
  1  3  1  0  0  0
  3 21  1  0  0  0
 21 32  1  0  0  0
 32 33  1  0  0  0
 33 34  1  0  0  0
 33 35  2  0  0  0
 21 22  1  0  0  0
 22 23  2  0  0  0
 22 24  1  0  0  0
 24 25  1  0  0  0
 25 26  1  0  0  0
 26 27  2  0  0  0
 27 28  1  0  0  0
 28 29  2  0  0  0
 29 30  1  0  0  0
 30 31  2  0  0  0
 17 12  1  0  0  0
 31 26  1  0  0  0
  6  9  1  0  0  0
  3  4  1  0  0  0
 34 36  1  0  0  0
M  END
> <minimizedAffinity>
8.46377

> <CNNscore>
0.5305104852

> <CNNaffinity>
5.8401012421

> <CNN_VS>
3.0982348919

> <CNNaffinity_variance>
0.5897200704

$$$$
[H]OC(=O)C([H])([H])[C@@]([H])(C(=O)C([H])([H])Oc1c([H])c([H])c([H])c([H])c1[H])N([H])C(=O)[C@@]([H])(N([H])C(=O)OC([H])([H])c1c([H])c([H])c([H])c([H])c1[H])C([H])(C([H])([H])[H])C([H])([H])[H]


 36 37  0  0  0  0  0  0  0  0999 V2000
   22.0776    8.6026   55.1644 C   0  0  0  0  0  0  0  0  0  0  0  0
   21.9516    7.7465   56.0693 O   0  0  0  0  0  0  0  0  0  0  0  0
   22.2934    8.1458   53.8376 N   0  0  0  0  0  0  0  0  0  0  0  0
   22.4038    8.8368   53.0782 H   0  0  0  0  0  0  0  0  0  0  0  0
   22.0129   10.0601   55.4052 C   0  0  0  0  0  0  0  0  0  0  0  0
   22.5170   10.8259   54.2920 N   0  0  0  0  0  0  0  0  0  0  0  0
   21.8100   10.9494   53.0610 C   0  0  0  0  0  0  0  0  0  0  0  0
   20.6991   10.3805   52.9152 O   0  0  0  0  0  0  0  0  0  0  0  0
   23.4332   11.3152   54.3749 H   0  0  0  0  0  0  0  0  0  0  0  0
   22.2921   11.6802   51.9895 O   0  0  0  0  0  0  0  0  0  0  0  0
   21.4219   12.1357   50.9663 C   0  0  0  0  0  0  0  0  0  0  0  0
   21.0866   13.5458   51.2138 C   0  0  0  0  0  0  0  0  0  0  0  0
   21.7341   14.5588   50.5342 C   0  0  0  0  0  0  0  0  0  0  0  0
   21.4619   15.8910   50.7246 C   0  0  0  0  0  0  0  0  0  0  0  0
   20.4910   16.2446   51.6421 C   0  0  0  0  0  0  0  0  0  0  0  0
   19.8248   15.2696   52.3374 C   0  0  0  0  0  0  0  0  0  0  0  0
   20.1185   13.9144   52.1274 C   0  0  0  0  0  0  0  0  0  0  0  0
   20.5814   10.9827   57.2422 C   0  0  0  0  0  0  0  0  0  0  0  0
   20.6389   10.4832   55.8263 C   0  0  0  0  0  0  0  0  0  0  0  0
   19.7178    9.2900   55.6143 C   0  0  0  0  0  0  0  0  0  0  0  0
   22.3681    6.7263   53.5054 C   0  0  0  0  0  0  0  0  0  0  0  0
   23.7576    6.2488   53.6259 C   0  0  0  0  0  0  0  0  0  0  0  0
   23.9122    5.2094   54.3068 O   0  0  0  0  0  0  0  0  0  0  0  0
   24.9375    6.8867   53.0176 C   0  0  0  0  0  0  0  0  0  0  0  0
   25.1647    8.1539   53.5198 O   0  0  0  0  0  0  0  0  0  0  0  0
   26.1990    8.4904   54.3713 C   0  0  0  0  0  0  0  0  0  0  0  0
   25.9034    8.9399   55.6301 C   0  0  0  0  0  0  0  0  0  0  0  0
   26.8801    9.2968   56.5434 C   0  0  0  0  0  0  0  0  0  0  0  0
   28.2199    9.1987   56.1774 C   0  0  0  0  0  0  0  0  0  0  0  0
   28.5265    8.7418   54.8970 C   0  0  0  0  0  0  0  0  0  0  0  0
   27.5221    8.3978   54.0217 C   0  0  0  0  0  0  0  0  0  0  0  0
   21.8328    6.4585   52.1385 C   0  0  0  0  0  0  0  0  0  0  0  0
   20.7565    7.3838   51.7379 C   0  0  0  0  0  0  0  0  0  0  0  0
   20.8125    8.2643   50.6794 O   0  0  0  0  0  0  0  0  0  0  0  0
   19.6907    7.3476   52.4460 O   0  0  0  0  0  0  0  0  0  0  0  0
   20.2729    8.1069   49.8518 H   0  0  0  0  0  0  0  0  0  0  0  0
 18 19  1  0  0  0
 19 20  1  0  0  0
 19  5  1  0  0  0
  5  6  1  0  0  0
  6  7  1  0  0  0
  7  8  2  0  0  0
  7 10  1  0  0  0
 10 11  1  0  0  0
 11 12  1  0  0  0
 12 13  2  0  0  0
 13 14  1  0  0  0
 14 15  2  0  0  0
 15 16  1  0  0  0
 16 17  2  0  0  0
  5  1  1  0  0  0
  1  2  2  0  0  0
  1  3  1  0  0  0
  3 21  1  0  0  0
 21 32  1  0  0  0
 32 33  1  0  0  0
 33 34  1  0  0  0
 33 35  2  0  0  0
 21 22  1  0  0  0
 22 23  2  0  0  0
 22 24  1  0  0  0
 24 25  1  0  0  0
 25 26  1  0  0  0
 26 27  2  0  0  0
 27 28  1  0  0  0
 28 29  2  0  0  0
 29 30  1  0  0  0
 30 31  2  0  0  0
 17 12  1  0  0  0
 31 26  1  0  0  0
  6  9  1  0  0  0
  3  4  1  0  0  0
 34 36  1  0  0  0
M  END
> <minimizedAffinity>
19.45611

> <CNNscore>
0.5255001187

> <CNNaffinity>
5.9093976021

> <CNN_VS>
3.1053891182

> <CNNaffinity_variance>
0.3302155435

$$$$
[H]OC(=O)C([H])([H])[C@@]([H])(C(=O)C([H])([H])Oc1c([H])c([H])c([H])c([H])c1[H])N([H])C(=O)[C@@]([H])(N([H])C(=O)OC([H])([H])c1c([H])c([H])c([H])c([H])c1[H])C([H])(C([H])([H])[H])C([H])([H])[H]


 36 37  0  0  0  0  0  0  0  0999 V2000
   25.3872    8.6514   53.5406 C   0  0  0  0  0  0  0  0  0  0  0  0
   24.6616    9.6712   53.5774 O   0  0  0  0  0  0  0  0  0  0  0  0
   24.7548    7.3847   53.4355 N   0  0  0  0  0  0  0  0  0  0  0  0
   25.3361    6.5317   53.4078 H   0  0  0  0  0  0  0  0  0  0  0  0
   26.8639    8.6980   53.6000 C   0  0  0  0  0  0  0  0  0  0  0  0
   27.3467    9.4714   54.7175 N   0  0  0  0  0  0  0  0  0  0  0  0
   27.1354    9.0802   56.0713 C   0  0  0  0  0  0  0  0  0  0  0  0
   26.5090    8.0218   56.3286 O   0  0  0  0  0  0  0  0  0  0  0  0
   27.8736   10.3536   54.5454 H   0  0  0  0  0  0  0  0  0  0  0  0
   27.5939    9.8214   57.1462 O   0  0  0  0  0  0  0  0  0  0  0  0
   27.4607    9.3406   58.4738 C   0  0  0  0  0  0  0  0  0  0  0  0
   28.6393    9.7487   59.2526 C   0  0  0  0  0  0  0  0  0  0  0  0
   28.9848   11.0805   59.3716 C   0  0  0  0  0  0  0  0  0  0  0  0
   30.0729   11.5183   60.0853 C   0  0  0  0  0  0  0  0  0  0  0  0
   30.8685   10.5840   60.7205 C   0  0  0  0  0  0  0  0  0  0  0  0
   30.5602    9.2520   60.6273 C   0  0  0  0  0  0  0  0  0  0  0  0
   29.4438    8.8263   59.8930 C   0  0  0  0  0  0  0  0  0  0  0  0
   26.5685    6.2724   54.1512 C   0  0  0  0  0  0  0  0  0  0  0  0
   27.4561    7.3231   53.5462 C   0  0  0  0  0  0  0  0  0  0  0  0
   28.8059    7.3887   54.2467 C   0  0  0  0  0  0  0  0  0  0  0  0
   23.3036    7.2423   53.3674 C   0  0  0  0  0  0  0  0  0  0  0  0
   22.8732    6.0560   54.1294 C   0  0  0  0  0  0  0  0  0  0  0  0
   22.4690    5.0916   53.4406 O   0  0  0  0  0  0  0  0  0  0  0  0
   22.8886    5.9294   55.5966 C   0  0  0  0  0  0  0  0  0  0  0  0
   22.1118    6.8918   56.2132 O   0  0  0  0  0  0  0  0  0  0  0  0
   21.9486    8.1849   55.7556 C   0  0  0  0  0  0  0  0  0  0  0  0
   20.9108    8.4632   54.9075 C   0  0  0  0  0  0  0  0  0  0  0  0
   20.6777    9.7314   54.4046 C   0  0  0  0  0  0  0  0  0  0  0  0
   21.5267   10.7728   54.7696 C   0  0  0  0  0  0  0  0  0  0  0  0
   22.5850   10.4950   55.6328 C   0  0  0  0  0  0  0  0  0  0  0  0
   22.7785    9.2185   56.1083 C   0  0  0  0  0  0  0  0  0  0  0  0
   22.8302    7.1645   51.9544 C   0  0  0  0  0  0  0  0  0  0  0  0
   21.6910    8.0558   51.6669 C   0  0  0  0  0  0  0  0  0  0  0  0
   21.7209    9.4326   51.7174 O   0  0  0  0  0  0  0  0  0  0  0  0
   20.5937    7.4806   51.3447 O   0  0  0  0  0  0  0  0  0  0  0  0
   21.6860    9.9778   50.8794 H   0  0  0  0  0  0  0  0  0  0  0  0
 18 19  1  0  0  0
 19 20  1  0  0  0
 19  5  1  0  0  0
  5  6  1  0  0  0
  6  7  1  0  0  0
  7  8  2  0  0  0
  7 10  1  0  0  0
 10 11  1  0  0  0
 11 12  1  0  0  0
 12 13  2  0  0  0
 13 14  1  0  0  0
 14 15  2  0  0  0
 15 16  1  0  0  0
 16 17  2  0  0  0
  5  1  1  0  0  0
  1  2  2  0  0  0
  1  3  1  0  0  0
  3 21  1  0  0  0
 21 32  1  0  0  0
 32 33  1  0  0  0
 33 34  1  0  0  0
 33 35  2  0  0  0
 21 22  1  0  0  0
 22 23  2  0  0  0
 22 24  1  0  0  0
 24 25  1  0  0  0
 25 26  1  0  0  0
 26 27  2  0  0  0
 27 28  1  0  0  0
 28 29  2  0  0  0
 29 30  1  0  0  0
 30 31  2  0  0  0
 17 12  1  0  0  0
 31 26  1  0  0  0
  6  9  1  0  0  0
  3  4  1  0  0  0
 34 36  1  0  0  0
M  END
> <minimizedAffinity>
12.94333

> <CNNscore>
0.5150578022

> <CNNaffinity>
5.9547038078

> <CNN_VS>
3.0670166016

> <CNNaffinity_variance>
0.3246045411

$$$$
[H]OC(=O)C([H])([H])[C@@]([H])(C(=O)C([H])([H])Oc1c([H])c([H])c([H])c([H])c1[H])N([H])C(=O)[C@@]([H])(N([H])C(=O)OC([H])([H])c1c([H])c([H])c([H])c([H])c1[H])C([H])(C([H])([H])[H])C([H])([H])[H]


 36 37  0  0  0  0  0  0  0  0999 V2000
   23.8516    8.8795   55.0857 C   0  0  0  0  0  0  0  0  0  0  0  0
   23.1606    9.3316   56.0269 O   0  0  0  0  0  0  0  0  0  0  0  0
   23.1983    8.1128   54.0853 N   0  0  0  0  0  0  0  0  0  0  0  0
   23.7519    7.7280   53.3032 H   0  0  0  0  0  0  0  0  0  0  0  0
   25.3081    9.1029   54.9623 C   0  0  0  0  0  0  0  0  0  0  0  0
   25.9221    9.4454   56.2215 N   0  0  0  0  0  0  0  0  0  0  0  0
   27.3347    9.5231   56.3918 C   0  0  0  0  0  0  0  0  0  0  0  0
   28.0979    9.2917   55.4208 O   0  0  0  0  0  0  0  0  0  0  0  0
   25.3231    9.6476   57.0497 H   0  0  0  0  0  0  0  0  0  0  0  0
   27.9276    9.8479   57.5992 O   0  0  0  0  0  0  0  0  0  0  0  0
   28.1546    8.8589   58.5900 C   0  0  0  0  0  0  0  0  0  0  0  0
   29.0858    9.3917   59.5956 C   0  0  0  0  0  0  0  0  0  0  0  0
   29.8254    8.5444   60.3971 C   0  0  0  0  0  0  0  0  0  0  0  0
   30.7088    8.9858   61.3509 C   0  0  0  0  0  0  0  0  0  0  0  0
   30.8721   10.3470   61.5239 C   0  0  0  0  0  0  0  0  0  0  0  0
   30.1569   11.2219   60.7486 C   0  0  0  0  0  0  0  0  0  0  0  0
   29.2596   10.7496   59.7798 C   0  0  0  0  0  0  0  0  0  0  0  0
   26.6215    8.3256   52.9760 C   0  0  0  0  0  0  0  0  0  0  0  0
   25.9813    7.9502   54.2824 C   0  0  0  0  0  0  0  0  0  0  0  0
   24.9325    6.8620   54.1013 C   0  0  0  0  0  0  0  0  0  0  0  0
   21.7639    7.8442   54.1230 C   0  0  0  0  0  0  0  0  0  0  0  0
   21.5129    6.4009   53.9588 C   0  0  0  0  0  0  0  0  0  0  0  0
   22.3703    5.6442   54.4688 O   0  0  0  0  0  0  0  0  0  0  0  0
   20.3591    5.8067   53.2625 C   0  0  0  0  0  0  0  0  0  0  0  0
   20.0036    4.5803   53.7910 O   0  0  0  0  0  0  0  0  0  0  0  0
   18.7706    3.9795   53.6279 C   0  0  0  0  0  0  0  0  0  0  0  0
   17.6973    4.4661   54.3245 C   0  0  0  0  0  0  0  0  0  0  0  0
   16.4293    3.9218   54.2173 C   0  0  0  0  0  0  0  0  0  0  0  0
   16.2263    2.8358   53.3700 C   0  0  0  0  0  0  0  0  0  0  0  0
   17.3156    2.3363   52.6586 C   0  0  0  0  0  0  0  0  0  0  0  0
   18.5589    2.9094   52.7963 C   0  0  0  0  0  0  0  0  0  0  0  0
   21.0358    8.6299   53.0842 C   0  0  0  0  0  0  0  0  0  0  0  0
   21.3907   10.0614   53.0748 C   0  0  0  0  0  0  0  0  0  0  0  0
   21.5112   10.8622   54.1897 O   0  0  0  0  0  0  0  0  0  0  0  0
   21.6010   10.5815   51.9242 O   0  0  0  0  0  0  0  0  0  0  0  0
   22.4082   11.1773   54.5007 H   0  0  0  0  0  0  0  0  0  0  0  0
 18 19  1  0  0  0
 19 20  1  0  0  0
 19  5  1  0  0  0
  5  6  1  0  0  0
  6  7  1  0  0  0
  7  8  2  0  0  0
  7 10  1  0  0  0
 10 11  1  0  0  0
 11 12  1  0  0  0
 12 13  2  0  0  0
 13 14  1  0  0  0
 14 15  2  0  0  0
 15 16  1  0  0  0
 16 17  2  0  0  0
  5  1  1  0  0  0
  1  2  2  0  0  0
  1  3  1  0  0  0
  3 21  1  0  0  0
 21 32  1  0  0  0
 32 33  1  0  0  0
 33 34  1  0  0  0
 33 35  2  0  0  0
 21 22  1  0  0  0
 22 23  2  0  0  0
 22 24  1  0  0  0
 24 25  1  0  0  0
 25 26  1  0  0  0
 26 27  2  0  0  0
 27 28  1  0  0  0
 28 29  2  0  0  0
 29 30  1  0  0  0
 30 31  2  0  0  0
 17 12  1  0  0  0
 31 26  1  0  0  0
  6  9  1  0  0  0
  3  4  1  0  0  0
 34 36  1  0  0  0
M  END
> <minimizedAffinity>
6.48328

> <CNNscore>
0.4881311059

> <CNNaffinity>
6.4343476295

> <CNN_VS>
3.1408052444

> <CNNaffinity_variance>
0.3678892255

$$$$
[H]c1c([H])c([H])c(-c2c([H])c([H])c([H])c([H])c2OC([H])(C2=NC([H])([H])C([H])([H])N2[H])C([H])([H])[H])c([H])c1[H]


 21 23  0  0  0  0  0  0  0  0999 V2000
   24.7803    8.2337   53.4834 C   0  0  0  0  0  0  0  0  0  0  0  0
   26.1131    7.9372   53.2297 C   0  0  0  0  0  0  0  0  0  0  0  0
   27.1350    8.1951   54.1249 C   0  0  0  0  0  0  0  0  0  0  0  0
   26.7701    8.7783   55.3218 C   0  0  0  0  0  0  0  0  0  0  0  0
   25.4517    9.0767   55.5841 C   0  0  0  0  0  0  0  0  0  0  0  0
   24.4267    8.8165   54.6830 C   0  0  0  0  0  0  0  0  0  0  0  0
   23.0545    9.1685   55.0556 C   0  0  0  0  0  0  0  0  0  0  0  0
   22.6093   10.4531   54.7207 C   0  0  0  0  0  0  0  0  0  0  0  0
   21.3561   10.9021   55.0077 C   0  0  0  0  0  0  0  0  0  0  0  0
   20.4795   10.0701   55.6536 C   0  0  0  0  0  0  0  0  0  0  0  0
   20.8897    8.7983   55.9963 C   0  0  0  0  0  0  0  0  0  0  0  0
   22.1772    8.3540   55.6949 C   0  0  0  0  0  0  0  0  0  0  0  0
   23.7877    7.9720   52.5909 O   0  0  0  0  0  0  0  0  0  0  0  0
   21.8491    8.7867   51.3788 C   0  0  0  0  0  0  0  0  0  0  0  0
   22.4302    8.2158   52.6555 C   0  0  0  0  0  0  0  0  0  0  0  0
   21.6504    6.9932   53.0689 C   0  0  0  0  0  0  0  0  0  0  0  0
   22.0939    5.8594   53.4687 N   0  0  0  0  0  0  0  0  0  0  0  0
   21.0523    4.9153   53.7823 C   0  0  0  0  0  0  0  0  0  0  0  0
   19.8490    5.4994   53.0776 C   0  0  0  0  0  0  0  0  0  0  0  0
   20.2116    6.9051   53.0763 N   0  0  0  0  0  0  0  0  0  0  0  0
   19.5990    7.7298   53.0797 H   0  0  0  0  0  0  0  0  0  0  0  0
 14 15  1  0  0  0
 15 13  1  0  0  0
 13  1  1  0  0  0
  1  2  2  0  0  0
  2  3  1  0  0  0
  3  4  2  0  0  0
  4  5  1  0  0  0
  5  6  2  0  0  0
  6  7  1  0  0  0
  7  8  2  0  0  0
  8  9  1  0  0  0
  9 10  2  0  0  0
 10 11  1  0  0  0
 11 12  2  0  0  0
 15 16  1  0  0  0
 16 17  2  0  0  0
 17 18  1  0  0  0
 18 19  1  0  0  0
 19 20  1  0  0  0
  6  1  1  0  0  0
 12  7  1  0  0  0
 20 16  1  0  0  0
 20 21  1  0  0  0
M  END
> <minimizedAffinity>
7.59300

> <CNNscore>
0.7279666662

> <CNNaffinity>
5.6247572899

> <CNN_VS>
4.0946359634

> <CNNaffinity_variance>
0.4467193186

$$$$
[H]c1c([H])c([H])c(-c2c([H])c([H])c([H])c([H])c2OC([H])(C2=NC([H])([H])C([H])([H])N2[H])C([H])([H])[H])c([H])c1[H]


 21 23  0  0  0  0  0  0  0  0999 V2000
   25.4900    8.1370   54.0314 C   0  0  0  0  0  0  0  0  0  0  0  0
   26.8680    7.9650   54.0482 C   0  0  0  0  0  0  0  0  0  0  0  0
   27.6907    8.4977   55.0237 C   0  0  0  0  0  0  0  0  0  0  0  0
   27.0716    9.2323   56.0151 C   0  0  0  0  0  0  0  0  0  0  0  0
   25.7061    9.4094   56.0085 C   0  0  0  0  0  0  0  0  0  0  0  0
   24.8815    8.8731   55.0272 C   0  0  0  0  0  0  0  0  0  0  0  0
   23.4392    9.1152   55.1091 C   0  0  0  0  0  0  0  0  0  0  0  0
   22.9444   10.2581   54.4692 C   0  0  0  0  0  0  0  0  0  0  0  0
   21.6248   10.5947   54.4677 C   0  0  0  0  0  0  0  0  0  0  0  0
   20.7284    9.7876   55.1180 C   0  0  0  0  0  0  0  0  0  0  0  0
   21.1864    8.6544   55.7576 C   0  0  0  0  0  0  0  0  0  0  0  0
   22.5416    8.3240   55.7495 C   0  0  0  0  0  0  0  0  0  0  0  0
   24.6960    7.6046   53.0638 O   0  0  0  0  0  0  0  0  0  0  0  0
   23.8092    5.8026   54.4266 C   0  0  0  0  0  0  0  0  0  0  0  0
   23.8225    6.5359   53.1017 C   0  0  0  0  0  0  0  0  0  0  0  0
   22.4179    6.9340   52.7247 C   0  0  0  0  0  0  0  0  0  0  0  0
   22.0347    7.8965   51.9705 N   0  0  0  0  0  0  0  0  0  0  0  0
   20.6036    7.9802   51.8314 C   0  0  0  0  0  0  0  0  0  0  0  0
   20.1058    7.1655   53.0036 C   0  0  0  0  0  0  0  0  0  0  0  0
   21.2273    6.2606   53.1797 N   0  0  0  0  0  0  0  0  0  0  0  0
   21.2323    5.3041   53.5549 H   0  0  0  0  0  0  0  0  0  0  0  0
 14 15  1  0  0  0
 15 13  1  0  0  0
 13  1  1  0  0  0
  1  2  2  0  0  0
  2  3  1  0  0  0
  3  4  2  0  0  0
  4  5  1  0  0  0
  5  6  2  0  0  0
  6  7  1  0  0  0
  7  8  2  0  0  0
  8  9  1  0  0  0
  9 10  2  0  0  0
 10 11  1  0  0  0
 11 12  2  0  0  0
 15 16  1  0  0  0
 16 17  2  0  0  0
 17 18  1  0  0  0
 18 19  1  0  0  0
 19 20  1  0  0  0
  6  1  1  0  0  0
 12  7  1  0  0  0
 20 16  1  0  0  0
 20 21  1  0  0  0
M  END
> <minimizedAffinity>
0.97937

> <CNNscore>
0.7251895070

> <CNNaffinity>
5.6472673416

> <CNN_VS>
4.0953388214

> <CNNaffinity_variance>
0.6590123773

$$$$
[H]c1c([H])c([H])c(-c2c([H])c([H])c([H])c([H])c2OC([H])(C2=NC([H])([H])C([H])([H])N2[H])C([H])([H])[H])c([H])c1[H]


 21 23  0  0  0  0  0  0  0  0999 V2000
   23.1699    8.2048   54.9378 C   0  0  0  0  0  0  0  0  0  0  0  0
   21.8218    8.5063   55.0803 C   0  0  0  0  0  0  0  0  0  0  0  0
   21.3572    9.7343   55.5142 C   0  0  0  0  0  0  0  0  0  0  0  0
   22.3150   10.6832   55.8110 C   0  0  0  0  0  0  0  0  0  0  0  0
   23.6545   10.3954   55.6734 C   0  0  0  0  0  0  0  0  0  0  0  0
   24.1189    9.1606   55.2372 C   0  0  0  0  0  0  0  0  0  0  0  0
   25.5641    8.9522   55.1208 C   0  0  0  0  0  0  0  0  0  0  0  0
   26.3576    9.3497   56.2038 C   0  0  0  0  0  0  0  0  0  0  0  0
   27.7119    9.2078   56.2225 C   0  0  0  0  0  0  0  0  0  0  0  0
   28.3409    8.6524   55.1389 C   0  0  0  0  0  0  0  0  0  0  0  0
   27.5851    8.2511   54.0569 C   0  0  0  0  0  0  0  0  0  0  0  0
   26.1985    8.4036   54.0540 C   0  0  0  0  0  0  0  0  0  0  0  0
   23.6088    6.9909   54.5086 O   0  0  0  0  0  0  0  0  0  0  0  0
   23.1406    4.7745   53.6373 C   0  0  0  0  0  0  0  0  0  0  0  0
   23.2821    6.2607   53.3832 C   0  0  0  0  0  0  0  0  0  0  0  0
   22.0406    6.7829   52.7053 C   0  0  0  0  0  0  0  0  0  0  0  0
   21.9436    7.6811   51.7965 N   0  0  0  0  0  0  0  0  0  0  0  0
   20.5877    7.9283   51.3780 C   0  0  0  0  0  0  0  0  0  0  0  0
   19.7764    7.3418   52.5110 C   0  0  0  0  0  0  0  0  0  0  0  0
   20.7018    6.3314   52.9909 N   0  0  0  0  0  0  0  0  0  0  0  0
   20.4982    5.4386   53.4567 H   0  0  0  0  0  0  0  0  0  0  0  0
 14 15  1  0  0  0
 15 13  1  0  0  0
 13  1  1  0  0  0
  1  2  2  0  0  0
  2  3  1  0  0  0
  3  4  2  0  0  0
  4  5  1  0  0  0
  5  6  2  0  0  0
  6  7  1  0  0  0
  7  8  2  0  0  0
  8  9  1  0  0  0
  9 10  2  0  0  0
 10 11  1  0  0  0
 11 12  2  0  0  0
 15 16  1  0  0  0
 16 17  2  0  0  0
 17 18  1  0  0  0
 18 19  1  0  0  0
 19 20  1  0  0  0
  6  1  1  0  0  0
 12  7  1  0  0  0
 20 16  1  0  0  0
 20 21  1  0  0  0
M  END
> <minimizedAffinity>
4.92688

> <CNNscore>
0.7233236432

> <CNNaffinity>
5.4158411026

> <CNN_VS>
3.9174058437

> <CNNaffinity_variance>
0.8079826236

$$$$
[H]c1c([H])c([H])c(-c2c([H])c([H])c([H])c([H])c2OC([H])(C2=NC([H])([H])C([H])([H])N2[H])C([H])([H])[H])c([H])c1[H]


 21 23  0  0  0  0  0  0  0  0999 V2000
   24.3603    9.2481   54.9762 C   0  0  0  0  0  0  0  0  0  0  0  0
   25.5590    9.1167   55.6651 C   0  0  0  0  0  0  0  0  0  0  0  0
   26.6639    8.4609   55.1540 C   0  0  0  0  0  0  0  0  0  0  0  0
   26.5281    7.9226   53.8900 C   0  0  0  0  0  0  0  0  0  0  0  0
   25.3444    8.0469   53.1977 C   0  0  0  0  0  0  0  0  0  0  0  0
   24.2355    8.7063   53.7134 C   0  0  0  0  0  0  0  0  0  0  0  0
   23.0215    8.7876   52.8979 C   0  0  0  0  0  0  0  0  0  0  0  0
   22.6097    7.6199   52.2442 C   0  0  0  0  0  0  0  0  0  0  0  0
   21.4981    7.5616   51.4597 C   0  0  0  0  0  0  0  0  0  0  0  0
   20.7378    8.6895   51.2928 C   0  0  0  0  0  0  0  0  0  0  0  0
   21.1186    9.8553   51.9245 C   0  0  0  0  0  0  0  0  0  0  0  0
   22.2603    9.8978   52.7249 C   0  0  0  0  0  0  0  0  0  0  0  0
   23.2836    9.8977   55.4947 O   0  0  0  0  0  0  0  0  0  0  0  0
   20.8897   10.2706   55.6413 C   0  0  0  0  0  0  0  0  0  0  0  0
   22.0883    9.4115   55.9861 C   0  0  0  0  0  0  0  0  0  0  0  0
   21.8343    7.9872   55.5612 C   0  0  0  0  0  0  0  0  0  0  0  0
   22.5462    6.9462   55.7880 N   0  0  0  0  0  0  0  0  0  0  0  0
   21.9930    5.7406   55.2264 C   0  0  0  0  0  0  0  0  0  0  0  0
   21.0153    6.2680   54.2010 C   0  0  0  0  0  0  0  0  0  0  0  0
   20.6943    7.5543   54.7926 N   0  0  0  0  0  0  0  0  0  0  0  0
   19.8298    8.1037   54.7131 H   0  0  0  0  0  0  0  0  0  0  0  0
 14 15  1  0  0  0
 15 13  1  0  0  0
 13  1  1  0  0  0
  1  2  2  0  0  0
  2  3  1  0  0  0
  3  4  2  0  0  0
  4  5  1  0  0  0
  5  6  2  0  0  0
  6  7  1  0  0  0
  7  8  2  0  0  0
  8  9  1  0  0  0
  9 10  2  0  0  0
 10 11  1  0  0  0
 11 12  2  0  0  0
 15 16  1  0  0  0
 16 17  2  0  0  0
 17 18  1  0  0  0
 18 19  1  0  0  0
 19 20  1  0  0  0
  6  1  1  0  0  0
 12  7  1  0  0  0
 20 16  1  0  0  0
 20 21  1  0  0  0
M  END
> <minimizedAffinity>
5.13292

> <CNNscore>
0.6531941295

> <CNNaffinity>
5.4599895477

> <CNN_VS>
3.5664331913

> <CNNaffinity_variance>
0.4455374777

$$$$
[H]c1c([H])c([H])c(-c2c([H])c([H])c([H])c([H])c2OC([H])(C2=NC([H])([H])C([H])([H])N2[H])C([H])([H])[H])c([H])c1[H]


 21 23  0  0  0  0  0  0  0  0999 V2000
   21.9525    9.4919   53.9927 C   0  0  0  0  0  0  0  0  0  0  0  0
   20.7923   10.1017   54.4517 C   0  0  0  0  0  0  0  0  0  0  0  0
   20.6665   10.6460   55.7166 C   0  0  0  0  0  0  0  0  0  0  0  0
   21.7744   10.5586   56.5356 C   0  0  0  0  0  0  0  0  0  0  0  0
   22.9300    9.9562   56.0911 C   0  0  0  0  0  0  0  0  0  0  0  0
   23.0540    9.4100   54.8196 C   0  0  0  0  0  0  0  0  0  0  0  0
   24.3265    8.7925   54.4388 C   0  0  0  0  0  0  0  0  0  0  0  0
   25.4330    9.0488   55.2576 C   0  0  0  0  0  0  0  0  0  0  0  0
   26.6700    8.5330   55.0158 C   0  0  0  0  0  0  0  0  0  0  0  0
   26.8556    7.7246   53.9249 C   0  0  0  0  0  0  0  0  0  0  0  0
   25.7837    7.4540   53.0998 C   0  0  0  0  0  0  0  0  0  0  0  0
   24.5230    7.9905   53.3618 C   0  0  0  0  0  0  0  0  0  0  0  0
   22.0585    8.9624   52.7442 O   0  0  0  0  0  0  0  0  0  0  0  0
   21.5877    7.9875   50.5719 C   0  0  0  0  0  0  0  0  0  0  0  0
   21.1773    8.1881   52.0158 C   0  0  0  0  0  0  0  0  0  0  0  0
   20.9226    6.8510   52.6644 C   0  0  0  0  0  0  0  0  0  0  0  0
   19.8095    6.2339   52.8138 N   0  0  0  0  0  0  0  0  0  0  0  0
   19.9431    4.9663   53.4847 C   0  0  0  0  0  0  0  0  0  0  0  0
   21.2962    5.0811   54.1492 C   0  0  0  0  0  0  0  0  0  0  0  0
   21.9436    6.0183   53.2492 N   0  0  0  0  0  0  0  0  0  0  0  0
   22.9423    6.1171   53.0293 H   0  0  0  0  0  0  0  0  0  0  0  0
 14 15  1  0  0  0
 15 13  1  0  0  0
 13  1  1  0  0  0
  1  2  2  0  0  0
  2  3  1  0  0  0
  3  4  2  0  0  0
  4  5  1  0  0  0
  5  6  2  0  0  0
  6  7  1  0  0  0
  7  8  2  0  0  0
  8  9  1  0  0  0
  9 10  2  0  0  0
 10 11  1  0  0  0
 11 12  2  0  0  0
 15 16  1  0  0  0
 16 17  2  0  0  0
 17 18  1  0  0  0
 18 19  1  0  0  0
 19 20  1  0  0  0
  6  1  1  0  0  0
 12  7  1  0  0  0
 20 16  1  0  0  0
 20 21  1  0  0  0
M  END
> <minimizedAffinity>
12.78267

> <CNNscore>
0.6527475119

> <CNNaffinity>
5.6646609306

> <CNN_VS>
3.6975932121

> <CNNaffinity_variance>
0.4767016768

$$$$
[H]c1c([H])c([H])c(-c2c([H])c([H])c([H])c([H])c2OC([H])(C2=NC([H])([H])C([H])([H])N2[H])C([H])([H])[H])c([H])c1[H]


 21 23  0  0  0  0  0  0  0  0999 V2000
   23.0259    7.6375   53.0810 C   0  0  0  0  0  0  0  0  0  0  0  0
   21.8736    6.8814   52.9107 C   0  0  0  0  0  0  0  0  0  0  0  0
   21.7090    5.6137   53.4381 C   0  0  0  0  0  0  0  0  0  0  0  0
   22.7682    5.1089   54.1654 C   0  0  0  0  0  0  0  0  0  0  0  0
   23.9156    5.8497   54.3408 C   0  0  0  0  0  0  0  0  0  0  0  0
   24.0786    7.1234   53.8099 C   0  0  0  0  0  0  0  0  0  0  0  0
   25.3365    7.8329   54.0542 C   0  0  0  0  0  0  0  0  0  0  0  0
   25.5697    8.2936   55.3557 C   0  0  0  0  0  0  0  0  0  0  0  0
   26.6997    8.9637   55.7140 C   0  0  0  0  0  0  0  0  0  0  0  0
   27.6616    9.2057   54.7684 C   0  0  0  0  0  0  0  0  0  0  0  0
   27.4600    8.7637   53.4773 C   0  0  0  0  0  0  0  0  0  0  0  0
   26.2965    8.0786   53.1269 C   0  0  0  0  0  0  0  0  0  0  0  0
   23.1699    8.8838   52.5555 O   0  0  0  0  0  0  0  0  0  0  0  0
   21.4196   10.2212   51.5364 C   0  0  0  0  0  0  0  0  0  0  0  0
   22.3851   10.0125   52.6843 C   0  0  0  0  0  0  0  0  0  0  0  0
   21.6359   10.0398   53.9925 C   0  0  0  0  0  0  0  0  0  0  0  0
   21.6988   10.9089   54.9320 N   0  0  0  0  0  0  0  0  0  0  0  0
   20.8344   10.6124   56.0453 C   0  0  0  0  0  0  0  0  0  0  0  0
   20.5320    9.1438   55.8515 C   0  0  0  0  0  0  0  0  0  0  0  0
   20.6862    9.0396   54.4117 N   0  0  0  0  0  0  0  0  0  0  0  0
   20.2287    8.3916   53.7587 H   0  0  0  0  0  0  0  0  0  0  0  0
 14 15  1  0  0  0
 15 13  1  0  0  0
 13  1  1  0  0  0
  1  2  2  0  0  0
  2  3  1  0  0  0
  3  4  2  0  0  0
  4  5  1  0  0  0
  5  6  2  0  0  0
  6  7  1  0  0  0
  7  8  2  0  0  0
  8  9  1  0  0  0
  9 10  2  0  0  0
 10 11  1  0  0  0
 11 12  2  0  0  0
 15 16  1  0  0  0
 16 17  2  0  0  0
 17 18  1  0  0  0
 18 19  1  0  0  0
 19 20  1  0  0  0
  6  1  1  0  0  0
 12  7  1  0  0  0
 20 16  1  0  0  0
 20 21  1  0  0  0
M  END
> <minimizedAffinity>
6.20050

> <CNNscore>
0.6496515870

> <CNNaffinity>
5.2632551193

> <CNN_VS>
3.4192819595

> <CNNaffinity_variance>
0.2807691693

$$$$
[H]c1c([H])c([H])c(-c2c([H])c([H])c([H])c([H])c2OC([H])(C2=NC([H])([H])C([H])([H])N2[H])C([H])([H])[H])c([H])c1[H]


 21 23  0  0  0  0  0  0  0  0999 V2000
   24.7378    7.3152   54.3982 C   0  0  0  0  0  0  0  0  0  0  0  0
   26.0032    7.1966   54.9579 C   0  0  0  0  0  0  0  0  0  0  0  0
   27.1096    7.8836   54.4932 C   0  0  0  0  0  0  0  0  0  0  0  0
   26.9041    8.7211   53.4151 C   0  0  0  0  0  0  0  0  0  0  0  0
   25.6538    8.8466   52.8521 C   0  0  0  0  0  0  0  0  0  0  0  0
   24.5436    8.1552   53.3209 C   0  0  0  0  0  0  0  0  0  0  0  0
   23.2544    8.3582   52.6559 C   0  0  0  0  0  0  0  0  0  0  0  0
   22.6051    9.5789   52.8767 C   0  0  0  0  0  0  0  0  0  0  0  0
   21.4047    9.8928   52.3153 C   0  0  0  0  0  0  0  0  0  0  0  0
   20.7921    8.9822   51.4946 C   0  0  0  0  0  0  0  0  0  0  0  0
   21.4080    7.7707   51.2582 C   0  0  0  0  0  0  0  0  0  0  0  0
   22.6378    7.4650   51.8412 C   0  0  0  0  0  0  0  0  0  0  0  0
   23.6602    6.6319   54.8694 O   0  0  0  0  0  0  0  0  0  0  0  0
   22.4539    8.5783   55.6739 C   0  0  0  0  0  0  0  0  0  0  0  0
   22.4860    7.0825   55.4394 C   0  0  0  0  0  0  0  0  0  0  0  0
   21.2715    6.6635   54.6502 C   0  0  0  0  0  0  0  0  0  0  0  0
   21.0615    5.5616   54.0308 N   0  0  0  0  0  0  0  0  0  0  0  0
   19.7782    5.5064   53.3792 C   0  0  0  0  0  0  0  0  0  0  0  0
   19.3750    6.9619   53.3119 C   0  0  0  0  0  0  0  0  0  0  0  0
   20.0996    7.4805   54.4581 N   0  0  0  0  0  0  0  0  0  0  0  0
   19.8680    8.2800   55.0603 H   0  0  0  0  0  0  0  0  0  0  0  0
 14 15  1  0  0  0
 15 13  1  0  0  0
 13  1  1  0  0  0
  1  2  2  0  0  0
  2  3  1  0  0  0
  3  4  2  0  0  0
  4  5  1  0  0  0
  5  6  2  0  0  0
  6  7  1  0  0  0
  7  8  2  0  0  0
  8  9  1  0  0  0
  9 10  2  0  0  0
 10 11  1  0  0  0
 11 12  2  0  0  0
 15 16  1  0  0  0
 16 17  2  0  0  0
 17 18  1  0  0  0
 18 19  1  0  0  0
 19 20  1  0  0  0
  6  1  1  0  0  0
 12  7  1  0  0  0
 20 16  1  0  0  0
 20 21  1  0  0  0
M  END
> <minimizedAffinity>
8.91648

> <CNNscore>
0.6333201528

> <CNNaffinity>
5.5019273758

> <CNN_VS>
3.4844815731

> <CNNaffinity_variance>
0.4775980413

$$$$
[H]c1c([H])c([H])c(-c2c([H])c([H])c([H])c([H])c2OC([H])(C2=NC([H])([H])C([H])([H])N2[H])C([H])([H])[H])c([H])c1[H]


 21 23  0  0  0  0  0  0  0  0999 V2000
   25.6554    8.9316   55.6664 C   0  0  0  0  0  0  0  0  0  0  0  0
   26.8105    9.5142   56.1713 C   0  0  0  0  0  0  0  0  0  0  0  0
   28.0605    9.3427   55.6055 C   0  0  0  0  0  0  0  0  0  0  0  0
   28.1214    8.5437   54.4814 C   0  0  0  0  0  0  0  0  0  0  0  0
   26.9826    7.9610   53.9720 C   0  0  0  0  0  0  0  0  0  0  0  0
   25.7275    8.1348   54.5423 C   0  0  0  0  0  0  0  0  0  0  0  0
   24.5752    7.4747   53.9244 C   0  0  0  0  0  0  0  0  0  0  0  0
   24.0743    6.3324   54.5607 C   0  0  0  0  0  0  0  0  0  0  0  0
   23.0067    5.6296   54.0908 C   0  0  0  0  0  0  0  0  0  0  0  0
   22.3839    6.0472   52.9438 C   0  0  0  0  0  0  0  0  0  0  0  0
   22.8549    7.1697   52.2947 C   0  0  0  0  0  0  0  0  0  0  0  0
   23.9498    7.8782   52.7896 C   0  0  0  0  0  0  0  0  0  0  0  0
   24.4333    9.1122   56.2358 O   0  0  0  0  0  0  0  0  0  0  0  0
   24.0110   11.3271   55.3376 C   0  0  0  0  0  0  0  0  0  0  0  0
   23.4809   10.0914   56.0342 C   0  0  0  0  0  0  0  0  0  0  0  0
   22.2732    9.5690   55.2979 C   0  0  0  0  0  0  0  0  0  0  0  0
   21.6096    8.4939   55.5117 N   0  0  0  0  0  0  0  0  0  0  0  0
   20.5046    8.3132   54.6056 C   0  0  0  0  0  0  0  0  0  0  0  0
   20.8477    9.2498   53.4695 C   0  0  0  0  0  0  0  0  0  0  0  0
   21.6476   10.2308   54.1805 N   0  0  0  0  0  0  0  0  0  0  0  0
   21.7815   11.2279   53.9722 H   0  0  0  0  0  0  0  0  0  0  0  0
 14 15  1  0  0  0
 15 13  1  0  0  0
 13  1  1  0  0  0
  1  2  2  0  0  0
  2  3  1  0  0  0
  3  4  2  0  0  0
  4  5  1  0  0  0
  5  6  2  0  0  0
  6  7  1  0  0  0
  7  8  2  0  0  0
  8  9  1  0  0  0
  9 10  2  0  0  0
 10 11  1  0  0  0
 11 12  2  0  0  0
 15 16  1  0  0  0
 16 17  2  0  0  0
 17 18  1  0  0  0
 18 19  1  0  0  0
 19 20  1  0  0  0
  6  1  1  0  0  0
 12  7  1  0  0  0
 20 16  1  0  0  0
 20 21  1  0  0  0
M  END
> <minimizedAffinity>
6.82421

> <CNNscore>
0.5480942130

> <CNNaffinity>
5.5019254684

> <CNN_VS>
3.0155735016

> <CNNaffinity_variance>
0.1666235328

$$$$
[H]c1c([H])c([H])c(-c2c([H])c([H])c([H])c([H])c2OC([H])(C2=NC([H])([H])C([H])([H])N2[H])C([H])([H])[H])c([H])c1[H]


 21 23  0  0  0  0  0  0  0  0999 V2000
   25.4776    8.0520   53.9802 C   0  0  0  0  0  0  0  0  0  0  0  0
   26.8196    7.7104   54.0852 C   0  0  0  0  0  0  0  0  0  0  0  0
   27.6829    8.2848   55.0001 C   0  0  0  0  0  0  0  0  0  0  0  0
   27.1442    9.2436   55.8345 C   0  0  0  0  0  0  0  0  0  0  0  0
   25.8151    9.5903   55.7393 C   0  0  0  0  0  0  0  0  0  0  0  0
   24.9495    9.0116   54.8192 C   0  0  0  0  0  0  0  0  0  0  0  0
   23.5508    9.4461   54.7975 C   0  0  0  0  0  0  0  0  0  0  0  0
   22.9341    9.5573   53.5454 C   0  0  0  0  0  0  0  0  0  0  0  0
   21.6388    9.9474   53.3886 C   0  0  0  0  0  0  0  0  0  0  0  0
   20.8924   10.2483   54.4978 C   0  0  0  0  0  0  0  0  0  0  0  0
   21.4729   10.1479   55.7451 C   0  0  0  0  0  0  0  0  0  0  0  0
   22.8013    9.7467   55.8882 C   0  0  0  0  0  0  0  0  0  0  0  0
   24.6425    7.4755   53.0744 O   0  0  0  0  0  0  0  0  0  0  0  0
   22.8927    6.1143   52.0865 C   0  0  0  0  0  0  0  0  0  0  0  0
   23.3397    7.0362   53.2017 C   0  0  0  0  0  0  0  0  0  0  0  0
   23.0863    6.3825   54.5366 C   0  0  0  0  0  0  0  0  0  0  0  0
   23.7387    5.4338   55.0990 N   0  0  0  0  0  0  0  0  0  0  0  0
   23.2090    5.0582   56.3847 C   0  0  0  0  0  0  0  0  0  0  0  0
   21.8122    5.6357   56.3520 C   0  0  0  0  0  0  0  0  0  0  0  0
   22.0143    6.7400   55.4315 N   0  0  0  0  0  0  0  0  0  0  0  0
   21.5153    7.6365   55.3794 H   0  0  0  0  0  0  0  0  0  0  0  0
 14 15  1  0  0  0
 15 13  1  0  0  0
 13  1  1  0  0  0
  1  2  2  0  0  0
  2  3  1  0  0  0
  3  4  2  0  0  0
  4  5  1  0  0  0
  5  6  2  0  0  0
  6  7  1  0  0  0
  7  8  2  0  0  0
  8  9  1  0  0  0
  9 10  2  0  0  0
 10 11  1  0  0  0
 11 12  2  0  0  0
 15 16  1  0  0  0
 16 17  2  0  0  0
 17 18  1  0  0  0
 18 19  1  0  0  0
 19 20  1  0  0  0
  6  1  1  0  0  0
 12  7  1  0  0  0
 20 16  1  0  0  0
 20 21  1  0  0  0
M  END
> <minimizedAffinity>
8.68643

> <CNNscore>
0.5420336127

> <CNNaffinity>
5.1866874695

> <CNN_VS>
2.8113589287

> <CNNaffinity_variance>
0.4908545613

$$$$
[H]/C(=C(/[H])c1nc2c([H])c([H])c([H])c([H])c2n1[H])c1c([H])c(C(F)(F)F)nc2c([H])c([H])c([H])c([H])c12


 26 29  0  0  0  0  0  0  0  0999 V2000
   25.3115    8.1246   54.2568 C   0  0  0  0  0  0  0  0  0  0  0  0
   24.4943    7.0431   53.9300 C   0  0  0  0  0  0  0  0  0  0  0  0
   23.1607    7.1077   54.0742 C   0  0  0  0  0  0  0  0  0  0  0  0
   22.5885    8.3155   54.5695 C   0  0  0  0  0  0  0  0  0  0  0  0
   21.2026    8.4321   54.6966 C   0  0  0  0  0  0  0  0  0  0  0  0
   20.6272    9.6308   55.1398 C   0  0  0  0  0  0  0  0  0  0  0  0
   21.4644   10.7002   55.4539 C   0  0  0  0  0  0  0  0  0  0  0  0
   22.8151   10.5746   55.3305 C   0  0  0  0  0  0  0  0  0  0  0  0
   23.3780    9.3699   54.8828 C   0  0  0  0  0  0  0  0  0  0  0  0
   24.7252    9.2412   54.7107 N   0  0  0  0  0  0  0  0  0  0  0  0
   27.2234    6.7344   54.1860 F   0  0  0  0  0  0  0  0  0  0  0  0
   26.8063    8.0429   54.1139 C   0  0  0  0  0  0  0  0  0  0  0  0
   27.2082    8.6799   52.9794 F   0  0  0  0  0  0  0  0  0  0  0  0
   27.3812    8.6909   55.1865 F   0  0  0  0  0  0  0  0  0  0  0  0
   22.1501    6.1016   53.7076 C   0  0  0  0  0  0  0  0  0  0  0  0
   20.9004    6.3505   54.0110 C   0  0  0  0  0  0  0  0  0  0  0  0
   19.8495    5.4056   53.6897 C   0  0  0  0  0  0  0  0  0  0  0  0
   18.5576    5.4773   54.0440 N   0  0  0  0  0  0  0  0  0  0  0  0
   17.9054    4.3596   53.6690 C   0  0  0  0  0  0  0  0  0  0  0  0
   16.5832    3.9369   53.8481 C   0  0  0  0  0  0  0  0  0  0  0  0
   16.1615    2.7070   53.4143 C   0  0  0  0  0  0  0  0  0  0  0  0
   17.0561    1.8892   52.7904 C   0  0  0  0  0  0  0  0  0  0  0  0
   18.3789    2.3102   52.6070 C   0  0  0  0  0  0  0  0  0  0  0  0
   18.7961    3.5575   53.0535 C   0  0  0  0  0  0  0  0  0  0  0  0
   19.9745    4.2063   53.0762 N   0  0  0  0  0  0  0  0  0  0  0  0
   20.8519    3.8381   52.6928 H   0  0  0  0  0  0  0  0  0  0  0  0
 11 12  1  0  0  0
 12 13  1  0  0  0
 12 14  1  0  0  0
 12  1  1  0  0  0
  1  2  2  0  0  0
  2  3  1  0  0  0
  3 15  1  0  0  0
 15 16  2  0  0  0
 16 17  1  0  0  0
 17 18  2  0  0  0
 18 19  1  0  0  0
 19 20  2  0  0  0
 20 21  1  0  0  0
 21 22  2  0  0  0
 22 23  1  0  0  0
 23 24  2  0  0  0
 24 25  1  0  0  0
  3  4  2  0  0  0
  4  5  1  0  0  0
  5  6  2  0  0  0
  6  7  1  0  0  0
  7  8  2  0  0  0
  8  9  1  0  0  0
  9 10  2  0  0  0
 10  1  1  0  0  0
 25 17  1  0  0  0
  9  4  1  0  0  0
 24 19  1  0  0  0
 25 26  1  0  0  0
M  END
> <minimizedAffinity>
19.74840

> <CNNscore>
0.5927822590

> <CNNaffinity>
6.4627594948

> <CNN_VS>
3.8310091496

> <CNNaffinity_variance>
0.3057600856

$$$$
[H]/C(=C(/[H])c1nc2c([H])c([H])c([H])c([H])c2n1[H])c1c([H])c(C(F)(F)F)nc2c([H])c([H])c([H])c([H])c12


 26 29  0  0  0  0  0  0  0  0999 V2000
   24.7008    7.9492   53.9636 C   0  0  0  0  0  0  0  0  0  0  0  0
   23.8688    6.8400   54.1111 C   0  0  0  0  0  0  0  0  0  0  0  0
   22.6018    6.8541   53.6660 C   0  0  0  0  0  0  0  0  0  0  0  0
   22.1180    8.0345   53.0303 C   0  0  0  0  0  0  0  0  0  0  0  0
   20.8180    8.0719   52.5212 C   0  0  0  0  0  0  0  0  0  0  0  0
   20.3477    9.2115   51.8545 C   0  0  0  0  0  0  0  0  0  0  0  0
   21.2003   10.3052   51.7134 C   0  0  0  0  0  0  0  0  0  0  0  0
   22.4649   10.2599   52.2174 C   0  0  0  0  0  0  0  0  0  0  0  0
   22.9243    9.1117   52.8801 C   0  0  0  0  0  0  0  0  0  0  0  0
   24.2021    9.0323   53.3514 N   0  0  0  0  0  0  0  0  0  0  0  0
   26.2343    8.7845   55.5583 F   0  0  0  0  0  0  0  0  0  0  0  0
   26.1128    7.9385   54.4809 C   0  0  0  0  0  0  0  0  0  0  0  0
   26.5103    6.6628   54.7438 F   0  0  0  0  0  0  0  0  0  0  0  0
   26.9389    8.4428   53.4991 F   0  0  0  0  0  0  0  0  0  0  0  0
   21.6189    5.7579   53.6662 C   0  0  0  0  0  0  0  0  0  0  0  0
   20.3494    6.0739   53.5993 C   0  0  0  0  0  0  0  0  0  0  0  0
   19.3222    5.0516   53.6023 C   0  0  0  0  0  0  0  0  0  0  0  0
   19.3344    3.8870   52.9366 N   0  0  0  0  0  0  0  0  0  0  0  0
   18.1568    3.2495   53.0846 C   0  0  0  0  0  0  0  0  0  0  0  0
   17.6637    2.0497   52.5586 C   0  0  0  0  0  0  0  0  0  0  0  0
   16.3851    1.6287   52.8167 C   0  0  0  0  0  0  0  0  0  0  0  0
   15.5879    2.3997   53.6096 C   0  0  0  0  0  0  0  0  0  0  0  0
   16.0791    3.5990   54.1399 C   0  0  0  0  0  0  0  0  0  0  0  0
   17.3755    4.0175   53.8690 C   0  0  0  0  0  0  0  0  0  0  0  0
   18.0973    5.1113   54.1737 N   0  0  0  0  0  0  0  0  0  0  0  0
   17.7619    5.8911   54.7496 H   0  0  0  0  0  0  0  0  0  0  0  0
 11 12  1  0  0  0
 12 13  1  0  0  0
 12 14  1  0  0  0
 12  1  1  0  0  0
  1  2  2  0  0  0
  2  3  1  0  0  0
  3 15  1  0  0  0
 15 16  2  0  0  0
 16 17  1  0  0  0
 17 18  2  0  0  0
 18 19  1  0  0  0
 19 20  2  0  0  0
 20 21  1  0  0  0
 21 22  2  0  0  0
 22 23  1  0  0  0
 23 24  2  0  0  0
 24 25  1  0  0  0
  3  4  2  0  0  0
  4  5  1  0  0  0
  5  6  2  0  0  0
  6  7  1  0  0  0
  7  8  2  0  0  0
  8  9  1  0  0  0
  9 10  2  0  0  0
 10  1  1  0  0  0
 25 17  1  0  0  0
  9  4  1  0  0  0
 24 19  1  0  0  0
 25 26  1  0  0  0
M  END
> <minimizedAffinity>
22.14469

> <CNNscore>
0.5521404147

> <CNNaffinity>
6.3646678925

> <CNN_VS>
3.5141904354

> <CNNaffinity_variance>
0.3416207135

$$$$
[H]/C(=C(/[H])c1nc2c([H])c([H])c([H])c([H])c2n1[H])c1c([H])c(C(F)(F)F)nc2c([H])c([H])c([H])c([H])c12


 26 29  0  0  0  0  0  0  0  0999 V2000
   21.9316   10.3668   52.5376 C   0  0  0  0  0  0  0  0  0  0  0  0
   20.9331    9.4158   52.3308 C   0  0  0  0  0  0  0  0  0  0  0  0
   21.1361    8.1185   52.6124 C   0  0  0  0  0  0  0  0  0  0  0  0
   22.4029    7.7269   53.1353 C   0  0  0  0  0  0  0  0  0  0  0  0
   22.6370    6.3927   53.4754 C   0  0  0  0  0  0  0  0  0  0  0  0
   23.8633    6.0050   54.0323 C   0  0  0  0  0  0  0  0  0  0  0  0
   24.8435    6.9751   54.2359 C   0  0  0  0  0  0  0  0  0  0  0  0
   24.6066    8.2729   53.8968 C   0  0  0  0  0  0  0  0  0  0  0  0
   23.3733    8.6480   53.3428 C   0  0  0  0  0  0  0  0  0  0  0  0
   23.1027    9.9502   53.0390 N   0  0  0  0  0  0  0  0  0  0  0  0
   21.4569   11.9630   50.8584 F   0  0  0  0  0  0  0  0  0  0  0  0
   21.7091   11.8158   52.2023 C   0  0  0  0  0  0  0  0  0  0  0  0
   20.7375   12.3415   52.9986 F   0  0  0  0  0  0  0  0  0  0  0  0
   22.8770   12.5041   52.4534 F   0  0  0  0  0  0  0  0  0  0  0  0
   20.1784    7.0031   52.5322 C   0  0  0  0  0  0  0  0  0  0  0  0
   19.9025    6.3526   53.6351 C   0  0  0  0  0  0  0  0  0  0  0  0
   18.9757    5.2384   53.6353 C   0  0  0  0  0  0  0  0  0  0  0  0
   19.1306    4.0538   53.0251 N   0  0  0  0  0  0  0  0  0  0  0  0
   18.0109    3.3142   53.1450 C   0  0  0  0  0  0  0  0  0  0  0  0
   17.6594    2.0524   52.6514 C   0  0  0  0  0  0  0  0  0  0  0  0
   16.4135    1.5231   52.8663 C   0  0  0  0  0  0  0  0  0  0  0  0
   15.5078    2.2470   53.5833 C   0  0  0  0  0  0  0  0  0  0  0  0
   15.8572    3.5082   54.0812 C   0  0  0  0  0  0  0  0  0  0  0  0
   17.1217    4.0363   53.8545 C   0  0  0  0  0  0  0  0  0  0  0  0
   17.7222    5.2052   54.1433 N   0  0  0  0  0  0  0  0  0  0  0  0
   17.2862    5.9728   54.6659 H   0  0  0  0  0  0  0  0  0  0  0  0
 11 12  1  0  0  0
 12 13  1  0  0  0
 12 14  1  0  0  0
 12  1  1  0  0  0
  1  2  2  0  0  0
  2  3  1  0  0  0
  3 15  1  0  0  0
 15 16  2  0  0  0
 16 17  1  0  0  0
 17 18  2  0  0  0
 18 19  1  0  0  0
 19 20  2  0  0  0
 20 21  1  0  0  0
 21 22  2  0  0  0
 22 23  1  0  0  0
 23 24  2  0  0  0
 24 25  1  0  0  0
  3  4  2  0  0  0
  4  5  1  0  0  0
  5  6  2  0  0  0
  6  7  1  0  0  0
  7  8  2  0  0  0
  8  9  1  0  0  0
  9 10  2  0  0  0
 10  1  1  0  0  0
 25 17  1  0  0  0
  9  4  1  0  0  0
 24 19  1  0  0  0
 25 26  1  0  0  0
M  END
> <minimizedAffinity>
24.54320

> <CNNscore>
0.5265835524

> <CNNaffinity>
6.3350138664

> <CNN_VS>
3.3359141350

> <CNNaffinity_variance>
0.2991999984

$$$$
[H]/C(=C(/[H])c1nc2c([H])c([H])c([H])c([H])c2n1[H])c1c([H])c(C(F)(F)F)nc2c([H])c([H])c([H])c([H])c12


 26 29  0  0  0  0  0  0  0  0999 V2000
   21.5840    9.0651   52.4148 C   0  0  0  0  0  0  0  0  0  0  0  0
   22.4189    9.4329   53.4693 C   0  0  0  0  0  0  0  0  0  0  0  0
   22.8719    8.5256   54.3498 C   0  0  0  0  0  0  0  0  0  0  0  0
   22.4828    7.1645   54.1838 C   0  0  0  0  0  0  0  0  0  0  0  0
   22.9651    6.1877   55.0577 C   0  0  0  0  0  0  0  0  0  0  0  0
   22.6248    4.8403   54.8763 C   0  0  0  0  0  0  0  0  0  0  0  0
   21.7944    4.4963   53.8109 C   0  0  0  0  0  0  0  0  0  0  0  0
   21.3259    5.4573   52.9669 C   0  0  0  0  0  0  0  0  0  0  0  0
   21.6767    6.8022   53.1580 C   0  0  0  0  0  0  0  0  0  0  0  0
   21.2533    7.7716   52.2964 N   0  0  0  0  0  0  0  0  0  0  0  0
   21.9107   10.2010   50.3665 F   0  0  0  0  0  0  0  0  0  0  0  0
   21.0614   10.0859   51.4420 C   0  0  0  0  0  0  0  0  0  0  0  0
   19.7784    9.7926   51.0927 F   0  0  0  0  0  0  0  0  0  0  0  0
   21.0574   11.3163   52.0640 F   0  0  0  0  0  0  0  0  0  0  0  0
   23.8145    8.7217   55.4636 C   0  0  0  0  0  0  0  0  0  0  0  0
   24.9202    9.3807   55.2212 C   0  0  0  0  0  0  0  0  0  0  0  0
   25.9006    9.6077   56.2641 C   0  0  0  0  0  0  0  0  0  0  0  0
   26.3472   10.7897   56.7147 N   0  0  0  0  0  0  0  0  0  0  0  0
   27.3433   10.6072   57.6033 C   0  0  0  0  0  0  0  0  0  0  0  0
   28.1543   11.5063   58.3055 C   0  0  0  0  0  0  0  0  0  0  0  0
   29.1586   11.0691   59.1293 C   0  0  0  0  0  0  0  0  0  0  0  0
   29.3583    9.7274   59.2654 C   0  0  0  0  0  0  0  0  0  0  0  0
   28.5468    8.8252   58.5667 C   0  0  0  0  0  0  0  0  0  0  0  0
   27.5340    9.2796   57.7320 C   0  0  0  0  0  0  0  0  0  0  0  0
   26.6508    8.6851   56.9093 N   0  0  0  0  0  0  0  0  0  0  0  0
   26.5652    7.6712   56.7780 H   0  0  0  0  0  0  0  0  0  0  0  0
 11 12  1  0  0  0
 12 13  1  0  0  0
 12 14  1  0  0  0
 12  1  1  0  0  0
  1  2  2  0  0  0
  2  3  1  0  0  0
  3 15  1  0  0  0
 15 16  2  0  0  0
 16 17  1  0  0  0
 17 18  2  0  0  0
 18 19  1  0  0  0
 19 20  2  0  0  0
 20 21  1  0  0  0
 21 22  2  0  0  0
 22 23  1  0  0  0
 23 24  2  0  0  0
 24 25  1  0  0  0
  3  4  2  0  0  0
  4  5  1  0  0  0
  5  6  2  0  0  0
  6  7  1  0  0  0
  7  8  2  0  0  0
  8  9  1  0  0  0
  9 10  2  0  0  0
 10  1  1  0  0  0
 25 17  1  0  0  0
  9  4  1  0  0  0
 24 19  1  0  0  0
 25 26  1  0  0  0
M  END
> <minimizedAffinity>
26.38514

> <CNNscore>
0.4457254708

> <CNNaffinity>
5.8582634926

> <CNN_VS>
2.6111772060

> <CNNaffinity_variance>
0.4262078404

$$$$
[H]/C(=C(/[H])c1nc2c([H])c([H])c([H])c([H])c2n1[H])c1c([H])c(C(F)(F)F)nc2c([H])c([H])c([H])c([H])c12


 26 29  0  0  0  0  0  0  0  0999 V2000
   27.8755    9.4679   51.6971 C   0  0  0  0  0  0  0  0  0  0  0  0
   26.7064    8.7232   51.8482 C   0  0  0  0  0  0  0  0  0  0  0  0
   26.2637    8.3581   53.0624 C   0  0  0  0  0  0  0  0  0  0  0  0
   27.0163    8.7525   54.2068 C   0  0  0  0  0  0  0  0  0  0  0  0
   26.5660    8.4234   55.4873 C   0  0  0  0  0  0  0  0  0  0  0  0
   27.2745    8.8450   56.6207 C   0  0  0  0  0  0  0  0  0  0  0  0
   28.4366    9.5943   56.4444 C   0  0  0  0  0  0  0  0  0  0  0  0
   28.8694    9.9062   55.1911 C   0  0  0  0  0  0  0  0  0  0  0  0
   28.1490    9.4804   54.0649 C   0  0  0  0  0  0  0  0  0  0  0  0
   28.5432    9.8216   52.8042 N   0  0  0  0  0  0  0  0  0  0  0  0
   29.2889   10.8854   50.4378 F   0  0  0  0  0  0  0  0  0  0  0  0
   28.3803    9.8581   50.3354 C   0  0  0  0  0  0  0  0  0  0  0  0
   28.8649    8.7671   49.6803 F   0  0  0  0  0  0  0  0  0  0  0  0
   27.3206   10.3517   49.6043 F   0  0  0  0  0  0  0  0  0  0  0  0
   25.0216    7.6476   53.4089 C   0  0  0  0  0  0  0  0  0  0  0  0
   23.9125    8.0358   52.8301 C   0  0  0  0  0  0  0  0  0  0  0  0
   22.6486    7.3908   53.1251 C   0  0  0  0  0  0  0  0  0  0  0  0
   22.4361    6.0848   53.3461 N   0  0  0  0  0  0  0  0  0  0  0  0
   21.1172    5.8377   53.4669 C   0  0  0  0  0  0  0  0  0  0  0  0
   20.3948    4.6531   53.6514 C   0  0  0  0  0  0  0  0  0  0  0  0
   19.0247    4.6506   53.6899 C   0  0  0  0  0  0  0  0  0  0  0  0
   18.3623    5.8340   53.5513 C   0  0  0  0  0  0  0  0  0  0  0  0
   19.0820    7.0213   53.3696 C   0  0  0  0  0  0  0  0  0  0  0  0
   20.4703    7.0117   53.3289 C   0  0  0  0  0  0  0  0  0  0  0  0
   21.4150    7.9463   53.1191 N   0  0  0  0  0  0  0  0  0  0  0  0
   21.2269    8.9426   52.9628 H   0  0  0  0  0  0  0  0  0  0  0  0
 11 12  1  0  0  0
 12 13  1  0  0  0
 12 14  1  0  0  0
 12  1  1  0  0  0
  1  2  2  0  0  0
  2  3  1  0  0  0
  3 15  1  0  0  0
 15 16  2  0  0  0
 16 17  1  0  0  0
 17 18  2  0  0  0
 18 19  1  0  0  0
 19 20  2  0  0  0
 20 21  1  0  0  0
 21 22  2  0  0  0
 22 23  1  0  0  0
 23 24  2  0  0  0
 24 25  1  0  0  0
  3  4  2  0  0  0
  4  5  1  0  0  0
  5  6  2  0  0  0
  6  7  1  0  0  0
  7  8  2  0  0  0
  8  9  1  0  0  0
  9 10  2  0  0  0
 10  1  1  0  0  0
 25 17  1  0  0  0
  9  4  1  0  0  0
 24 19  1  0  0  0
 25 26  1  0  0  0
M  END
> <minimizedAffinity>
30.75065

> <CNNscore>
0.4388372600

> <CNNaffinity>
5.7610816956

> <CNN_VS>
2.5281772614

> <CNNaffinity_variance>
0.6220226288

$$$$
[H]/C(=C(/[H])c1nc2c([H])c([H])c([H])c([H])c2n1[H])c1c([H])c(C(F)(F)F)nc2c([H])c([H])c([H])c([H])c12


 26 29  0  0  0  0  0  0  0  0999 V2000
   19.9856    5.0967   53.3780 C   0  0  0  0  0  0  0  0  0  0  0  0
   21.1864    5.3331   54.0461 C   0  0  0  0  0  0  0  0  0  0  0  0
   21.8910    6.4573   53.8379 C   0  0  0  0  0  0  0  0  0  0  0  0
   21.3827    7.4165   52.9144 C   0  0  0  0  0  0  0  0  0  0  0  0
   22.0691    8.6140   52.7011 C   0  0  0  0  0  0  0  0  0  0  0  0
   21.5547    9.5833   51.8292 C   0  0  0  0  0  0  0  0  0  0  0  0
   20.3491    9.3270   51.1781 C   0  0  0  0  0  0  0  0  0  0  0  0
   19.6898    8.1540   51.3899 C   0  0  0  0  0  0  0  0  0  0  0  0
   20.2143    7.1933   52.2677 C   0  0  0  0  0  0  0  0  0  0  0  0
   19.5452    6.0328   52.5259 N   0  0  0  0  0  0  0  0  0  0  0  0
   17.8595    4.0931   53.6343 F   0  0  0  0  0  0  0  0  0  0  0  0
   19.2085    3.8280   53.5974 C   0  0  0  0  0  0  0  0  0  0  0  0
   19.5541    2.8951   52.6675 F   0  0  0  0  0  0  0  0  0  0  0  0
   19.5373    3.3265   54.8389 F   0  0  0  0  0  0  0  0  0  0  0  0
   23.1240    6.9026   54.5081 C   0  0  0  0  0  0  0  0  0  0  0  0
   24.0505    7.4665   53.7737 C   0  0  0  0  0  0  0  0  0  0  0  0
   25.2947    7.9242   54.3593 C   0  0  0  0  0  0  0  0  0  0  0  0
   25.4734    8.4404   55.5846 N   0  0  0  0  0  0  0  0  0  0  0  0
   26.7431    8.8650   55.7344 C   0  0  0  0  0  0  0  0  0  0  0  0
   27.4019    9.5086   56.7884 C   0  0  0  0  0  0  0  0  0  0  0  0
   28.7116    9.8980   56.6806 C   0  0  0  0  0  0  0  0  0  0  0  0
   29.3790    9.6416   55.5199 C   0  0  0  0  0  0  0  0  0  0  0  0
   28.7238    8.9952   54.4646 C   0  0  0  0  0  0  0  0  0  0  0  0
   27.3952    8.6080   54.5836 C   0  0  0  0  0  0  0  0  0  0  0  0
   26.5004    8.0380   53.7562 N   0  0  0  0  0  0  0  0  0  0  0  0
   26.6996    7.7415   52.7946 H   0  0  0  0  0  0  0  0  0  0  0  0
 11 12  1  0  0  0
 12 13  1  0  0  0
 12 14  1  0  0  0
 12  1  1  0  0  0
  1  2  2  0  0  0
  2  3  1  0  0  0
  3 15  1  0  0  0
 15 16  2  0  0  0
 16 17  1  0  0  0
 17 18  2  0  0  0
 18 19  1  0  0  0
 19 20  2  0  0  0
 20 21  1  0  0  0
 21 22  2  0  0  0
 22 23  1  0  0  0
 23 24  2  0  0  0
 24 25  1  0  0  0
  3  4  2  0  0  0
  4  5  1  0  0  0
  5  6  2  0  0  0
  6  7  1  0  0  0
  7  8  2  0  0  0
  8  9  1  0  0  0
  9 10  2  0  0  0
 10  1  1  0  0  0
 25 17  1  0  0  0
  9  4  1  0  0  0
 24 19  1  0  0  0
 25 26  1  0  0  0
M  END
> <minimizedAffinity>
14.59314

> <CNNscore>
0.4346843064

> <CNNaffinity>
6.1498212814

> <CNN_VS>
2.6732308865

> <CNNaffinity_variance>
0.2150754035

$$$$
[H]/C(=C(/[H])c1nc2c([H])c([H])c([H])c([H])c2n1[H])c1c([H])c(C(F)(F)F)nc2c([H])c([H])c([H])c([H])c12


 26 29  0  0  0  0  0  0  0  0999 V2000
   20.0218    4.8871   53.1328 C   0  0  0  0  0  0  0  0  0  0  0  0
   21.2993    5.0721   53.6599 C   0  0  0  0  0  0  0  0  0  0  0  0
   21.9851    6.2067   53.4452 C   0  0  0  0  0  0  0  0  0  0  0  0
   21.3762    7.2310   52.6633 C   0  0  0  0  0  0  0  0  0  0  0  0
   22.0440    8.4391   52.4511 C   0  0  0  0  0  0  0  0  0  0  0  0
   21.4356    9.4697   51.7217 C   0  0  0  0  0  0  0  0  0  0  0  0
   20.1552    9.2637   51.2107 C   0  0  0  0  0  0  0  0  0  0  0  0
   19.5143    8.0801   51.4197 C   0  0  0  0  0  0  0  0  0  0  0  0
   20.1336    7.0576   52.1543 C   0  0  0  0  0  0  0  0  0  0  0  0
   19.4889    5.8830   52.4114 N   0  0  0  0  0  0  0  0  0  0  0  0
   19.1339    2.9147   52.1767 F   0  0  0  0  0  0  0  0  0  0  0  0
   19.2639    3.6077   53.3574 C   0  0  0  0  0  0  0  0  0  0  0  0
   19.8454    2.8823   54.3524 F   0  0  0  0  0  0  0  0  0  0  0  0
   17.9846    3.9259   53.7611 F   0  0  0  0  0  0  0  0  0  0  0  0
   23.2972    6.5998   53.9852 C   0  0  0  0  0  0  0  0  0  0  0  0
   23.5757    7.8782   54.0470 C   0  0  0  0  0  0  0  0  0  0  0  0
   24.8492    8.3432   54.5591 C   0  0  0  0  0  0  0  0  0  0  0  0
   26.0688    8.0683   54.0725 N   0  0  0  0  0  0  0  0  0  0  0  0
   27.0212    8.5751   54.8794 C   0  0  0  0  0  0  0  0  0  0  0  0
   28.4191    8.5171   54.8368 C   0  0  0  0  0  0  0  0  0  0  0  0
   29.1876    9.0767   55.8241 C   0  0  0  0  0  0  0  0  0  0  0  0
   28.5665    9.7068   56.8613 C   0  0  0  0  0  0  0  0  0  0  0  0
   27.1683    9.7692   56.9054 C   0  0  0  0  0  0  0  0  0  0  0  0
   26.3993    9.1957   55.9009 C   0  0  0  0  0  0  0  0  0  0  0  0
   25.0787    9.0438   55.6935 N   0  0  0  0  0  0  0  0  0  0  0  0
   24.3447    9.3988   56.3160 H   0  0  0  0  0  0  0  0  0  0  0  0
 11 12  1  0  0  0
 12 13  1  0  0  0
 12 14  1  0  0  0
 12  1  1  0  0  0
  1  2  2  0  0  0
  2  3  1  0  0  0
  3 15  1  0  0  0
 15 16  2  0  0  0
 16 17  1  0  0  0
 17 18  2  0  0  0
 18 19  1  0  0  0
 19 20  2  0  0  0
 20 21  1  0  0  0
 21 22  2  0  0  0
 22 23  1  0  0  0
 23 24  2  0  0  0
 24 25  1  0  0  0
  3  4  2  0  0  0
  4  5  1  0  0  0
  5  6  2  0  0  0
  6  7  1  0  0  0
  7  8  2  0  0  0
  8  9  1  0  0  0
  9 10  2  0  0  0
 10  1  1  0  0  0
 25 17  1  0  0  0
  9  4  1  0  0  0
 24 19  1  0  0  0
 25 26  1  0  0  0
M  END
> <minimizedAffinity>
17.84589

> <CNNscore>
0.4258958697

> <CNNaffinity>
6.0660319328

> <CNN_VS>
2.5834980011

> <CNNaffinity_variance>
0.1942799389

$$$$
[H]/C(=C(/[H])c1nc2c([H])c([H])c([H])c([H])c2n1[H])c1c([H])c(C(F)(F)F)nc2c([H])c([H])c([H])c([H])c12


 26 29  0  0  0  0  0  0  0  0999 V2000
   27.8022   10.3619   57.0321 C   0  0  0  0  0  0  0  0  0  0  0  0
   26.4534   10.1224   56.7724 C   0  0  0  0  0  0  0  0  0  0  0  0
   26.0691    9.2685   55.8098 C   0  0  0  0  0  0  0  0  0  0  0  0
   27.0752    8.6014   55.0520 C   0  0  0  0  0  0  0  0  0  0  0  0
   26.7131    7.6781   54.0686 C   0  0  0  0  0  0  0  0  0  0  0  0
   27.6949    6.9835   53.3489 C   0  0  0  0  0  0  0  0  0  0  0  0
   29.0366    7.2349   53.6313 C   0  0  0  0  0  0  0  0  0  0  0  0
   29.3790    8.1406   54.5894 C   0  0  0  0  0  0  0  0  0  0  0  0
   28.3861    8.8270   55.3046 C   0  0  0  0  0  0  0  0  0  0  0  0
   28.7104    9.7039   56.2981 N   0  0  0  0  0  0  0  0  0  0  0  0
   28.5054   10.6694   59.2690 F   0  0  0  0  0  0  0  0  0  0  0  0
   28.2302   11.3339   58.0968 C   0  0  0  0  0  0  0  0  0  0  0  0
   29.2640   12.0994   57.6502 F   0  0  0  0  0  0  0  0  0  0  0  0
   27.1714   12.1740   58.3690 F   0  0  0  0  0  0  0  0  0  0  0  0
   24.7055    8.8401   55.4566 C   0  0  0  0  0  0  0  0  0  0  0  0
   24.5558    8.0885   54.3942 C   0  0  0  0  0  0  0  0  0  0  0  0
   23.2444    7.6331   53.9781 C   0  0  0  0  0  0  0  0  0  0  0  0
   22.1624    8.3881   53.7352 N   0  0  0  0  0  0  0  0  0  0  0  0
   21.0919    7.6083   53.4879 C   0  0  0  0  0  0  0  0  0  0  0  0
   19.7487    7.9077   53.2326 C   0  0  0  0  0  0  0  0  0  0  0  0
   18.8160    6.9178   53.0628 C   0  0  0  0  0  0  0  0  0  0  0  0
   19.2180    5.6174   53.1394 C   0  0  0  0  0  0  0  0  0  0  0  0
   20.5617    5.3145   53.3916 C   0  0  0  0  0  0  0  0  0  0  0  0
   21.4977    6.3258   53.5654 C   0  0  0  0  0  0  0  0  0  0  0  0
   22.8086    6.3571   53.8667 N   0  0  0  0  0  0  0  0  0  0  0  0
   23.3962    5.5279   54.0062 H   0  0  0  0  0  0  0  0  0  0  0  0
 11 12  1  0  0  0
 12 13  1  0  0  0
 12 14  1  0  0  0
 12  1  1  0  0  0
  1  2  2  0  0  0
  2  3  1  0  0  0
  3 15  1  0  0  0
 15 16  2  0  0  0
 16 17  1  0  0  0
 17 18  2  0  0  0
 18 19  1  0  0  0
 19 20  2  0  0  0
 20 21  1  0  0  0
 21 22  2  0  0  0
 22 23  1  0  0  0
 23 24  2  0  0  0
 24 25  1  0  0  0
  3  4  2  0  0  0
  4  5  1  0  0  0
  5  6  2  0  0  0
  6  7  1  0  0  0
  7  8  2  0  0  0
  8  9  1  0  0  0
  9 10  2  0  0  0
 10  1  1  0  0  0
 25 17  1  0  0  0
  9  4  1  0  0  0
 24 19  1  0  0  0
 25 26  1  0  0  0
M  END
> <minimizedAffinity>
25.64285

> <CNNscore>
0.4239195287

> <CNNaffinity>
5.7186470032

> <CNN_VS>
2.4242460728

> <CNNaffinity_variance>
0.2660663426

$$$$
[H]/C(=C(/[H])c1nc2c([H])c([H])c([H])c([H])c2n1[H])c1c([H])c(C(F)(F)F)nc2c([H])c([H])c([H])c([H])c12


 26 29  0  0  0  0  0  0  0  0999 V2000
   23.1904    6.3264   55.1645 C   0  0  0  0  0  0  0  0  0  0  0  0
   24.0198    6.6518   54.0919 C   0  0  0  0  0  0  0  0  0  0  0  0
   23.8920    7.8189   53.4400 C   0  0  0  0  0  0  0  0  0  0  0  0
   22.8847    8.7308   53.8705 C   0  0  0  0  0  0  0  0  0  0  0  0
   22.7476    9.9698   53.2407 C   0  0  0  0  0  0  0  0  0  0  0  0
   21.7903   10.8919   53.6854 C   0  0  0  0  0  0  0  0  0  0  0  0
   20.9775   10.5466   54.7639 C   0  0  0  0  0  0  0  0  0  0  0  0
   21.1164    9.3339   55.3684 C   0  0  0  0  0  0  0  0  0  0  0  0
   22.0808    8.4212   54.9151 C   0  0  0  0  0  0  0  0  0  0  0  0
   22.2640    7.2207   55.5368 N   0  0  0  0  0  0  0  0  0  0  0  0
   22.4369    4.9460   56.9307 F   0  0  0  0  0  0  0  0  0  0  0  0
   23.3219    5.0103   55.8800 C   0  0  0  0  0  0  0  0  0  0  0  0
   23.1964    3.9790   54.9996 F   0  0  0  0  0  0  0  0  0  0  0  0
   24.5830    4.9406   56.4329 F   0  0  0  0  0  0  0  0  0  0  0  0
   24.7237    8.3548   52.3497 C   0  0  0  0  0  0  0  0  0  0  0  0
   26.0165    8.4303   52.5463 C   0  0  0  0  0  0  0  0  0  0  0  0
   26.9001    8.9535   51.5236 C   0  0  0  0  0  0  0  0  0  0  0  0
   27.4511   10.1757   51.4750 N   0  0  0  0  0  0  0  0  0  0  0  0
   28.1165   10.3447   50.3158 C   0  0  0  0  0  0  0  0  0  0  0  0
   28.8049   11.4377   49.7767 C   0  0  0  0  0  0  0  0  0  0  0  0
   29.3651   11.3832   48.5270 C   0  0  0  0  0  0  0  0  0  0  0  0
   29.2491   10.2324   47.8056 C   0  0  0  0  0  0  0  0  0  0  0  0
   28.5637    9.1360   48.3431 C   0  0  0  0  0  0  0  0  0  0  0  0
   27.9970    9.2035   49.6094 C   0  0  0  0  0  0  0  0  0  0  0  0
   27.2523    8.3680   50.3560 N   0  0  0  0  0  0  0  0  0  0  0  0
   26.9772    7.4206   50.0746 H   0  0  0  0  0  0  0  0  0  0  0  0
 11 12  1  0  0  0
 12 13  1  0  0  0
 12 14  1  0  0  0
 12  1  1  0  0  0
  1  2  2  0  0  0
  2  3  1  0  0  0
  3 15  1  0  0  0
 15 16  2  0  0  0
 16 17  1  0  0  0
 17 18  2  0  0  0
 18 19  1  0  0  0
 19 20  2  0  0  0
 20 21  1  0  0  0
 21 22  2  0  0  0
 22 23  1  0  0  0
 23 24  2  0  0  0
 24 25  1  0  0  0
  3  4  2  0  0  0
  4  5  1  0  0  0
  5  6  2  0  0  0
  6  7  1  0  0  0
  7  8  2  0  0  0
  8  9  1  0  0  0
  9 10  2  0  0  0
 10  1  1  0  0  0
 25 17  1  0  0  0
  9  4  1  0  0  0
 24 19  1  0  0  0
 25 26  1  0  0  0
M  END
> <minimizedAffinity>
40.57273

> <CNNscore>
0.4235832095

> <CNNaffinity>
5.5848917961

> <CNN_VS>
2.3656663895

> <CNNaffinity_variance>
0.4852769375

$$$$
[H]OC(=O)c1nc(C(=O)c2c([H])c([H])c([H])c([H])c2[H])c2c([H])c(O[H])c(O[H])c([H])c2c1[H]


 26 28  0  0  0  0  0  0  0  0999 V2000
   21.7041   10.6695   52.4086 C   0  0  0  0  0  0  0  0  0  0  0  0
   20.9575    9.5570   52.0556 C   0  0  0  0  0  0  0  0  0  0  0  0
   21.1009    8.3854   52.7711 C   0  0  0  0  0  0  0  0  0  0  0  0
   20.3458    7.2727   52.4203 C   0  0  0  0  0  0  0  0  0  0  0  0
   20.4735    6.1061   53.1317 C   0  0  0  0  0  0  0  0  0  0  0  0
   19.7399    4.9427   52.8316 O   0  0  0  0  0  0  0  0  0  0  0  0
   21.3623    6.0999   54.1787 C   0  0  0  0  0  0  0  0  0  0  0  0
   21.5148    4.9488   54.9122 O   0  0  0  0  0  0  0  0  0  0  0  0
   22.1215    7.2194   54.5301 C   0  0  0  0  0  0  0  0  0  0  0  0
   22.0032    8.3791   53.8301 C   0  0  0  0  0  0  0  0  0  0  0  0
   22.7523    9.4870   54.1860 C   0  0  0  0  0  0  0  0  0  0  0  0
   22.5615   10.6151   53.4376 N   0  0  0  0  0  0  0  0  0  0  0  0
   19.0857    4.9411   52.0638 H   0  0  0  0  0  0  0  0  0  0  0  0
   22.1733    4.9424   55.6861 H   0  0  0  0  0  0  0  0  0  0  0  0
   21.1927   11.8160   50.2888 O   0  0  0  0  0  0  0  0  0  0  0  0
   21.5248   11.8817   51.6282 C   0  0  0  0  0  0  0  0  0  0  0  0
   21.6720   12.9882   52.1730 O   0  0  0  0  0  0  0  0  0  0  0  0
   21.5286   12.4864   49.5984 H   0  0  0  0  0  0  0  0  0  0  0  0
   23.7467    9.4991   55.2572 C   0  0  0  0  0  0  0  0  0  0  0  0
   23.3767    9.8689   56.4057 O   0  0  0  0  0  0  0  0  0  0  0  0
   25.1287    9.1003   55.0687 C   0  0  0  0  0  0  0  0  0  0  0  0
   25.6073    8.4184   53.9732 C   0  0  0  0  0  0  0  0  0  0  0  0
   26.9564    8.0980   53.8834 C   0  0  0  0  0  0  0  0  0  0  0  0
   27.8251    8.4578   54.8911 C   0  0  0  0  0  0  0  0  0  0  0  0
   27.3802    9.1356   55.9966 C   0  0  0  0  0  0  0  0  0  0  0  0
   26.0388    9.4503   56.0745 C   0  0  0  0  0  0  0  0  0  0  0  0
 15 16  1  0  0  0
 16 17  2  0  0  0
 16  1  1  0  0  0
  1  2  2  0  0  0
  2  3  1  0  0  0
  3  4  2  0  0  0
  4  5  1  0  0  0
  5  6  1  0  0  0
  5  7  2  0  0  0
  7  8  1  0  0  0
  7  9  1  0  0  0
  9 10  2  0  0  0
 10 11  1  0  0  0
 11 12  2  0  0  0
 11 19  1  0  0  0
 19 20  2  0  0  0
 19 21  1  0  0  0
 21 22  2  0  0  0
 22 23  1  0  0  0
 23 24  2  0  0  0
 24 25  1  0  0  0
 25 26  2  0  0  0
 12  1  1  0  0  0
 26 21  1  0  0  0
 10  3  1  0  0  0
 15 18  1  0  0  0
  6 13  1  0  0  0
  8 14  1  0  0  0
M  END
> <minimizedAffinity>
8.21720

> <CNNscore>
0.6919752359

> <CNNaffinity>
5.9883885384

> <CNN_VS>
4.1438164711

> <CNNaffinity_variance>
0.2956892848

$$$$
[H]OC(=O)c1nc(C(=O)c2c([H])c([H])c([H])c([H])c2[H])c2c([H])c(O[H])c(O[H])c([H])c2c1[H]


 26 28  0  0  0  0  0  0  0  0999 V2000
   21.3457    6.9343   53.3557 C   0  0  0  0  0  0  0  0  0  0  0  0
   20.8218    7.7125   52.3360 C   0  0  0  0  0  0  0  0  0  0  0  0
   21.1879    9.0395   52.2351 C   0  0  0  0  0  0  0  0  0  0  0  0
   20.6672    9.8166   51.2073 C   0  0  0  0  0  0  0  0  0  0  0  0
   21.0327   11.1344   51.0922 C   0  0  0  0  0  0  0  0  0  0  0  0
   20.5448   11.9777   50.0761 O   0  0  0  0  0  0  0  0  0  0  0  0
   21.9157   11.6275   52.0212 C   0  0  0  0  0  0  0  0  0  0  0  0
   22.3031   12.9424   51.9354 O   0  0  0  0  0  0  0  0  0  0  0  0
   22.4382   10.8451   53.0547 C   0  0  0  0  0  0  0  0  0  0  0  0
   22.0805    9.5391   53.1781 C   0  0  0  0  0  0  0  0  0  0  0  0
   22.6057    8.7665   54.1993 C   0  0  0  0  0  0  0  0  0  0  0  0
   22.2032    7.4606   54.2414 N   0  0  0  0  0  0  0  0  0  0  0  0
   19.8960   11.6212   49.3908 H   0  0  0  0  0  0  0  0  0  0  0  0
   22.9551   13.3089   52.6233 H   0  0  0  0  0  0  0  0  0  0  0  0
   19.6196    5.1841   53.1921 O   0  0  0  0  0  0  0  0  0  0  0  0
   20.9327    5.5433   53.4275 C   0  0  0  0  0  0  0  0  0  0  0  0
   21.7707    4.6691   53.7035 O   0  0  0  0  0  0  0  0  0  0  0  0
   19.1558    4.4187   53.6799 H   0  0  0  0  0  0  0  0  0  0  0  0
   23.5025    9.2723   55.2367 C   0  0  0  0  0  0  0  0  0  0  0  0
   22.9942    9.9047   56.2034 O   0  0  0  0  0  0  0  0  0  0  0  0
   24.9398    9.0765   55.2151 C   0  0  0  0  0  0  0  0  0  0  0  0
   25.8007    9.4642   56.2165 C   0  0  0  0  0  0  0  0  0  0  0  0
   27.1628    9.2139   56.1036 C   0  0  0  0  0  0  0  0  0  0  0  0
   27.6628    8.5783   54.9876 C   0  0  0  0  0  0  0  0  0  0  0  0
   26.8327    8.1814   53.9713 C   0  0  0  0  0  0  0  0  0  0  0  0
   25.4814    8.4333   54.0947 C   0  0  0  0  0  0  0  0  0  0  0  0
 15 16  1  0  0  0
 16 17  2  0  0  0
 16  1  1  0  0  0
  1  2  2  0  0  0
  2  3  1  0  0  0
  3  4  2  0  0  0
  4  5  1  0  0  0
  5  6  1  0  0  0
  5  7  2  0  0  0
  7  8  1  0  0  0
  7  9  1  0  0  0
  9 10  2  0  0  0
 10 11  1  0  0  0
 11 12  2  0  0  0
 11 19  1  0  0  0
 19 20  2  0  0  0
 19 21  1  0  0  0
 21 22  2  0  0  0
 22 23  1  0  0  0
 23 24  2  0  0  0
 24 25  1  0  0  0
 25 26  2  0  0  0
 12  1  1  0  0  0
 26 21  1  0  0  0
 10  3  1  0  0  0
 15 18  1  0  0  0
  6 13  1  0  0  0
  8 14  1  0  0  0
M  END
> <minimizedAffinity>
8.35188

> <CNNscore>
0.6874736547

> <CNNaffinity>
6.0343170166

> <CNN_VS>
4.1484341621

> <CNNaffinity_variance>
0.3816646039

$$$$
[H]OC(=O)c1nc(C(=O)c2c([H])c([H])c([H])c([H])c2[H])c2c([H])c(O[H])c(O[H])c([H])c2c1[H]


 26 28  0  0  0  0  0  0  0  0999 V2000
   21.8479    9.9144   52.7369 C   0  0  0  0  0  0  0  0  0  0  0  0
   20.6928    9.1492   52.7471 C   0  0  0  0  0  0  0  0  0  0  0  0
   20.7744    7.7964   53.0086 C   0  0  0  0  0  0  0  0  0  0  0  0
   19.6141    7.0317   53.0258 C   0  0  0  0  0  0  0  0  0  0  0  0
   19.6832    5.6877   53.2949 C   0  0  0  0  0  0  0  0  0  0  0  0
   18.5487    4.8549   53.3289 O   0  0  0  0  0  0  0  0  0  0  0  0
   20.9258    5.1565   53.5392 C   0  0  0  0  0  0  0  0  0  0  0  0
   21.0314    3.8146   53.8122 O   0  0  0  0  0  0  0  0  0  0  0  0
   22.0921    5.9265   53.5211 C   0  0  0  0  0  0  0  0  0  0  0  0
   22.0338    7.2584   53.2537 C   0  0  0  0  0  0  0  0  0  0  0  0
   23.1906    8.0180   53.2434 C   0  0  0  0  0  0  0  0  0  0  0  0
   23.0397    9.3508   52.9790 N   0  0  0  0  0  0  0  0  0  0  0  0
   17.6334    5.2393   53.1502 H   0  0  0  0  0  0  0  0  0  0  0  0
   21.9504    3.4201   53.9916 H   0  0  0  0  0  0  0  0  0  0  0  0
   21.6975   11.7954   51.1530 O   0  0  0  0  0  0  0  0  0  0  0  0
   21.7182   11.3337   52.4549 C   0  0  0  0  0  0  0  0  0  0  0  0
   21.6249   12.1390   53.3960 O   0  0  0  0  0  0  0  0  0  0  0  0
   22.1046   12.6866   50.8719 H   0  0  0  0  0  0  0  0  0  0  0  0
   24.5333    7.4761   53.4435 C   0  0  0  0  0  0  0  0  0  0  0  0
   24.8275    6.3924   52.8674 O   0  0  0  0  0  0  0  0  0  0  0  0
   25.5427    8.1237   54.2598 C   0  0  0  0  0  0  0  0  0  0  0  0
   25.2955    8.7677   55.4507 C   0  0  0  0  0  0  0  0  0  0  0  0
   26.3397    9.3428   56.1646 C   0  0  0  0  0  0  0  0  0  0  0  0
   27.6300    9.2756   55.6849 C   0  0  0  0  0  0  0  0  0  0  0  0
   27.9097    8.6436   54.5009 C   0  0  0  0  0  0  0  0  0  0  0  0
   26.8654    8.0742   53.8011 C   0  0  0  0  0  0  0  0  0  0  0  0
 15 16  1  0  0  0
 16 17  2  0  0  0
 16  1  1  0  0  0
  1  2  2  0  0  0
  2  3  1  0  0  0
  3  4  2  0  0  0
  4  5  1  0  0  0
  5  6  1  0  0  0
  5  7  2  0  0  0
  7  8  1  0  0  0
  7  9  1  0  0  0
  9 10  2  0  0  0
 10 11  1  0  0  0
 11 12  2  0  0  0
 11 19  1  0  0  0
 19 20  2  0  0  0
 19 21  1  0  0  0
 21 22  2  0  0  0
 22 23  1  0  0  0
 23 24  2  0  0  0
 24 25  1  0  0  0
 25 26  2  0  0  0
 12  1  1  0  0  0
 26 21  1  0  0  0
 10  3  1  0  0  0
 15 18  1  0  0  0
  6 13  1  0  0  0
  8 14  1  0  0  0
M  END
> <minimizedAffinity>
8.53893

> <CNNscore>
0.6254401803

> <CNNaffinity>
5.8416953087

> <CNN_VS>
3.6536309719

> <CNNaffinity_variance>
0.2865934074

$$$$
[H]OC(=O)c1nc(C(=O)c2c([H])c([H])c([H])c([H])c2[H])c2c([H])c(O[H])c(O[H])c([H])c2c1[H]


 26 28  0  0  0  0  0  0  0  0999 V2000
   27.6076    9.2096   52.0869 C   0  0  0  0  0  0  0  0  0  0  0  0
   28.3657    9.6561   53.1574 C   0  0  0  0  0  0  0  0  0  0  0  0
   27.9284    9.4233   54.4457 C   0  0  0  0  0  0  0  0  0  0  0  0
   28.6936    9.8653   55.5183 C   0  0  0  0  0  0  0  0  0  0  0  0
   28.2728    9.6300   56.8032 C   0  0  0  0  0  0  0  0  0  0  0  0
   28.9983   10.0486   57.9346 O   0  0  0  0  0  0  0  0  0  0  0  0
   27.0888    8.9533   56.9651 C   0  0  0  0  0  0  0  0  0  0  0  0
   26.6380    8.7006   58.2376 O   0  0  0  0  0  0  0  0  0  0  0  0
   26.3198    8.5098   55.8856 C   0  0  0  0  0  0  0  0  0  0  0  0
   26.7276    8.7399   54.6090 C   0  0  0  0  0  0  0  0  0  0  0  0
   25.9660    8.2931   53.5433 C   0  0  0  0  0  0  0  0  0  0  0  0
   26.4564    8.5551   52.2943 N   0  0  0  0  0  0  0  0  0  0  0  0
   29.8686   10.5461   57.8220 H   0  0  0  0  0  0  0  0  0  0  0  0
   25.7613    8.2014   58.3588 H   0  0  0  0  0  0  0  0  0  0  0  0
   28.7272   10.6736   50.4520 O   0  0  0  0  0  0  0  0  0  0  0  0
   28.1024    9.4774   50.7475 C   0  0  0  0  0  0  0  0  0  0  0  0
   27.9614    8.6201   49.8597 O   0  0  0  0  0  0  0  0  0  0  0  0
   28.6411   11.1386   49.5490 H   0  0  0  0  0  0  0  0  0  0  0  0
   24.6755    7.6203   53.6783 C   0  0  0  0  0  0  0  0  0  0  0  0
   24.6699    6.3620   53.7761 O   0  0  0  0  0  0  0  0  0  0  0  0
   23.4075    8.3243   53.7147 C   0  0  0  0  0  0  0  0  0  0  0  0
   22.5000    8.3623   52.6807 C   0  0  0  0  0  0  0  0  0  0  0  0
   21.3039    9.0545   52.8252 C   0  0  0  0  0  0  0  0  0  0  0  0
   21.0179    9.7103   54.0031 C   0  0  0  0  0  0  0  0  0  0  0  0
   21.9013    9.6939   55.0513 C   0  0  0  0  0  0  0  0  0  0  0  0
   23.0853    9.0019   54.8977 C   0  0  0  0  0  0  0  0  0  0  0  0
 15 16  1  0  0  0
 16 17  2  0  0  0
 16  1  1  0  0  0
  1  2  2  0  0  0
  2  3  1  0  0  0
  3  4  2  0  0  0
  4  5  1  0  0  0
  5  6  1  0  0  0
  5  7  2  0  0  0
  7  8  1  0  0  0
  7  9  1  0  0  0
  9 10  2  0  0  0
 10 11  1  0  0  0
 11 12  2  0  0  0
 11 19  1  0  0  0
 19 20  2  0  0  0
 19 21  1  0  0  0
 21 22  2  0  0  0
 22 23  1  0  0  0
 23 24  2  0  0  0
 24 25  1  0  0  0
 25 26  2  0  0  0
 12  1  1  0  0  0
 26 21  1  0  0  0
 10  3  1  0  0  0
 15 18  1  0  0  0
  6 13  1  0  0  0
  8 14  1  0  0  0
M  END
> <minimizedAffinity>
15.86864

> <CNNscore>
0.6180084944

> <CNNaffinity>
5.3512697220

> <CNN_VS>
3.3071300983

> <CNNaffinity_variance>
0.4472256601

$$$$
[H]OC(=O)c1nc(C(=O)c2c([H])c([H])c([H])c([H])c2[H])c2c([H])c(O[H])c(O[H])c([H])c2c1[H]


 26 28  0  0  0  0  0  0  0  0999 V2000
   20.8205    5.7258   53.6134 C   0  0  0  0  0  0  0  0  0  0  0  0
   20.2270    6.8659   54.1308 C   0  0  0  0  0  0  0  0  0  0  0  0
   21.0011    7.9786   54.3908 C   0  0  0  0  0  0  0  0  0  0  0  0
   20.4029    9.1238   54.9028 C   0  0  0  0  0  0  0  0  0  0  0  0
   21.1619   10.2389   55.1553 C   0  0  0  0  0  0  0  0  0  0  0  0
   20.6213   11.4313   55.6725 O   0  0  0  0  0  0  0  0  0  0  0  0
   22.5055   10.1625   54.8816 C   0  0  0  0  0  0  0  0  0  0  0  0
   23.2948   11.2604   55.1222 O   0  0  0  0  0  0  0  0  0  0  0  0
   23.1060    9.0100   54.3672 C   0  0  0  0  0  0  0  0  0  0  0  0
   22.3626    7.8997   54.1156 C   0  0  0  0  0  0  0  0  0  0  0  0
   22.9606    6.7631   53.6001 C   0  0  0  0  0  0  0  0  0  0  0  0
   22.1374    5.6973   53.3644 N   0  0  0  0  0  0  0  0  0  0  0  0
   19.6352   11.4935   55.8756 H   0  0  0  0  0  0  0  0  0  0  0  0
   24.2894   11.2046   54.9216 H   0  0  0  0  0  0  0  0  0  0  0  0
   18.5995    4.6654   53.5020 O   0  0  0  0  0  0  0  0  0  0  0  0
   19.9705    4.5760   53.3565 C   0  0  0  0  0  0  0  0  0  0  0  0
   20.4838    3.5019   53.0019 O   0  0  0  0  0  0  0  0  0  0  0  0
   18.0236    3.8934   53.8358 H   0  0  0  0  0  0  0  0  0  0  0  0
   24.3943    6.6283   53.3500 C   0  0  0  0  0  0  0  0  0  0  0  0
   24.7750    5.7293   52.5502 O   0  0  0  0  0  0  0  0  0  0  0  0
   25.3960    7.4785   53.9652 C   0  0  0  0  0  0  0  0  0  0  0  0
   25.3780    7.8901   55.2784 C   0  0  0  0  0  0  0  0  0  0  0  0
   26.3982    8.6930   55.7736 C   0  0  0  0  0  0  0  0  0  0  0  0
   27.4340    9.0859   54.9537 C   0  0  0  0  0  0  0  0  0  0  0  0
   27.4805    8.6953   53.6405 C   0  0  0  0  0  0  0  0  0  0  0  0
   26.4632    7.8963   53.1597 C   0  0  0  0  0  0  0  0  0  0  0  0
 15 16  1  0  0  0
 16 17  2  0  0  0
 16  1  1  0  0  0
  1  2  2  0  0  0
  2  3  1  0  0  0
  3  4  2  0  0  0
  4  5  1  0  0  0
  5  6  1  0  0  0
  5  7  2  0  0  0
  7  8  1  0  0  0
  7  9  1  0  0  0
  9 10  2  0  0  0
 10 11  1  0  0  0
 11 12  2  0  0  0
 11 19  1  0  0  0
 19 20  2  0  0  0
 19 21  1  0  0  0
 21 22  2  0  0  0
 22 23  1  0  0  0
 23 24  2  0  0  0
 24 25  1  0  0  0
 25 26  2  0  0  0
 12  1  1  0  0  0
 26 21  1  0  0  0
 10  3  1  0  0  0
 15 18  1  0  0  0
  6 13  1  0  0  0
  8 14  1  0  0  0
M  END
> <minimizedAffinity>
11.88265

> <CNNscore>
0.6049971581

> <CNNaffinity>
5.9355754852

> <CNN_VS>
3.5910062790

> <CNNaffinity_variance>
0.6450980306

$$$$
[H]OC(=O)c1nc(C(=O)c2c([H])c([H])c([H])c([H])c2[H])c2c([H])c(O[H])c(O[H])c([H])c2c1[H]


 26 28  0  0  0  0  0  0  0  0999 V2000
   23.3801    5.5373   53.5953 C   0  0  0  0  0  0  0  0  0  0  0  0
   22.2097    6.1067   54.0703 C   0  0  0  0  0  0  0  0  0  0  0  0
   22.1803    7.4537   54.3700 C   0  0  0  0  0  0  0  0  0  0  0  0
   21.0034    8.0247   54.8393 C   0  0  0  0  0  0  0  0  0  0  0  0
   20.9609    9.3652   55.1305 C   0  0  0  0  0  0  0  0  0  0  0  0
   19.8032   10.0079   55.6083 O   0  0  0  0  0  0  0  0  0  0  0  0
   22.1117   10.0893   54.9377 C   0  0  0  0  0  0  0  0  0  0  0  0
   22.1043   11.4336   55.2190 O   0  0  0  0  0  0  0  0  0  0  0  0
   23.2948    9.5138   54.4662 C   0  0  0  0  0  0  0  0  0  0  0  0
   23.3472    8.1863   54.1767 C   0  0  0  0  0  0  0  0  0  0  0  0
   24.5192    7.6222   53.7038 C   0  0  0  0  0  0  0  0  0  0  0  0
   24.4801    6.2843   53.4253 N   0  0  0  0  0  0  0  0  0  0  0  0
   18.9549    9.4813   55.7520 H   0  0  0  0  0  0  0  0  0  0  0  0
   22.9557   11.9702   55.0783 H   0  0  0  0  0  0  0  0  0  0  0  0
   22.1761    3.4380   53.1341 O   0  0  0  0  0  0  0  0  0  0  0  0
   23.3690    4.1161   53.2944 C   0  0  0  0  0  0  0  0  0  0  0  0
   24.4449    3.5059   53.1801 O   0  0  0  0  0  0  0  0  0  0  0  0
   22.0432    2.4694   53.4224 H   0  0  0  0  0  0  0  0  0  0  0  0
   25.7760    8.3503   53.5402 C   0  0  0  0  0  0  0  0  0  0  0  0
   26.1032    8.7148   52.3771 O   0  0  0  0  0  0  0  0  0  0  0  0
   26.6570    8.6814   54.6442 C   0  0  0  0  0  0  0  0  0  0  0  0
   26.2367    9.0881   55.8900 C   0  0  0  0  0  0  0  0  0  0  0  0
   27.1657    9.3659   56.8853 C   0  0  0  0  0  0  0  0  0  0  0  0
   28.5146    9.2391   56.6324 C   0  0  0  0  0  0  0  0  0  0  0  0
   28.9663    8.8384   55.4016 C   0  0  0  0  0  0  0  0  0  0  0  0
   28.0349    8.5633   54.4211 C   0  0  0  0  0  0  0  0  0  0  0  0
 15 16  1  0  0  0
 16 17  2  0  0  0
 16  1  1  0  0  0
  1  2  2  0  0  0
  2  3  1  0  0  0
  3  4  2  0  0  0
  4  5  1  0  0  0
  5  6  1  0  0  0
  5  7  2  0  0  0
  7  8  1  0  0  0
  7  9  1  0  0  0
  9 10  2  0  0  0
 10 11  1  0  0  0
 11 12  2  0  0  0
 11 19  1  0  0  0
 19 20  2  0  0  0
 19 21  1  0  0  0
 21 22  2  0  0  0
 22 23  1  0  0  0
 23 24  2  0  0  0
 24 25  1  0  0  0
 25 26  2  0  0  0
 12  1  1  0  0  0
 26 21  1  0  0  0
 10  3  1  0  0  0
 15 18  1  0  0  0
  6 13  1  0  0  0
  8 14  1  0  0  0
M  END
> <minimizedAffinity>
17.35378

> <CNNscore>
0.5850601196

> <CNNaffinity>
5.8707909584

> <CNN_VS>
3.4347655773

> <CNNaffinity_variance>
0.6490897536

$$$$
[H]OC(=O)c1nc(C(=O)c2c([H])c([H])c([H])c([H])c2[H])c2c([H])c(O[H])c(O[H])c([H])c2c1[H]


 26 28  0  0  0  0  0  0  0  0999 V2000
   22.0227    9.2063   53.1780 C   0  0  0  0  0  0  0  0  0  0  0  0
   21.2681    8.4588   54.0677 C   0  0  0  0  0  0  0  0  0  0  0  0
   21.8719    7.4538   54.7960 C   0  0  0  0  0  0  0  0  0  0  0  0
   21.1151    6.7099   55.6935 C   0  0  0  0  0  0  0  0  0  0  0  0
   21.7081    5.7152   56.4299 C   0  0  0  0  0  0  0  0  0  0  0  0
   21.0020    4.9246   57.3563 O   0  0  0  0  0  0  0  0  0  0  0  0
   23.0509    5.5024   56.2366 C   0  0  0  0  0  0  0  0  0  0  0  0
   23.6764    4.5147   56.9575 O   0  0  0  0  0  0  0  0  0  0  0  0
   23.8108    6.2507   55.3333 C   0  0  0  0  0  0  0  0  0  0  0  0
   23.2318    7.2371   54.5979 C   0  0  0  0  0  0  0  0  0  0  0  0
   23.9897    7.9798   53.7096 C   0  0  0  0  0  0  0  0  0  0  0  0
   23.3310    8.9603   53.0211 N   0  0  0  0  0  0  0  0  0  0  0  0
   20.0155    5.0762   57.5026 H   0  0  0  0  0  0  0  0  0  0  0  0
   24.6696    4.3551   56.8141 H   0  0  0  0  0  0  0  0  0  0  0  0
   20.7144    9.9696   51.2349 O   0  0  0  0  0  0  0  0  0  0  0  0
   21.3481   10.2528   52.4295 C   0  0  0  0  0  0  0  0  0  0  0  0
   21.3419   11.4142   52.8701 O   0  0  0  0  0  0  0  0  0  0  0  0
   20.6814   10.6234   50.4536 H   0  0  0  0  0  0  0  0  0  0  0  0
   25.4064    7.7438   53.4381 C   0  0  0  0  0  0  0  0  0  0  0  0
   25.7096    7.0580   52.4230 O   0  0  0  0  0  0  0  0  0  0  0  0
   26.4763    8.2640   54.2684 C   0  0  0  0  0  0  0  0  0  0  0  0
   27.8071    8.2781   53.9175 C   0  0  0  0  0  0  0  0  0  0  0  0
   28.7526    8.8162   54.7819 C   0  0  0  0  0  0  0  0  0  0  0  0
   28.3661    9.3372   55.9980 C   0  0  0  0  0  0  0  0  0  0  0  0
   27.0491    9.3364   56.3787 C   0  0  0  0  0  0  0  0  0  0  0  0
   26.1183    8.8014   55.5116 C   0  0  0  0  0  0  0  0  0  0  0  0
 15 16  1  0  0  0
 16 17  2  0  0  0
 16  1  1  0  0  0
  1  2  2  0  0  0
  2  3  1  0  0  0
  3  4  2  0  0  0
  4  5  1  0  0  0
  5  6  1  0  0  0
  5  7  2  0  0  0
  7  8  1  0  0  0
  7  9  1  0  0  0
  9 10  2  0  0  0
 10 11  1  0  0  0
 11 12  2  0  0  0
 11 19  1  0  0  0
 19 20  2  0  0  0
 19 21  1  0  0  0
 21 22  2  0  0  0
 22 23  1  0  0  0
 23 24  2  0  0  0
 24 25  1  0  0  0
 25 26  2  0  0  0
 12  1  1  0  0  0
 26 21  1  0  0  0
 10  3  1  0  0  0
 15 18  1  0  0  0
  6 13  1  0  0  0
  8 14  1  0  0  0
M  END
> <minimizedAffinity>
11.92522

> <CNNscore>
0.5698935986

> <CNNaffinity>
5.5494341850

> <CNN_VS>
3.1625869274

> <CNNaffinity_variance>
0.1498952657

$$$$
[H]OC(=O)c1nc(C(=O)c2c([H])c([H])c([H])c([H])c2[H])c2c([H])c(O[H])c(O[H])c([H])c2c1[H]


 26 28  0  0  0  0  0  0  0  0999 V2000
   25.0507    7.9709   54.2075 C   0  0  0  0  0  0  0  0  0  0  0  0
   24.4166    9.0156   53.5546 C   0  0  0  0  0  0  0  0  0  0  0  0
   23.1940    8.8000   52.9515 C   0  0  0  0  0  0  0  0  0  0  0  0
   22.5559    9.8508   52.3034 C   0  0  0  0  0  0  0  0  0  0  0  0
   21.3352    9.6494   51.7094 C   0  0  0  0  0  0  0  0  0  0  0  0
   20.6339   10.6684   51.0376 O   0  0  0  0  0  0  0  0  0  0  0  0
   20.7954    8.3892   51.7891 C   0  0  0  0  0  0  0  0  0  0  0  0
   19.5747    8.1526   51.2057 O   0  0  0  0  0  0  0  0  0  0  0  0
   21.4383    7.3331   52.4407 C   0  0  0  0  0  0  0  0  0  0  0  0
   22.6487    7.5225   53.0305 C   0  0  0  0  0  0  0  0  0  0  0  0
   23.2784    6.4752   53.6802 C   0  0  0  0  0  0  0  0  0  0  0  0
   24.4856    6.7564   54.2571 N   0  0  0  0  0  0  0  0  0  0  0  0
   21.0254   11.5961   50.9757 H   0  0  0  0  0  0  0  0  0  0  0  0
   19.1749    7.2202   51.2625 H   0  0  0  0  0  0  0  0  0  0  0  0
   26.4282    9.0519   55.9405 O   0  0  0  0  0  0  0  0  0  0  0  0
   26.3371    8.2397   54.8267 C   0  0  0  0  0  0  0  0  0  0  0  0
   27.3651    7.7324   54.3482 O   0  0  0  0  0  0  0  0  0  0  0  0
   27.2188    9.6713   56.1147 H   0  0  0  0  0  0  0  0  0  0  0  0
   22.7598    5.1098   53.7360 C   0  0  0  0  0  0  0  0  0  0  0  0
   23.5869    4.1663   53.8721 O   0  0  0  0  0  0  0  0  0  0  0  0
   21.3478    4.7876   53.6526 C   0  0  0  0  0  0  0  0  0  0  0  0
   20.3239    5.6693   53.9141 C   0  0  0  0  0  0  0  0  0  0  0  0
   19.0013    5.2624   53.7882 C   0  0  0  0  0  0  0  0  0  0  0  0
   18.7042    3.9727   53.4036 C   0  0  0  0  0  0  0  0  0  0  0  0
   19.7005    3.0692   53.1380 C   0  0  0  0  0  0  0  0  0  0  0  0
   21.0104    3.4846   53.2643 C   0  0  0  0  0  0  0  0  0  0  0  0
 15 16  1  0  0  0
 16 17  2  0  0  0
 16  1  1  0  0  0
  1  2  2  0  0  0
  2  3  1  0  0  0
  3  4  2  0  0  0
  4  5  1  0  0  0
  5  6  1  0  0  0
  5  7  2  0  0  0
  7  8  1  0  0  0
  7  9  1  0  0  0
  9 10  2  0  0  0
 10 11  1  0  0  0
 11 12  2  0  0  0
 11 19  1  0  0  0
 19 20  2  0  0  0
 19 21  1  0  0  0
 21 22  2  0  0  0
 22 23  1  0  0  0
 23 24  2  0  0  0
 24 25  1  0  0  0
 25 26  2  0  0  0
 12  1  1  0  0  0
 26 21  1  0  0  0
 10  3  1  0  0  0
 15 18  1  0  0  0
  6 13  1  0  0  0
  8 14  1  0  0  0
M  END
> <minimizedAffinity>
18.41817

> <CNNscore>
0.5672676563

> <CNNaffinity>
6.0756525993

> <CNN_VS>
3.4465212822

> <CNNaffinity_variance>
0.7130707502

$$$$
[H]OC(=O)c1nc(C(=O)c2c([H])c([H])c([H])c([H])c2[H])c2c([H])c(O[H])c(O[H])c([H])c2c1[H]


 26 28  0  0  0  0  0  0  0  0999 V2000
   22.5449    6.0973   56.2514 C   0  0  0  0  0  0  0  0  0  0  0  0
   21.6046    7.1087   56.3637 C   0  0  0  0  0  0  0  0  0  0  0  0
   21.7139    8.2317   55.5686 C   0  0  0  0  0  0  0  0  0  0  0  0
   20.7657    9.2418   55.6772 C   0  0  0  0  0  0  0  0  0  0  0  0
   20.8596   10.3579   54.8841 C   0  0  0  0  0  0  0  0  0  0  0  0
   19.9344   11.4173   54.9415 O   0  0  0  0  0  0  0  0  0  0  0  0
   21.9113   10.4188   54.0032 C   0  0  0  0  0  0  0  0  0  0  0  0
   22.0355   11.5216   53.1940 O   0  0  0  0  0  0  0  0  0  0  0  0
   22.8646    9.4025   53.8953 C   0  0  0  0  0  0  0  0  0  0  0  0
   22.7810    8.2939   54.6781 C   0  0  0  0  0  0  0  0  0  0  0  0
   23.7237    7.2872   54.5630 C   0  0  0  0  0  0  0  0  0  0  0  0
   23.5565    6.2025   55.3782 N   0  0  0  0  0  0  0  0  0  0  0  0
   19.1599   11.3783   55.5866 H   0  0  0  0  0  0  0  0  0  0  0  0
   22.8142   11.5686   52.5429 H   0  0  0  0  0  0  0  0  0  0  0  0
   21.2588    4.7652   57.8766 O   0  0  0  0  0  0  0  0  0  0  0  0
   22.3946    4.9338   57.1083 C   0  0  0  0  0  0  0  0  0  0  0  0
   23.2981    4.0823   57.1489 O   0  0  0  0  0  0  0  0  0  0  0  0
   21.2704    4.3340   58.8001 H   0  0  0  0  0  0  0  0  0  0  0  0
   24.8852    7.3441   53.6776 C   0  0  0  0  0  0  0  0  0  0  0  0
   24.7893    6.8095   52.5383 O   0  0  0  0  0  0  0  0  0  0  0  0
   26.1335    7.9895   54.0379 C   0  0  0  0  0  0  0  0  0  0  0  0
   27.1711    8.2346   53.1675 C   0  0  0  0  0  0  0  0  0  0  0  0
   28.3206    8.8759   53.6127 C   0  0  0  0  0  0  0  0  0  0  0  0
   28.4321    9.2689   54.9290 C   0  0  0  0  0  0  0  0  0  0  0  0
   27.4180    9.0377   55.8219 C   0  0  0  0  0  0  0  0  0  0  0  0
   26.2801    8.4018   55.3686 C   0  0  0  0  0  0  0  0  0  0  0  0
 15 16  1  0  0  0
 16 17  2  0  0  0
 16  1  1  0  0  0
  1  2  2  0  0  0
  2  3  1  0  0  0
  3  4  2  0  0  0
  4  5  1  0  0  0
  5  6  1  0  0  0
  5  7  2  0  0  0
  7  8  1  0  0  0
  7  9  1  0  0  0
  9 10  2  0  0  0
 10 11  1  0  0  0
 11 12  2  0  0  0
 11 19  1  0  0  0
 19 20  2  0  0  0
 19 21  1  0  0  0
 21 22  2  0  0  0
 22 23  1  0  0  0
 23 24  2  0  0  0
 24 25  1  0  0  0
 25 26  2  0  0  0
 12  1  1  0  0  0
 26 21  1  0  0  0
 10  3  1  0  0  0
 15 18  1  0  0  0
  6 13  1  0  0  0
  8 14  1  0  0  0
M  END
> <minimizedAffinity>
14.78303

> <CNNscore>
0.5541049242

> <CNNaffinity>
5.7110228539

> <CNN_VS>
3.1645059586

> <CNNaffinity_variance>
0.3666592836

$$$$
[H]N=C(N1C([H])([H])[C@@]2([H])N([H])C([H])([H])c3c([H])c(O[H])c([H])c([H])c3C([H])([H])[C@@]([H])(C(=O)N([H])[C@]([H])(C(=O)N3C([H])([H])C([H])([H])N([H])C([H])([H])C3([H])[H])C([H])([H])C([H])([H])C([H])([H])C([H])([H])c3c([H])c([H])c([H])c([H])c3[H])N([H])[C@]2([H])C1([H])[H])C([H])([H])[H]


 48 52  0  0  0  0  0  0  0  0999 V2000
   25.6759    8.9076   55.5484 N   0  0  0  0  0  0  0  0  0  0  0  0
   25.0629    7.8666   54.8659 C   0  0  0  0  0  0  0  0  0  0  0  0
   25.7840    6.8717   54.5543 O   0  0  0  0  0  0  0  0  0  0  0  0
   25.1636    9.7579   55.8208 H   0  0  0  0  0  0  0  0  0  0  0  0
   23.6224    7.8148   54.4607 C   0  0  0  0  0  0  0  0  0  0  0  0
   22.8118    8.8487   55.2116 C   0  0  0  0  0  0  0  0  0  0  0  0
   22.4417    9.9428   54.3171 C   0  0  0  0  0  0  0  0  0  0  0  0
   23.3286   11.0245   54.3063 C   0  0  0  0  0  0  0  0  0  0  0  0
   23.1725   12.1525   53.5434 C   0  0  0  0  0  0  0  0  0  0  0  0
   22.0545   12.2064   52.7355 C   0  0  0  0  0  0  0  0  0  0  0  0
   21.8475   13.3353   51.9365 O   0  0  0  0  0  0  0  0  0  0  0  0
   21.1794   11.1471   52.7426 C   0  0  0  0  0  0  0  0  0  0  0  0
   21.3403   10.0023   53.5187 C   0  0  0  0  0  0  0  0  0  0  0  0
   20.2566    9.0242   53.3620 C   0  0  0  0  0  0  0  0  0  0  0  0
   20.3639    7.7589   53.8945 N   0  0  0  0  0  0  0  0  0  0  0  0
   21.2554    6.8297   53.2735 C   0  0  0  0  0  0  0  0  0  0  0  0
   20.4301    5.7965   52.5358 C   0  0  0  0  0  0  0  0  0  0  0  0
   20.5458    4.6068   53.3251 N   0  0  0  0  0  0  0  0  0  0  0  0
   21.8878    4.6170   53.9018 C   0  0  0  0  0  0  0  0  0  0  0  0
   21.9165    6.0726   54.3959 C   0  0  0  0  0  0  0  0  0  0  0  0
   23.1894    6.4721   54.7929 N   0  0  0  0  0  0  0  0  0  0  0  0
   21.3205   14.0797   52.3460 H   0  0  0  0  0  0  0  0  0  0  0  0
   19.5779    7.3390   54.3992 H   0  0  0  0  0  0  0  0  0  0  0  0
   23.9739    5.8298   54.5454 H   0  0  0  0  0  0  0  0  0  0  0  0
   19.5233    3.6496   53.4771 C   0  0  0  0  0  0  0  0  0  0  0  0
   18.4809    3.9181   54.1541 N   0  0  0  0  0  0  0  0  0  0  0  0
   19.6688    2.3261   52.8424 C   0  0  0  0  0  0  0  0  0  0  0  0
   18.3875    4.8538   54.5971 H   0  0  0  0  0  0  0  0  0  0  0  0
   27.1214    8.8813   55.9268 C   0  0  0  0  0  0  0  0  0  0  0  0
   27.3428    9.9820   56.8875 C   0  0  0  0  0  0  0  0  0  0  0  0
   26.6298   11.0306   56.6473 O   0  0  0  0  0  0  0  0  0  0  0  0
   28.1799   10.0588   57.9876 N   0  0  0  0  0  0  0  0  0  0  0  0
   29.0188    8.9767   58.4107 C   0  0  0  0  0  0  0  0  0  0  0  0
   29.4759    9.1835   59.8392 C   0  0  0  0  0  0  0  0  0  0  0  0
   28.4666    9.7297   60.6955 N   0  0  0  0  0  0  0  0  0  0  0  0
   27.8390   10.9254   60.2321 C   0  0  0  0  0  0  0  0  0  0  0  0
   28.2653   11.2730   58.8127 C   0  0  0  0  0  0  0  0  0  0  0  0
   28.8638    9.8372   61.6724 H   0  0  0  0  0  0  0  0  0  0  0  0
   27.8087    9.2269   54.6233 C   0  0  0  0  0  0  0  0  0  0  0  0
   27.6262    8.2741   53.5062 C   0  0  0  0  0  0  0  0  0  0  0  0
   27.1492    8.8865   52.2279 C   0  0  0  0  0  0  0  0  0  0  0  0
   28.1944    9.8569   51.7258 C   0  0  0  0  0  0  0  0  0  0  0  0
   28.4024    8.8162   49.4661 C   0  0  0  0  0  0  0  0  0  0  0  0
   28.5249    8.9472   48.1046 C   0  0  0  0  0  0  0  0  0  0  0  0
   28.5767   10.1908   47.5165 C   0  0  0  0  0  0  0  0  0  0  0  0
   28.5037   11.3117   48.3165 C   0  0  0  0  0  0  0  0  0  0  0  0
   28.3808   11.1951   49.6825 C   0  0  0  0  0  0  0  0  0  0  0  0
   28.3285    9.9328   50.2774 C   0  0  0  0  0  0  0  0  0  0  0  0
 43 44  2  0  0  0
 44 45  1  0  0  0
 45 46  2  0  0  0
 46 47  1  0  0  0
 47 48  2  0  0  0
 48 42  1  0  0  0
 42 41  1  0  0  0
 41 40  1  0  0  0
 40 39  1  0  0  0
 39 29  1  0  0  0
 29  1  1  0  0  0
  1  2  1  0  0  0
  2  5  1  0  0  0
  5  6  1  0  0  0
  6  7  1  0  0  0
  7  8  2  0  0  0
  8  9  1  0  0  0
  9 10  2  0  0  0
 10 11  1  0  0  0
 10 12  1  0  0  0
 12 13  2  0  0  0
 13 14  1  0  0  0
 14 15  1  0  0  0
 15 16  1  0  0  0
 16 17  1  0  0  0
 17 18  1  0  0  0
 18 25  1  0  0  0
 25 26  2  0  0  0
 25 27  1  0  0  0
 18 19  1  0  0  0
 19 20  1  0  0  0
 20 21  1  0  0  0
  2  3  2  0  0  0
 29 30  1  0  0  0
 30 31  2  0  0  0
 30 32  1  0  0  0
 32 33  1  0  0  0
 33 34  1  0  0  0
 34 35  1  0  0  0
 35 36  1  0  0  0
 36 37  1  0  0  0
 48 43  1  0  0  0
 21  5  1  0  0  0
 37 32  1  0  0  0
 13  7  1  0  0  0
 20 16  1  0  0  0
  1  4  1  0  0  0
 11 22  1  0  0  0
 15 23  1  0  0  0
 26 28  1  0  0  0
 21 24  1  0  0  0
 35 38  1  0  0  0
M  END
> <minimizedAffinity>
37.32872

> <CNNscore>
0.5326247215

> <CNNaffinity>
7.0397315025

> <CNN_VS>
3.7495350838

> <CNNaffinity_variance>
1.0017297268

$$$$
[H]N=C(N1C([H])([H])[C@@]2([H])N([H])C([H])([H])c3c([H])c(O[H])c([H])c([H])c3C([H])([H])[C@@]([H])(C(=O)N([H])[C@]([H])(C(=O)N3C([H])([H])C([H])([H])N([H])C([H])([H])C3([H])[H])C([H])([H])C([H])([H])C([H])([H])C([H])([H])c3c([H])c([H])c([H])c([H])c3[H])N([H])[C@]2([H])C1([H])[H])C([H])([H])[H]


 48 52  0  0  0  0  0  0  0  0999 V2000
   25.8685    8.3624   53.8928 N   0  0  0  0  0  0  0  0  0  0  0  0
   25.0016    7.3103   53.6345 C   0  0  0  0  0  0  0  0  0  0  0  0
   25.5161    6.2055   53.2859 O   0  0  0  0  0  0  0  0  0  0  0  0
   25.5285    9.2957   54.1630 H   0  0  0  0  0  0  0  0  0  0  0  0
   23.5081    7.3645   53.7280 C   0  0  0  0  0  0  0  0  0  0  0  0
   23.0683    8.3354   54.8022 C   0  0  0  0  0  0  0  0  0  0  0  0
   22.5122    9.5406   54.1922 C   0  0  0  0  0  0  0  0  0  0  0  0
   23.4275   10.5794   53.9924 C   0  0  0  0  0  0  0  0  0  0  0  0
   23.1185   11.7944   53.4381 C   0  0  0  0  0  0  0  0  0  0  0  0
   21.8058   11.9876   53.0569 C   0  0  0  0  0  0  0  0  0  0  0  0
   21.4371   13.2097   52.4858 O   0  0  0  0  0  0  0  0  0  0  0  0
   20.9022   10.9710   53.2515 C   0  0  0  0  0  0  0  0  0  0  0  0
   21.2187    9.7376   53.8150 C   0  0  0  0  0  0  0  0  0  0  0  0
   20.0714    8.8292   53.9332 C   0  0  0  0  0  0  0  0  0  0  0  0
   20.2488    7.5070   54.2742 N   0  0  0  0  0  0  0  0  0  0  0  0
   20.8153    6.6216   53.3051 C   0  0  0  0  0  0  0  0  0  0  0  0
   19.7178    5.7160   52.7869 C   0  0  0  0  0  0  0  0  0  0  0  0
   19.9926    4.4384   53.3735 N   0  0  0  0  0  0  0  0  0  0  0  0
   21.4459    4.3268   53.4695 C   0  0  0  0  0  0  0  0  0  0  0  0
   21.7457    5.7123   54.0648 C   0  0  0  0  0  0  0  0  0  0  0  0
   23.1053    6.0108   54.0531 N   0  0  0  0  0  0  0  0  0  0  0  0
   21.1311   13.9217   53.1173 H   0  0  0  0  0  0  0  0  0  0  0  0
   19.6404    7.0630   54.9681 H   0  0  0  0  0  0  0  0  0  0  0  0
   23.7145    5.3706   53.4979 H   0  0  0  0  0  0  0  0  0  0  0  0
   19.0052    3.5121   53.7628 C   0  0  0  0  0  0  0  0  0  0  0  0
   18.6124    3.4544   54.9709 N   0  0  0  0  0  0  0  0  0  0  0  0
   18.4251    2.6041   52.7555 C   0  0  0  0  0  0  0  0  0  0  0  0
   19.0270    4.0989   55.6733 H   0  0  0  0  0  0  0  0  0  0  0  0
   27.3529    8.2270   53.7863 C   0  0  0  0  0  0  0  0  0  0  0  0
   27.9094    8.4278   55.1403 C   0  0  0  0  0  0  0  0  0  0  0  0
   29.0049    7.7792   55.3518 O   0  0  0  0  0  0  0  0  0  0  0  0
   27.4464    9.1935   56.1968 N   0  0  0  0  0  0  0  0  0  0  0  0
   26.2610    9.9956   56.1226 C   0  0  0  0  0  0  0  0  0  0  0  0
   26.2423   11.0233   57.2343 C   0  0  0  0  0  0  0  0  0  0  0  0
   27.5234   11.6011   57.5087 N   0  0  0  0  0  0  0  0  0  0  0  0
   28.5833   10.6758   57.7509 C   0  0  0  0  0  0  0  0  0  0  0  0
   28.1508    9.2404   57.4868 C   0  0  0  0  0  0  0  0  0  0  0  0
   27.4223   12.3097   58.2905 H   0  0  0  0  0  0  0  0  0  0  0  0
   27.7301    9.4123   52.9240 C   0  0  0  0  0  0  0  0  0  0  0  0
   27.4929    9.2750   51.4700 C   0  0  0  0  0  0  0  0  0  0  0  0
   28.4809    9.9856   50.6009 C   0  0  0  0  0  0  0  0  0  0  0  0
   27.8757   10.1883   49.2302 C   0  0  0  0  0  0  0  0  0  0  0  0
   29.0636    8.1295   48.4671 C   0  0  0  0  0  0  0  0  0  0  0  0
   29.5039    7.3205   47.4483 C   0  0  0  0  0  0  0  0  0  0  0  0
   29.2656    7.6486   46.1328 C   0  0  0  0  0  0  0  0  0  0  0  0
   28.5748    8.8075   45.8478 C   0  0  0  0  0  0  0  0  0  0  0  0
   28.1277    9.6275   46.8590 C   0  0  0  0  0  0  0  0  0  0  0  0
   28.3703    9.2933   48.1929 C   0  0  0  0  0  0  0  0  0  0  0  0
 43 44  2  0  0  0
 44 45  1  0  0  0
 45 46  2  0  0  0
 46 47  1  0  0  0
 47 48  2  0  0  0
 48 42  1  0  0  0
 42 41  1  0  0  0
 41 40  1  0  0  0
 40 39  1  0  0  0
 39 29  1  0  0  0
 29  1  1  0  0  0
  1  2  1  0  0  0
  2  5  1  0  0  0
  5  6  1  0  0  0
  6  7  1  0  0  0
  7  8  2  0  0  0
  8  9  1  0  0  0
  9 10  2  0  0  0
 10 11  1  0  0  0
 10 12  1  0  0  0
 12 13  2  0  0  0
 13 14  1  0  0  0
 14 15  1  0  0  0
 15 16  1  0  0  0
 16 17  1  0  0  0
 17 18  1  0  0  0
 18 25  1  0  0  0
 25 26  2  0  0  0
 25 27  1  0  0  0
 18 19  1  0  0  0
 19 20  1  0  0  0
 20 21  1  0  0  0
  2  3  2  0  0  0
 29 30  1  0  0  0
 30 31  2  0  0  0
 30 32  1  0  0  0
 32 33  1  0  0  0
 33 34  1  0  0  0
 34 35  1  0  0  0
 35 36  1  0  0  0
 36 37  1  0  0  0
 48 43  1  0  0  0
 21  5  1  0  0  0
 37 32  1  0  0  0
 13  7  1  0  0  0
 20 16  1  0  0  0
  1  4  1  0  0  0
 11 22  1  0  0  0
 15 23  1  0  0  0
 26 28  1  0  0  0
 21 24  1  0  0  0
 35 38  1  0  0  0
M  END
> <minimizedAffinity>
42.73014

> <CNNscore>
0.4700568914

> <CNNaffinity>
6.6952619553

> <CNN_VS>
3.1471540928

> <CNNaffinity_variance>
1.5035579205

$$$$
[H]N=C(N1C([H])([H])[C@@]2([H])N([H])C([H])([H])c3c([H])c(O[H])c([H])c([H])c3C([H])([H])[C@@]([H])(C(=O)N([H])[C@]([H])(C(=O)N3C([H])([H])C([H])([H])N([H])C([H])([H])C3([H])[H])C([H])([H])C([H])([H])C([H])([H])C([H])([H])c3c([H])c([H])c([H])c([H])c3[H])N([H])[C@]2([H])C1([H])[H])C([H])([H])[H]


 48 52  0  0  0  0  0  0  0  0999 V2000
   24.4627    7.1673   53.5018 N   0  0  0  0  0  0  0  0  0  0  0  0
   24.7545    8.2474   54.3225 C   0  0  0  0  0  0  0  0  0  0  0  0
   23.7754    8.8973   54.7977 O   0  0  0  0  0  0  0  0  0  0  0  0
   25.2014    6.6006   53.0626 H   0  0  0  0  0  0  0  0  0  0  0  0
   26.1265    8.7170   54.6954 C   0  0  0  0  0  0  0  0  0  0  0  0
   27.1830    7.9997   53.8834 C   0  0  0  0  0  0  0  0  0  0  0  0
   27.7541    8.9061   52.8903 C   0  0  0  0  0  0  0  0  0  0  0  0
   27.1375    8.8734   51.6350 C   0  0  0  0  0  0  0  0  0  0  0  0
   27.5138    9.6387   50.5619 C   0  0  0  0  0  0  0  0  0  0  0  0
   28.5790   10.4958   50.7529 C   0  0  0  0  0  0  0  0  0  0  0  0
   29.0035   11.2993   49.6901 O   0  0  0  0  0  0  0  0  0  0  0  0
   29.1890   10.5315   51.9836 C   0  0  0  0  0  0  0  0  0  0  0  0
   28.8048    9.7529   53.0722 C   0  0  0  0  0  0  0  0  0  0  0  0
   29.6292    9.9613   54.2691 C   0  0  0  0  0  0  0  0  0  0  0  0
   29.2591    9.4290   55.4838 N   0  0  0  0  0  0  0  0  0  0  0  0
   28.1534   10.0125   56.1772 C   0  0  0  0  0  0  0  0  0  0  0  0
   28.6890   10.7900   57.3611 C   0  0  0  0  0  0  0  0  0  0  0  0
   28.3390   10.0004   58.5038 N   0  0  0  0  0  0  0  0  0  0  0  0
   27.0607    9.3641   58.1962 C   0  0  0  0  0  0  0  0  0  0  0  0
   27.3859    8.8642   56.7791 C   0  0  0  0  0  0  0  0  0  0  0  0
   26.2558    8.4092   56.1057 N   0  0  0  0  0  0  0  0  0  0  0  0
   29.7034   10.9113   49.0909 H   0  0  0  0  0  0  0  0  0  0  0  0
   29.9495    8.9614   56.0785 H   0  0  0  0  0  0  0  0  0  0  0  0
   25.3356    8.6234   56.5492 H   0  0  0  0  0  0  0  0  0  0  0  0
   29.1219    9.8977   59.6706 C   0  0  0  0  0  0  0  0  0  0  0  0
   29.4680    8.7595   60.1195 N   0  0  0  0  0  0  0  0  0  0  0  0
   29.5410   11.1251   60.3730 C   0  0  0  0  0  0  0  0  0  0  0  0
   29.1679    7.9003   59.6171 H   0  0  0  0  0  0  0  0  0  0  0  0
   23.0625    6.7538   53.1829 C   0  0  0  0  0  0  0  0  0  0  0  0
   22.1590    7.6829   53.8926 C   0  0  0  0  0  0  0  0  0  0  0  0
   21.9142    7.3376   55.1118 O   0  0  0  0  0  0  0  0  0  0  0  0
   21.5482    8.8476   53.4597 N   0  0  0  0  0  0  0  0  0  0  0  0
   21.7335    9.3873   52.1451 C   0  0  0  0  0  0  0  0  0  0  0  0
   21.3099   10.8402   52.1008 C   0  0  0  0  0  0  0  0  0  0  0  0
   21.6648   11.5816   53.2733 N   0  0  0  0  0  0  0  0  0  0  0  0
   21.2486   11.0153   54.5160 C   0  0  0  0  0  0  0  0  0  0  0  0
   20.6562    9.6251   54.3327 C   0  0  0  0  0  0  0  0  0  0  0  0
   21.3393   12.5840   53.1597 H   0  0  0  0  0  0  0  0  0  0  0  0
   22.9667    5.3899   53.8322 C   0  0  0  0  0  0  0  0  0  0  0  0
   21.6278    4.9753   54.3060 C   0  0  0  0  0  0  0  0  0  0  0  0
   20.5803    4.8945   53.2418 C   0  0  0  0  0  0  0  0  0  0  0  0
   20.0030    3.4971   53.2232 C   0  0  0  0  0  0  0  0  0  0  0  0
   17.7638    2.5606   52.6390 C   0  0  0  0  0  0  0  0  0  0  0  0
   16.4040    2.5267   52.8284 C   0  0  0  0  0  0  0  0  0  0  0  0
   15.7995    3.3450   53.7559 C   0  0  0  0  0  0  0  0  0  0  0  0
   16.5811    4.2055   54.4977 C   0  0  0  0  0  0  0  0  0  0  0  0
   17.9450    4.2498   54.3183 C   0  0  0  0  0  0  0  0  0  0  0  0
   18.5566    3.4192   53.3769 C   0  0  0  0  0  0  0  0  0  0  0  0
 43 44  2  0  0  0
 44 45  1  0  0  0
 45 46  2  0  0  0
 46 47  1  0  0  0
 47 48  2  0  0  0
 48 42  1  0  0  0
 42 41  1  0  0  0
 41 40  1  0  0  0
 40 39  1  0  0  0
 39 29  1  0  0  0
 29  1  1  0  0  0
  1  2  1  0  0  0
  2  5  1  0  0  0
  5  6  1  0  0  0
  6  7  1  0  0  0
  7  8  2  0  0  0
  8  9  1  0  0  0
  9 10  2  0  0  0
 10 11  1  0  0  0
 10 12  1  0  0  0
 12 13  2  0  0  0
 13 14  1  0  0  0
 14 15  1  0  0  0
 15 16  1  0  0  0
 16 17  1  0  0  0
 17 18  1  0  0  0
 18 25  1  0  0  0
 25 26  2  0  0  0
 25 27  1  0  0  0
 18 19  1  0  0  0
 19 20  1  0  0  0
 20 21  1  0  0  0
  2  3  2  0  0  0
 29 30  1  0  0  0
 30 31  2  0  0  0
 30 32  1  0  0  0
 32 33  1  0  0  0
 33 34  1  0  0  0
 34 35  1  0  0  0
 35 36  1  0  0  0
 36 37  1  0  0  0
 48 43  1  0  0  0
 21  5  1  0  0  0
 37 32  1  0  0  0
 13  7  1  0  0  0
 20 16  1  0  0  0
  1  4  1  0  0  0
 11 22  1  0  0  0
 15 23  1  0  0  0
 26 28  1  0  0  0
 21 24  1  0  0  0
 35 38  1  0  0  0
M  END
> <minimizedAffinity>
36.90459

> <CNNscore>
0.4635796547

> <CNNaffinity>
6.7723221779

> <CNN_VS>
3.1395108700

> <CNNaffinity_variance>
0.7193456888

$$$$
[H]N=C(N1C([H])([H])[C@@]2([H])N([H])C([H])([H])c3c([H])c(O[H])c([H])c([H])c3C([H])([H])[C@@]([H])(C(=O)N([H])[C@]([H])(C(=O)N3C([H])([H])C([H])([H])N([H])C([H])([H])C3([H])[H])C([H])([H])C([H])([H])C([H])([H])C([H])([H])c3c([H])c([H])c([H])c([H])c3[H])N([H])[C@]2([H])C1([H])[H])C([H])([H])[H]


 48 52  0  0  0  0  0  0  0  0999 V2000
   25.8127    9.0855   55.3614 N   0  0  0  0  0  0  0  0  0  0  0  0
   24.8833    8.2032   54.8293 C   0  0  0  0  0  0  0  0  0  0  0  0
   25.0689    6.9670   55.0395 O   0  0  0  0  0  0  0  0  0  0  0  0
   25.7427   10.1027   55.2197 H   0  0  0  0  0  0  0  0  0  0  0  0
   23.6791    8.5819   54.0240 C   0  0  0  0  0  0  0  0  0  0  0  0
   23.5134    7.6623   52.8336 C   0  0  0  0  0  0  0  0  0  0  0  0
   22.3870    6.7579   53.0511 C   0  0  0  0  0  0  0  0  0  0  0  0
   22.7186    5.5270   53.6271 C   0  0  0  0  0  0  0  0  0  0  0  0
   21.8189    4.5337   53.9148 C   0  0  0  0  0  0  0  0  0  0  0  0
   20.4968    4.7844   53.6066 C   0  0  0  0  0  0  0  0  0  0  0  0
   19.5378    3.8041   53.8800 O   0  0  0  0  0  0  0  0  0  0  0  0
   20.1654    5.9915   53.0399 C   0  0  0  0  0  0  0  0  0  0  0  0
   21.0814    6.9989   52.7485 C   0  0  0  0  0  0  0  0  0  0  0  0
   20.4789    8.1847   52.1267 C   0  0  0  0  0  0  0  0  0  0  0  0
   21.2039    9.3442   51.9662 N   0  0  0  0  0  0  0  0  0  0  0  0
   21.4964   10.1327   53.1224 C   0  0  0  0  0  0  0  0  0  0  0  0
   20.6354   11.3777   53.0812 C   0  0  0  0  0  0  0  0  0  0  0  0
   21.5419   12.4365   52.7512 N   0  0  0  0  0  0  0  0  0  0  0  0
   22.8201   12.1013   53.3736 C   0  0  0  0  0  0  0  0  0  0  0  0
   22.9079   10.6279   52.9431 C   0  0  0  0  0  0  0  0  0  0  0  0
   23.9284    9.9447   53.5983 N   0  0  0  0  0  0  0  0  0  0  0  0
   19.3566    3.1437   53.1517 H   0  0  0  0  0  0  0  0  0  0  0  0
   21.1689    9.8612   51.0829 H   0  0  0  0  0  0  0  0  0  0  0  0
   24.3727   10.4382   54.4035 H   0  0  0  0  0  0  0  0  0  0  0  0
   21.2041   13.5594   51.9702 C   0  0  0  0  0  0  0  0  0  0  0  0
   21.7863   13.7743   50.8603 N   0  0  0  0  0  0  0  0  0  0  0  0
   20.1648   14.4898   52.4491 C   0  0  0  0  0  0  0  0  0  0  0  0
   22.5172   13.1125   50.5311 H   0  0  0  0  0  0  0  0  0  0  0  0
   26.9873    8.6295   56.1649 C   0  0  0  0  0  0  0  0  0  0  0  0
   27.4143    9.7697   57.0023 C   0  0  0  0  0  0  0  0  0  0  0  0
   26.8890   10.8952   56.6519 O   0  0  0  0  0  0  0  0  0  0  0  0
   28.2731    9.8148   58.0873 N   0  0  0  0  0  0  0  0  0  0  0  0
   28.9201    8.6536   58.6230 C   0  0  0  0  0  0  0  0  0  0  0  0
   29.4336    8.9268   60.0209 C   0  0  0  0  0  0  0  0  0  0  0  0
   28.5508    9.7273   60.8147 N   0  0  0  0  0  0  0  0  0  0  0  0
   28.1308   10.9585   60.2265 C   0  0  0  0  0  0  0  0  0  0  0  0
   28.5833   11.0754   58.7778 C   0  0  0  0  0  0  0  0  0  0  0  0
   28.9793    9.8661   61.7742 H   0  0  0  0  0  0  0  0  0  0  0  0
   28.0373    8.3852   55.1026 C   0  0  0  0  0  0  0  0  0  0  0  0
   27.5490    8.2134   53.7166 C   0  0  0  0  0  0  0  0  0  0  0  0
   28.2295    9.0716   52.6983 C   0  0  0  0  0  0  0  0  0  0  0  0
   27.2575    9.3753   51.5806 C   0  0  0  0  0  0  0  0  0  0  0  0
   28.2425    8.6868   49.3924 C   0  0  0  0  0  0  0  0  0  0  0  0
   28.8086    9.0210   48.1866 C   0  0  0  0  0  0  0  0  0  0  0  0
   29.0132   10.3384   47.8434 C   0  0  0  0  0  0  0  0  0  0  0  0
   28.6405   11.3256   48.7312 C   0  0  0  0  0  0  0  0  0  0  0  0
   28.0721   11.0049   49.9430 C   0  0  0  0  0  0  0  0  0  0  0  0
   27.8654    9.6681   50.2896 C   0  0  0  0  0  0  0  0  0  0  0  0
 43 44  2  0  0  0
 44 45  1  0  0  0
 45 46  2  0  0  0
 46 47  1  0  0  0
 47 48  2  0  0  0
 48 42  1  0  0  0
 42 41  1  0  0  0
 41 40  1  0  0  0
 40 39  1  0  0  0
 39 29  1  0  0  0
 29  1  1  0  0  0
  1  2  1  0  0  0
  2  5  1  0  0  0
  5  6  1  0  0  0
  6  7  1  0  0  0
  7  8  2  0  0  0
  8  9  1  0  0  0
  9 10  2  0  0  0
 10 11  1  0  0  0
 10 12  1  0  0  0
 12 13  2  0  0  0
 13 14  1  0  0  0
 14 15  1  0  0  0
 15 16  1  0  0  0
 16 17  1  0  0  0
 17 18  1  0  0  0
 18 25  1  0  0  0
 25 26  2  0  0  0
 25 27  1  0  0  0
 18 19  1  0  0  0
 19 20  1  0  0  0
 20 21  1  0  0  0
  2  3  2  0  0  0
 29 30  1  0  0  0
 30 31  2  0  0  0
 30 32  1  0  0  0
 32 33  1  0  0  0
 33 34  1  0  0  0
 34 35  1  0  0  0
 35 36  1  0  0  0
 36 37  1  0  0  0
 48 43  1  0  0  0
 21  5  1  0  0  0
 37 32  1  0  0  0
 13  7  1  0  0  0
 20 16  1  0  0  0
  1  4  1  0  0  0
 11 22  1  0  0  0
 15 23  1  0  0  0
 26 28  1  0  0  0
 21 24  1  0  0  0
 35 38  1  0  0  0
M  END
> <minimizedAffinity>
40.03257

> <CNNscore>
0.3914481699

> <CNNaffinity>
6.7897210121

> <CNN_VS>
2.6578238010

> <CNNaffinity_variance>
1.9409414530

$$$$
[H]N=C(N1C([H])([H])[C@@]2([H])N([H])C([H])([H])c3c([H])c(O[H])c([H])c([H])c3C([H])([H])[C@@]([H])(C(=O)N([H])[C@]([H])(C(=O)N3C([H])([H])C([H])([H])N([H])C([H])([H])C3([H])[H])C([H])([H])C([H])([H])C([H])([H])C([H])([H])c3c([H])c([H])c([H])c([H])c3[H])N([H])[C@]2([H])C1([H])[H])C([H])([H])[H]


 48 52  0  0  0  0  0  0  0  0999 V2000
   24.5723    6.7847   54.9757 N   0  0  0  0  0  0  0  0  0  0  0  0
   25.1036    7.8959   54.3366 C   0  0  0  0  0  0  0  0  0  0  0  0
   24.4555    8.3664   53.3541 O   0  0  0  0  0  0  0  0  0  0  0  0
   25.0472    6.3328   55.7694 H   0  0  0  0  0  0  0  0  0  0  0  0
   26.3795    8.5887   54.7031 C   0  0  0  0  0  0  0  0  0  0  0  0
   27.5464    8.0203   53.9252 C   0  0  0  0  0  0  0  0  0  0  0  0
   27.9804    8.9715   52.9049 C   0  0  0  0  0  0  0  0  0  0  0  0
   27.3933    8.7993   51.6470 C   0  0  0  0  0  0  0  0  0  0  0  0
   27.6583    9.5777   50.5502 C   0  0  0  0  0  0  0  0  0  0  0  0
   28.5724   10.5983   50.7188 C   0  0  0  0  0  0  0  0  0  0  0  0
   28.8789   11.4224   49.6314 O   0  0  0  0  0  0  0  0  0  0  0  0
   29.1529   10.7716   51.9521 C   0  0  0  0  0  0  0  0  0  0  0  0
   28.8820    9.9794   53.0647 C   0  0  0  0  0  0  0  0  0  0  0  0
   29.6473   10.3559   54.2597 C   0  0  0  0  0  0  0  0  0  0  0  0
   29.3499    9.8132   55.4897 N   0  0  0  0  0  0  0  0  0  0  0  0
   28.1570   10.2378   56.1534 C   0  0  0  0  0  0  0  0  0  0  0  0
   28.5476   11.1298   57.3130 C   0  0  0  0  0  0  0  0  0  0  0  0
   28.3116   10.3339   58.4803 N   0  0  0  0  0  0  0  0  0  0  0  0
   27.1537    9.4936   58.1857 C   0  0  0  0  0  0  0  0  0  0  0  0
   27.5723    9.0037   56.7898 C   0  0  0  0  0  0  0  0  0  0  0  0
   26.5370    8.3532   56.1244 N   0  0  0  0  0  0  0  0  0  0  0  0
   29.6390   11.1298   49.0517 H   0  0  0  0  0  0  0  0  0  0  0  0
   30.0975    9.4810   56.1059 H   0  0  0  0  0  0  0  0  0  0  0  0
   25.5888    8.4342   56.5530 H   0  0  0  0  0  0  0  0  0  0  0  0
   29.0853   10.3959   59.6560 C   0  0  0  0  0  0  0  0  0  0  0  0
   29.5547    9.3357   60.1784 N   0  0  0  0  0  0  0  0  0  0  0  0
   29.3504   11.7050   60.2816 C   0  0  0  0  0  0  0  0  0  0  0  0
   29.3628    8.4179   59.7297 H   0  0  0  0  0  0  0  0  0  0  0  0
   23.2846    6.1536   54.5555 C   0  0  0  0  0  0  0  0  0  0  0  0
   22.9539    6.6830   53.2161 C   0  0  0  0  0  0  0  0  0  0  0  0
   23.8933    6.5170   52.3470 O   0  0  0  0  0  0  0  0  0  0  0  0
   21.8107    7.3153   52.7578 N   0  0  0  0  0  0  0  0  0  0  0  0
   20.6637    7.5550   53.5829 C   0  0  0  0  0  0  0  0  0  0  0  0
   19.4483    7.8561   52.7318 C   0  0  0  0  0  0  0  0  0  0  0  0
   19.3646    7.0629   51.5427 N   0  0  0  0  0  0  0  0  0  0  0  0
   20.5249    7.0659   50.7110 C   0  0  0  0  0  0  0  0  0  0  0  0
   21.6906    7.7890   51.3708 C   0  0  0  0  0  0  0  0  0  0  0  0
   18.4880    7.3303   51.0102 H   0  0  0  0  0  0  0  0  0  0  0  0
   22.3003    6.7161   55.5582 C   0  0  0  0  0  0  0  0  0  0  0  0
   22.4691    8.1397   55.9242 C   0  0  0  0  0  0  0  0  0  0  0  0
   21.3964    9.0512   55.4194 C   0  0  0  0  0  0  0  0  0  0  0  0
   22.0015   10.4026   55.1131 C   0  0  0  0  0  0  0  0  0  0  0  0
   21.6088   10.0539   52.6725 C   0  0  0  0  0  0  0  0  0  0  0  0
   21.3998   10.5700   51.4171 C   0  0  0  0  0  0  0  0  0  0  0  0
   21.3561   11.9304   51.2111 C   0  0  0  0  0  0  0  0  0  0  0  0
   21.5259   12.7749   52.2879 C   0  0  0  0  0  0  0  0  0  0  0  0
   21.7361   12.2713   53.5515 C   0  0  0  0  0  0  0  0  0  0  0  0
   21.7803   10.8910   53.7587 C   0  0  0  0  0  0  0  0  0  0  0  0
 43 44  2  0  0  0
 44 45  1  0  0  0
 45 46  2  0  0  0
 46 47  1  0  0  0
 47 48  2  0  0  0
 48 42  1  0  0  0
 42 41  1  0  0  0
 41 40  1  0  0  0
 40 39  1  0  0  0
 39 29  1  0  0  0
 29  1  1  0  0  0
  1  2  1  0  0  0
  2  5  1  0  0  0
  5  6  1  0  0  0
  6  7  1  0  0  0
  7  8  2  0  0  0
  8  9  1  0  0  0
  9 10  2  0  0  0
 10 11  1  0  0  0
 10 12  1  0  0  0
 12 13  2  0  0  0
 13 14  1  0  0  0
 14 15  1  0  0  0
 15 16  1  0  0  0
 16 17  1  0  0  0
 17 18  1  0  0  0
 18 25  1  0  0  0
 25 26  2  0  0  0
 25 27  1  0  0  0
 18 19  1  0  0  0
 19 20  1  0  0  0
 20 21  1  0  0  0
  2  3  2  0  0  0
 29 30  1  0  0  0
 30 31  2  0  0  0
 30 32  1  0  0  0
 32 33  1  0  0  0
 33 34  1  0  0  0
 34 35  1  0  0  0
 35 36  1  0  0  0
 36 37  1  0  0  0
 48 43  1  0  0  0
 21  5  1  0  0  0
 37 32  1  0  0  0
 13  7  1  0  0  0
 20 16  1  0  0  0
  1  4  1  0  0  0
 11 22  1  0  0  0
 15 23  1  0  0  0
 26 28  1  0  0  0
 21 24  1  0  0  0
 35 38  1  0  0  0
M  END
> <minimizedAffinity>
35.19843

> <CNNscore>
0.3894808590

> <CNNaffinity>
6.7578430176

> <CNN_VS>
2.6320505142

> <CNNaffinity_variance>
1.3355004787

$$$$
[H]N=C(N1C([H])([H])[C@@]2([H])N([H])C([H])([H])c3c([H])c(O[H])c([H])c([H])c3C([H])([H])[C@@]([H])(C(=O)N([H])[C@]([H])(C(=O)N3C([H])([H])C([H])([H])N([H])C([H])([H])C3([H])[H])C([H])([H])C([H])([H])C([H])([H])C([H])([H])c3c([H])c([H])c([H])c([H])c3[H])N([H])[C@]2([H])C1([H])[H])C([H])([H])[H]


 48 52  0  0  0  0  0  0  0  0999 V2000
   23.2177    9.6861   55.5428 N   0  0  0  0  0  0  0  0  0  0  0  0
   24.0544    9.3719   56.6041 C   0  0  0  0  0  0  0  0  0  0  0  0
   23.5064    9.0716   57.7070 O   0  0  0  0  0  0  0  0  0  0  0  0
   23.5851    9.9581   54.6204 H   0  0  0  0  0  0  0  0  0  0  0  0
   25.5512    9.3591   56.5638 C   0  0  0  0  0  0  0  0  0  0  0  0
   26.0629    8.1156   55.8696 C   0  0  0  0  0  0  0  0  0  0  0  0
   26.5908    8.4581   54.5512 C   0  0  0  0  0  0  0  0  0  0  0  0
   25.6734    8.3524   53.5005 C   0  0  0  0  0  0  0  0  0  0  0  0
   25.9580    8.6236   52.1873 C   0  0  0  0  0  0  0  0  0  0  0  0
   27.2467    9.0276   51.9015 C   0  0  0  0  0  0  0  0  0  0  0  0
   27.5899    9.3171   50.5771 O   0  0  0  0  0  0  0  0  0  0  0  0
   28.1523    9.1324   52.9295 C   0  0  0  0  0  0  0  0  0  0  0  0
   27.8606    8.8562   54.2628 C   0  0  0  0  0  0  0  0  0  0  0  0
   29.0056    9.0246   55.1662 C   0  0  0  0  0  0  0  0  0  0  0  0
   28.8386    8.9935   56.5325 N   0  0  0  0  0  0  0  0  0  0  0  0
   28.2075   10.1072   57.1692 C   0  0  0  0  0  0  0  0  0  0  0  0
   29.2643   10.8892   57.9206 C   0  0  0  0  0  0  0  0  0  0  0  0
   29.0153   10.6035   59.3019 N   0  0  0  0  0  0  0  0  0  0  0  0
   27.5697   10.4484   59.4423 C   0  0  0  0  0  0  0  0  0  0  0  0
   27.3175    9.5273   58.2375 C   0  0  0  0  0  0  0  0  0  0  0  0
   25.9621    9.3861   57.9534 N   0  0  0  0  0  0  0  0  0  0  0  0
   27.9392    8.5557   50.0315 H   0  0  0  0  0  0  0  0  0  0  0  0
   29.4843    8.4615   57.1232 H   0  0  0  0  0  0  0  0  0  0  0  0
   25.3153   10.0381   58.4491 H   0  0  0  0  0  0  0  0  0  0  0  0
   30.0171   10.5033   60.2875 C   0  0  0  0  0  0  0  0  0  0  0  0
   30.5040    9.3716   60.6024 N   0  0  0  0  0  0  0  0  0  0  0  0
   30.5017   11.7255   60.9559 C   0  0  0  0  0  0  0  0  0  0  0  0
   30.1562    8.5160   60.1253 H   0  0  0  0  0  0  0  0  0  0  0  0
   21.7280    9.6674   55.6592 C   0  0  0  0  0  0  0  0  0  0  0  0
   21.2581    8.3986   55.0651 C   0  0  0  0  0  0  0  0  0  0  0  0
   20.1178    8.4967   54.4688 O   0  0  0  0  0  0  0  0  0  0  0  0
   21.8440    7.1443   55.0474 N   0  0  0  0  0  0  0  0  0  0  0  0
   23.1197    6.8671   55.6386 C   0  0  0  0  0  0  0  0  0  0  0  0
   23.6836    5.5675   55.1045 C   0  0  0  0  0  0  0  0  0  0  0  0
   23.4439    5.3642   53.7075 N   0  0  0  0  0  0  0  0  0  0  0  0
   22.0855    5.4879   53.2859 C   0  0  0  0  0  0  0  0  0  0  0  0
   21.1897    5.9927   54.4084 C   0  0  0  0  0  0  0  0  0  0  0  0
   23.8729    4.4404   53.4143 H   0  0  0  0  0  0  0  0  0  0  0  0
   21.3134   10.8103   54.7578 C   0  0  0  0  0  0  0  0  0  0  0  0
   22.2696   11.1968   53.6970 C   0  0  0  0  0  0  0  0  0  0  0  0
   21.7555   12.2097   52.7243 C   0  0  0  0  0  0  0  0  0  0  0  0
   21.4602   11.5247   51.4090 C   0  0  0  0  0  0  0  0  0  0  0  0
   20.2000    9.3933   51.0905 C   0  0  0  0  0  0  0  0  0  0  0  0
   20.1426    8.0236   51.1716 C   0  0  0  0  0  0  0  0  0  0  0  0
   21.2158    7.2981   51.6374 C   0  0  0  0  0  0  0  0  0  0  0  0
   22.3575    7.9678   52.0245 C   0  0  0  0  0  0  0  0  0  0  0  0
   22.4287    9.3403   51.9484 C   0  0  0  0  0  0  0  0  0  0  0  0
   21.3391   10.0747   51.4758 C   0  0  0  0  0  0  0  0  0  0  0  0
 43 44  2  0  0  0
 44 45  1  0  0  0
 45 46  2  0  0  0
 46 47  1  0  0  0
 47 48  2  0  0  0
 48 42  1  0  0  0
 42 41  1  0  0  0
 41 40  1  0  0  0
 40 39  1  0  0  0
 39 29  1  0  0  0
 29  1  1  0  0  0
  1  2  1  0  0  0
  2  5  1  0  0  0
  5  6  1  0  0  0
  6  7  1  0  0  0
  7  8  2  0  0  0
  8  9  1  0  0  0
  9 10  2  0  0  0
 10 11  1  0  0  0
 10 12  1  0  0  0
 12 13  2  0  0  0
 13 14  1  0  0  0
 14 15  1  0  0  0
 15 16  1  0  0  0
 16 17  1  0  0  0
 17 18  1  0  0  0
 18 25  1  0  0  0
 25 26  2  0  0  0
 25 27  1  0  0  0
 18 19  1  0  0  0
 19 20  1  0  0  0
 20 21  1  0  0  0
  2  3  2  0  0  0
 29 30  1  0  0  0
 30 31  2  0  0  0
 30 32  1  0  0  0
 32 33  1  0  0  0
 33 34  1  0  0  0
 34 35  1  0  0  0
 35 36  1  0  0  0
 36 37  1  0  0  0
 48 43  1  0  0  0
 21  5  1  0  0  0
 37 32  1  0  0  0
 13  7  1  0  0  0
 20 16  1  0  0  0
  1  4  1  0  0  0
 11 22  1  0  0  0
 15 23  1  0  0  0
 26 28  1  0  0  0
 21 24  1  0  0  0
 35 38  1  0  0  0
M  END
> <minimizedAffinity>
36.73272

> <CNNscore>
0.3882339299

> <CNNaffinity>
6.5976042747

> <CNN_VS>
2.5614137650

> <CNNaffinity_variance>
0.6248291135

$$$$
[H]N=C(N1C([H])([H])[C@@]2([H])N([H])C([H])([H])c3c([H])c(O[H])c([H])c([H])c3C([H])([H])[C@@]([H])(C(=O)N([H])[C@]([H])(C(=O)N3C([H])([H])C([H])([H])N([H])C([H])([H])C3([H])[H])C([H])([H])C([H])([H])C([H])([H])C([H])([H])c3c([H])c([H])c([H])c([H])c3[H])N([H])[C@]2([H])C1([H])[H])C([H])([H])[H]


 48 52  0  0  0  0  0  0  0  0999 V2000
   23.6283    7.9421   54.5811 N   0  0  0  0  0  0  0  0  0  0  0  0
   24.2529    8.9146   55.3489 C   0  0  0  0  0  0  0  0  0  0  0  0
   23.5118    9.7753   55.9118 O   0  0  0  0  0  0  0  0  0  0  0  0
   24.1609    7.2193   54.0774 H   0  0  0  0  0  0  0  0  0  0  0  0
   25.7285    9.0403   55.5699 C   0  0  0  0  0  0  0  0  0  0  0  0
   26.4849    7.9955   54.7786 C   0  0  0  0  0  0  0  0  0  0  0  0
   27.1694    8.6196   53.6490 C   0  0  0  0  0  0  0  0  0  0  0  0
   26.4471    8.6294   52.4511 C   0  0  0  0  0  0  0  0  0  0  0  0
   26.9006    9.1615   51.2720 C   0  0  0  0  0  0  0  0  0  0  0  0
   28.1618    9.7224   51.2879 C   0  0  0  0  0  0  0  0  0  0  0  0
   28.6725   10.2796   50.1114 O   0  0  0  0  0  0  0  0  0  0  0  0
   28.8763    9.7149   52.4616 C   0  0  0  0  0  0  0  0  0  0  0  0
   28.4133    9.1736   53.6581 C   0  0  0  0  0  0  0  0  0  0  0  0
   29.3746    9.2722   54.7634 C   0  0  0  0  0  0  0  0  0  0  0  0
   29.0000    8.9756   56.0547 N   0  0  0  0  0  0  0  0  0  0  0  0
   28.1507    9.8936   56.7476 C   0  0  0  0  0  0  0  0  0  0  0  0
   28.9776   10.6132   57.7923 C   0  0  0  0  0  0  0  0  0  0  0  0
   28.5499   10.0575   59.0413 N   0  0  0  0  0  0  0  0  0  0  0  0
   27.1284    9.7534   58.8984 C   0  0  0  0  0  0  0  0  0  0  0  0
   27.1781    9.0513   57.5315 C   0  0  0  0  0  0  0  0  0  0  0  0
   25.9102    8.8469   56.9947 N   0  0  0  0  0  0  0  0  0  0  0  0
   29.1898    9.6652   49.5161 H   0  0  0  0  0  0  0  0  0  0  0  0
   29.6027    8.4025   56.6522 H   0  0  0  0  0  0  0  0  0  0  0  0
   25.1217    9.3374   57.4711 H   0  0  0  0  0  0  0  0  0  0  0  0
   29.3893    9.8655   60.1564 C   0  0  0  0  0  0  0  0  0  0  0  0
   29.6925    8.6929   60.5439 N   0  0  0  0  0  0  0  0  0  0  0  0
   29.9185   11.0391   60.8763 C   0  0  0  0  0  0  0  0  0  0  0  0
   29.3149    7.8723   60.0296 H   0  0  0  0  0  0  0  0  0  0  0  0
   22.1446    7.8771   54.4157 C   0  0  0  0  0  0  0  0  0  0  0  0
   21.8140    6.5106   53.9607 C   0  0  0  0  0  0  0  0  0  0  0  0
   22.8032    5.6854   54.0379 O   0  0  0  0  0  0  0  0  0  0  0  0
   20.6270    5.9882   53.4760 N   0  0  0  0  0  0  0  0  0  0  0  0
   19.4253    6.7590   53.3506 C   0  0  0  0  0  0  0  0  0  0  0  0
   18.2216    5.8511   53.2127 C   0  0  0  0  0  0  0  0  0  0  0  0
   18.2811    4.6830   54.0388 N   0  0  0  0  0  0  0  0  0  0  0  0
   19.4686    3.8992   53.9218 C   0  0  0  0  0  0  0  0  0  0  0  0
   20.5140    4.5844   53.0530 C   0  0  0  0  0  0  0  0  0  0  0  0
   17.4037    4.1079   53.8874 H   0  0  0  0  0  0  0  0  0  0  0  0
   21.8981    8.8428   53.2766 C   0  0  0  0  0  0  0  0  0  0  0  0
   21.1151   10.0568   53.5960 C   0  0  0  0  0  0  0  0  0  0  0  0
   21.8393   11.3476   53.3824 C   0  0  0  0  0  0  0  0  0  0  0  0
   21.5931   11.8230   51.9683 C   0  0  0  0  0  0  0  0  0  0  0  0
   21.3651   14.0091   50.7845 C   0  0  0  0  0  0  0  0  0  0  0  0
   20.8423   15.2775   50.7220 C   0  0  0  0  0  0  0  0  0  0  0  0
   20.0155   15.7504   51.7160 C   0  0  0  0  0  0  0  0  0  0  0  0
   19.7164   14.9295   52.7829 C   0  0  0  0  0  0  0  0  0  0  0  0
   20.2333   13.6560   52.8582 C   0  0  0  0  0  0  0  0  0  0  0  0
   21.0719   13.1780   51.8491 C   0  0  0  0  0  0  0  0  0  0  0  0
 43 44  2  0  0  0
 44 45  1  0  0  0
 45 46  2  0  0  0
 46 47  1  0  0  0
 47 48  2  0  0  0
 48 42  1  0  0  0
 42 41  1  0  0  0
 41 40  1  0  0  0
 40 39  1  0  0  0
 39 29  1  0  0  0
 29  1  1  0  0  0
  1  2  1  0  0  0
  2  5  1  0  0  0
  5  6  1  0  0  0
  6  7  1  0  0  0
  7  8  2  0  0  0
  8  9  1  0  0  0
  9 10  2  0  0  0
 10 11  1  0  0  0
 10 12  1  0  0  0
 12 13  2  0  0  0
 13 14  1  0  0  0
 14 15  1  0  0  0
 15 16  1  0  0  0
 16 17  1  0  0  0
 17 18  1  0  0  0
 18 25  1  0  0  0
 25 26  2  0  0  0
 25 27  1  0  0  0
 18 19  1  0  0  0
 19 20  1  0  0  0
 20 21  1  0  0  0
  2  3  2  0  0  0
 29 30  1  0  0  0
 30 31  2  0  0  0
 30 32  1  0  0  0
 32 33  1  0  0  0
 33 34  1  0  0  0
 34 35  1  0  0  0
 35 36  1  0  0  0
 36 37  1  0  0  0
 48 43  1  0  0  0
 21  5  1  0  0  0
 37 32  1  0  0  0
 13  7  1  0  0  0
 20 16  1  0  0  0
  1  4  1  0  0  0
 11 22  1  0  0  0
 15 23  1  0  0  0
 26 28  1  0  0  0
 21 24  1  0  0  0
 35 38  1  0  0  0
M  END
> <minimizedAffinity>
41.37495

> <CNNscore>
0.3839073181

> <CNNaffinity>
6.7078118324

> <CNN_VS>
2.5751781464

> <CNNaffinity_variance>
1.5627210140

$$$$
[H]N=C(N1C([H])([H])[C@@]2([H])N([H])C([H])([H])c3c([H])c(O[H])c([H])c([H])c3C([H])([H])[C@@]([H])(C(=O)N([H])[C@]([H])(C(=O)N3C([H])([H])C([H])([H])N([H])C([H])([H])C3([H])[H])C([H])([H])C([H])([H])C([H])([H])C([H])([H])c3c([H])c([H])c([H])c([H])c3[H])N([H])[C@]2([H])C1([H])[H])C([H])([H])[H]


 48 52  0  0  0  0  0  0  0  0999 V2000
   25.6841    8.6817   52.8181 N   0  0  0  0  0  0  0  0  0  0  0  0
   24.7054    8.4567   53.7757 C   0  0  0  0  0  0  0  0  0  0  0  0
   25.0634    8.4892   54.9913 O   0  0  0  0  0  0  0  0  0  0  0  0
   25.4776    8.6539   51.8100 H   0  0  0  0  0  0  0  0  0  0  0  0
   23.2608    8.1750   53.5004 C   0  0  0  0  0  0  0  0  0  0  0  0
   22.3805    9.2754   54.0520 C   0  0  0  0  0  0  0  0  0  0  0  0
   21.8494   10.0879   52.9603 C   0  0  0  0  0  0  0  0  0  0  0  0
   22.6114   11.2154   52.6365 C   0  0  0  0  0  0  0  0  0  0  0  0
   22.2955   12.1120   51.6490 C   0  0  0  0  0  0  0  0  0  0  0  0
   21.1396   11.8682   50.9348 C   0  0  0  0  0  0  0  0  0  0  0  0
   20.7713   12.7523   49.9159 O   0  0  0  0  0  0  0  0  0  0  0  0
   20.3867   10.7626   51.2490 C   0  0  0  0  0  0  0  0  0  0  0  0
   20.7098    9.8533   52.2528 C   0  0  0  0  0  0  0  0  0  0  0  0
   19.7328    8.7679   52.4048 C   0  0  0  0  0  0  0  0  0  0  0  0
   20.0038    7.6797   53.2037 N   0  0  0  0  0  0  0  0  0  0  0  0
   20.9595    6.7188   52.7483 C   0  0  0  0  0  0  0  0  0  0  0  0
   20.2162    5.4676   52.3299 C   0  0  0  0  0  0  0  0  0  0  0  0
   20.5000    4.5138   53.3601 N   0  0  0  0  0  0  0  0  0  0  0  0
   21.8598    4.7864   53.8186 C   0  0  0  0  0  0  0  0  0  0  0  0
   21.7540    6.3134   53.9624 C   0  0  0  0  0  0  0  0  0  0  0  0
   22.9939    6.9136   54.1625 N   0  0  0  0  0  0  0  0  0  0  0  0
   20.1872   13.5189   50.1816 H   0  0  0  0  0  0  0  0  0  0  0  0
   19.2943    7.3181   53.8478 H   0  0  0  0  0  0  0  0  0  0  0  0
   23.8305    6.3082   54.0117 H   0  0  0  0  0  0  0  0  0  0  0  0
   19.5968    3.5271   53.8024 C   0  0  0  0  0  0  0  0  0  0  0  0
   19.2762    3.4470   55.0303 N   0  0  0  0  0  0  0  0  0  0  0  0
   19.0210    2.5818   52.8275 C   0  0  0  0  0  0  0  0  0  0  0  0
   19.6871    4.1181   55.7096 H   0  0  0  0  0  0  0  0  0  0  0  0
   27.1074    8.9665   53.1733 C   0  0  0  0  0  0  0  0  0  0  0  0
   27.9392    8.5299   52.0327 C   0  0  0  0  0  0  0  0  0  0  0  0
   28.3446    7.3081   52.1248 O   0  0  0  0  0  0  0  0  0  0  0  0
   28.3407    9.2165   50.8995 N   0  0  0  0  0  0  0  0  0  0  0  0
   27.9583   10.5706   50.6273 C   0  0  0  0  0  0  0  0  0  0  0  0
   28.1730   10.9016   49.1656 C   0  0  0  0  0  0  0  0  0  0  0  0
   27.8342    9.8328   48.2752 N   0  0  0  0  0  0  0  0  0  0  0  0
   28.4410    8.5720   48.5587 C   0  0  0  0  0  0  0  0  0  0  0  0
   29.1976    8.5939   49.8794 C   0  0  0  0  0  0  0  0  0  0  0  0
   28.0071   10.1464   47.2775 H   0  0  0  0  0  0  0  0  0  0  0  0
   27.3489    8.0312   54.3385 C   0  0  0  0  0  0  0  0  0  0  0  0
   28.4221    8.4135   55.2825 C   0  0  0  0  0  0  0  0  0  0  0  0
   28.1087    9.5916   56.1486 C   0  0  0  0  0  0  0  0  0  0  0  0
   27.6143    9.0997   57.4902 C   0  0  0  0  0  0  0  0  0  0  0  0
   28.9982    8.5292   59.4882 C   0  0  0  0  0  0  0  0  0  0  0  0
   29.7776    8.9273   60.5465 C   0  0  0  0  0  0  0  0  0  0  0  0
   30.0265   10.2613   60.7778 C   0  0  0  0  0  0  0  0  0  0  0  0
   29.4799   11.2000   59.9282 C   0  0  0  0  0  0  0  0  0  0  0  0
   28.6969   10.8151   58.8637 C   0  0  0  0  0  0  0  0  0  0  0  0
   28.4453    9.4614   58.6305 C   0  0  0  0  0  0  0  0  0  0  0  0
 43 44  2  0  0  0
 44 45  1  0  0  0
 45 46  2  0  0  0
 46 47  1  0  0  0
 47 48  2  0  0  0
 48 42  1  0  0  0
 42 41  1  0  0  0
 41 40  1  0  0  0
 40 39  1  0  0  0
 39 29  1  0  0  0
 29  1  1  0  0  0
  1  2  1  0  0  0
  2  5  1  0  0  0
  5  6  1  0  0  0
  6  7  1  0  0  0
  7  8  2  0  0  0
  8  9  1  0  0  0
  9 10  2  0  0  0
 10 11  1  0  0  0
 10 12  1  0  0  0
 12 13  2  0  0  0
 13 14  1  0  0  0
 14 15  1  0  0  0
 15 16  1  0  0  0
 16 17  1  0  0  0
 17 18  1  0  0  0
 18 25  1  0  0  0
 25 26  2  0  0  0
 25 27  1  0  0  0
 18 19  1  0  0  0
 19 20  1  0  0  0
 20 21  1  0  0  0
  2  3  2  0  0  0
 29 30  1  0  0  0
 30 31  2  0  0  0
 30 32  1  0  0  0
 32 33  1  0  0  0
 33 34  1  0  0  0
 34 35  1  0  0  0
 35 36  1  0  0  0
 36 37  1  0  0  0
 48 43  1  0  0  0
 21  5  1  0  0  0
 37 32  1  0  0  0
 13  7  1  0  0  0
 20 16  1  0  0  0
  1  4  1  0  0  0
 11 22  1  0  0  0
 15 23  1  0  0  0
 26 28  1  0  0  0
 21 24  1  0  0  0
 35 38  1  0  0  0
M  END
> <minimizedAffinity>
42.68693

> <CNNscore>
0.2563649714

> <CNNaffinity>
6.3001546860

> <CNN_VS>
1.6151390076

> <CNNaffinity_variance>
1.4888042212

$$$$
[H]N=C(N1C([H])([H])[C@@]2([H])N([H])C([H])([H])c3c([H])c(O[H])c([H])c([H])c3C([H])([H])[C@@]([H])(C(=O)N([H])[C@]([H])(C(=O)N3C([H])([H])C([H])([H])N([H])C([H])([H])C3([H])[H])C([H])([H])C([H])([H])C([H])([H])C([H])([H])c3c([H])c([H])c([H])c([H])c3[H])N([H])[C@]2([H])C1([H])[H])C([H])([H])[H]


 48 52  0  0  0  0  0  0  0  0999 V2000
   23.6335    9.2621   55.1747 N   0  0  0  0  0  0  0  0  0  0  0  0
   24.7592    8.7118   54.5787 C   0  0  0  0  0  0  0  0  0  0  0  0
   24.5720    7.8759   53.6443 O   0  0  0  0  0  0  0  0  0  0  0  0
   23.7009    9.9339   55.9519 H   0  0  0  0  0  0  0  0  0  0  0  0
   26.1791    9.0155   54.9440 C   0  0  0  0  0  0  0  0  0  0  0  0
   27.1392    8.1879   54.1174 C   0  0  0  0  0  0  0  0  0  0  0  0
   27.8044    9.0310   53.1271 C   0  0  0  0  0  0  0  0  0  0  0  0
   27.1790    9.0816   51.8768 C   0  0  0  0  0  0  0  0  0  0  0  0
   27.6338    9.8078   50.8069 C   0  0  0  0  0  0  0  0  0  0  0  0
   28.7926   10.5337   50.9961 C   0  0  0  0  0  0  0  0  0  0  0  0
   29.2998   11.2922   49.9364 O   0  0  0  0  0  0  0  0  0  0  0  0
   29.4116   10.4872   52.2219 C   0  0  0  0  0  0  0  0  0  0  0  0
   28.9476    9.7485   53.3072 C   0  0  0  0  0  0  0  0  0  0  0  0
   29.7993    9.8489   54.4989 C   0  0  0  0  0  0  0  0  0  0  0  0
   29.3789    9.3520   55.7122 N   0  0  0  0  0  0  0  0  0  0  0  0
   28.3535   10.0535   56.4195 C   0  0  0  0  0  0  0  0  0  0  0  0
   28.9844   10.7528   57.6053 C   0  0  0  0  0  0  0  0  0  0  0  0
   28.5535    9.9987   58.7443 N   0  0  0  0  0  0  0  0  0  0  0  0
   27.2077    9.5179   58.4421 C   0  0  0  0  0  0  0  0  0  0  0  0
   27.4623    8.9967   57.0183 C   0  0  0  0  0  0  0  0  0  0  0  0
   26.2821    8.6819   56.3507 N   0  0  0  0  0  0  0  0  0  0  0  0
   29.9455   10.8312   49.3282 H   0  0  0  0  0  0  0  0  0  0  0  0
   30.0146    8.8021   56.2972 H   0  0  0  0  0  0  0  0  0  0  0  0
   25.3963    8.9975   56.8036 H   0  0  0  0  0  0  0  0  0  0  0  0
   29.3276    9.7953   59.9037 C   0  0  0  0  0  0  0  0  0  0  0  0
   29.6020    8.6187   60.3003 N   0  0  0  0  0  0  0  0  0  0  0  0
   29.8217   10.9614   60.6596 C   0  0  0  0  0  0  0  0  0  0  0  0
   29.2495    7.8033   59.7604 H   0  0  0  0  0  0  0  0  0  0  0  0
   22.2446    8.9145   54.7465 C   0  0  0  0  0  0  0  0  0  0  0  0
   21.5315   10.1849   54.4995 C   0  0  0  0  0  0  0  0  0  0  0  0
   21.1362   10.7752   55.5769 O   0  0  0  0  0  0  0  0  0  0  0  0
   21.2305   10.8293   53.3116 N   0  0  0  0  0  0  0  0  0  0  0  0
   21.6184   10.3258   52.0271 C   0  0  0  0  0  0  0  0  0  0  0  0
   21.5396   11.4172   50.9807 C   0  0  0  0  0  0  0  0  0  0  0  0
   21.9766   12.6982   51.4478 N   0  0  0  0  0  0  0  0  0  0  0  0
   21.3631   13.1637   52.6499 C   0  0  0  0  0  0  0  0  0  0  0  0
   20.4836   12.0957   53.2850 C   0  0  0  0  0  0  0  0  0  0  0  0
   21.8954   13.4000   50.6576 H   0  0  0  0  0  0  0  0  0  0  0  0
   21.6702    8.2670   55.9882 C   0  0  0  0  0  0  0  0  0  0  0  0
   21.6731    6.7880   56.0249 C   0  0  0  0  0  0  0  0  0  0  0  0
   22.9149    6.1473   55.4921 C   0  0  0  0  0  0  0  0  0  0  0  0
   22.6060    5.5073   54.1574 C   0  0  0  0  0  0  0  0  0  0  0  0
   20.3928    6.3967   53.4204 C   0  0  0  0  0  0  0  0  0  0  0  0
   19.6471    7.1584   52.5545 C   0  0  0  0  0  0  0  0  0  0  0  0
   20.2451    7.8386   51.5178 C   0  0  0  0  0  0  0  0  0  0  0  0
   21.6117    7.7454   51.3578 C   0  0  0  0  0  0  0  0  0  0  0  0
   22.3712    6.9857   52.2183 C   0  0  0  0  0  0  0  0  0  0  0  0
   21.7629    6.2961   53.2693 C   0  0  0  0  0  0  0  0  0  0  0  0
 43 44  2  0  0  0
 44 45  1  0  0  0
 45 46  2  0  0  0
 46 47  1  0  0  0
 47 48  2  0  0  0
 48 42  1  0  0  0
 42 41  1  0  0  0
 41 40  1  0  0  0
 40 39  1  0  0  0
 39 29  1  0  0  0
 29  1  1  0  0  0
  1  2  1  0  0  0
  2  5  1  0  0  0
  5  6  1  0  0  0
  6  7  1  0  0  0
  7  8  2  0  0  0
  8  9  1  0  0  0
  9 10  2  0  0  0
 10 11  1  0  0  0
 10 12  1  0  0  0
 12 13  2  0  0  0
 13 14  1  0  0  0
 14 15  1  0  0  0
 15 16  1  0  0  0
 16 17  1  0  0  0
 17 18  1  0  0  0
 18 25  1  0  0  0
 25 26  2  0  0  0
 25 27  1  0  0  0
 18 19  1  0  0  0
 19 20  1  0  0  0
 20 21  1  0  0  0
  2  3  2  0  0  0
 29 30  1  0  0  0
 30 31  2  0  0  0
 30 32  1  0  0  0
 32 33  1  0  0  0
 33 34  1  0  0  0
 34 35  1  0  0  0
 35 36  1  0  0  0
 36 37  1  0  0  0
 48 43  1  0  0  0
 21  5  1  0  0  0
 37 32  1  0  0  0
 13  7  1  0  0  0
 20 16  1  0  0  0
  1  4  1  0  0  0
 11 22  1  0  0  0
 15 23  1  0  0  0
 26 28  1  0  0  0
 21 24  1  0  0  0
 35 38  1  0  0  0
M  END
> <minimizedAffinity>
37.32699

> <CNNscore>
0.2540203929

> <CNNaffinity>
6.5766539574

> <CNN_VS>
1.6706042290

> <CNNaffinity_variance>
1.4535174370

$$$$
[H]OC([H])([H])C(=O)[C@@]1(O[H])C([H])([H])C([H])([H])[C@]2([H])[C@]1(C([H])([H])[H])C([H])([H])C([H])([H])[C@]1([H])[C@]3(C([H])([H])[H])C(=C([H])C(=O)C([H])([H])C3([H])[H])C([H])([H])C([H])([H])[C@@]21[H]


 27 30  0  0  0  0  0  0  0  0999 V2000
   26.2824    8.1720   57.3428 C   0  0  0  0  0  0  0  0  0  0  0  0
   26.4010    9.1214   56.2113 C   0  0  0  0  0  0  0  0  0  0  0  0
   25.3376   10.1767   56.1850 C   0  0  0  0  0  0  0  0  0  0  0  0
   24.0164    9.5684   55.8301 C   0  0  0  0  0  0  0  0  0  0  0  0
   24.0908    8.9323   54.4348 C   0  0  0  0  0  0  0  0  0  0  0  0
   25.0936    7.7860   54.5797 C   0  0  0  0  0  0  0  0  0  0  0  0
   25.1106    6.9204   53.3402 C   0  0  0  0  0  0  0  0  0  0  0  0
   23.7486    6.2126   53.3093 C   0  0  0  0  0  0  0  0  0  0  0  0
   22.7581    7.3243   53.0773 C   0  0  0  0  0  0  0  0  0  0  0  0
   21.9085    7.1833   52.0737 C   0  0  0  0  0  0  0  0  0  0  0  0
   20.9062    8.1820   51.7460 C   0  0  0  0  0  0  0  0  0  0  0  0
   20.1907    8.1021   50.7147 O   0  0  0  0  0  0  0  0  0  0  0  0
   20.7545    9.3288   52.6974 C   0  0  0  0  0  0  0  0  0  0  0  0
   22.1443    9.6618   53.1876 C   0  0  0  0  0  0  0  0  0  0  0  0
   22.7614    8.5004   53.9448 C   0  0  0  0  0  0  0  0  0  0  0  0
   21.8059    8.2116   55.1094 C   0  0  0  0  0  0  0  0  0  0  0  0
   26.3875    8.4366   54.8558 C   0  0  0  0  0  0  0  0  0  0  0  0
   27.5949    7.5749   54.9562 C   0  0  0  0  0  0  0  0  0  0  0  0
   28.5855    8.4586   55.7280 C   0  0  0  0  0  0  0  0  0  0  0  0
   27.7975    9.6814   56.1449 C   0  0  0  0  0  0  0  0  0  0  0  0
   27.8442   10.6674   55.1392 O   0  0  0  0  0  0  0  0  0  0  0  0
   28.4321   10.3744   54.3940 H   0  0  0  0  0  0  0  0  0  0  0  0
   28.2864   10.2045   57.4276 C   0  0  0  0  0  0  0  0  0  0  0  0
   28.6830    9.4401   58.2807 O   0  0  0  0  0  0  0  0  0  0  0  0
   28.3342   11.6504   57.7729 C   0  0  0  0  0  0  0  0  0  0  0  0
   28.6532   11.9175   59.0811 O   0  0  0  0  0  0  0  0  0  0  0  0
   27.8898   12.2185   59.6389 H   0  0  0  0  0  0  0  0  0  0  0  0
  2  1  1  0  0  0
  2  3  1  0  0  0
  3  4  1  0  0  0
  4  5  1  0  0  0
  5  6  1  0  0  0
  6  7  1  0  0  0
  7  8  1  0  0  0
  8  9  1  0  0  0
  9 10  2  0  0  0
 10 11  1  0  0  0
 11 12  2  0  0  0
 11 13  1  0  0  0
 13 14  1  0  0  0
 14 15  1  0  0  0
 15 16  1  0  0  0
  6 17  1  0  0  0
 17 18  1  0  0  0
 18 19  1  0  0  0
 19 20  1  0  0  0
 20 21  1  0  0  0
 20 23  1  0  0  0
 23 24  2  0  0  0
 23 25  1  0  0  0
 25 26  1  0  0  0
 17  2  1  0  0  0
 20  2  1  0  0  0
 15  5  1  0  0  0
 15  9  1  0  0  0
 21 22  1  0  0  0
 26 27  1  0  0  0
M  END
> <minimizedAffinity>
19.35387

> <CNNscore>
0.6253664494

> <CNNaffinity>
6.0403928757

> <CNN_VS>
3.7774591446

> <CNNaffinity_variance>
0.6939731836

$$$$
[H]OC([H])([H])C(=O)[C@@]1(O[H])C([H])([H])C([H])([H])[C@]2([H])[C@]1(C([H])([H])[H])C([H])([H])C([H])([H])[C@]1([H])[C@]3(C([H])([H])[H])C(=C([H])C(=O)C([H])([H])C3([H])[H])C([H])([H])C([H])([H])[C@@]21[H]


 27 30  0  0  0  0  0  0  0  0999 V2000
   26.1996    8.1771   56.8679 C   0  0  0  0  0  0  0  0  0  0  0  0
   26.3422    8.9335   55.6018 C   0  0  0  0  0  0  0  0  0  0  0  0
   25.4018   10.0930   55.4733 C   0  0  0  0  0  0  0  0  0  0  0  0
   24.0003    9.6014   55.2845 C   0  0  0  0  0  0  0  0  0  0  0  0
   23.9065    8.7675   53.9989 C   0  0  0  0  0  0  0  0  0  0  0  0
   24.7852    7.5429   54.2613 C   0  0  0  0  0  0  0  0  0  0  0  0
   24.6204    6.5126   53.1671 C   0  0  0  0  0  0  0  0  0  0  0  0
   23.1901    5.9747   53.3154 C   0  0  0  0  0  0  0  0  0  0  0  0
   22.3138    7.1513   52.9715 C   0  0  0  0  0  0  0  0  0  0  0  0
   21.3857    6.9698   52.0470 C   0  0  0  0  0  0  0  0  0  0  0  0
   20.4786    8.0232   51.6263 C   0  0  0  0  0  0  0  0  0  0  0  0
   19.6883    7.8819   50.6581 O   0  0  0  0  0  0  0  0  0  0  0  0
   20.5206    9.3044   52.4009 C   0  0  0  0  0  0  0  0  0  0  0  0
   21.9694    9.5367   52.7611 C   0  0  0  0  0  0  0  0  0  0  0  0
   22.5068    8.4309   53.6506 C   0  0  0  0  0  0  0  0  0  0  0  0
   21.6092    8.4278   54.8944 C   0  0  0  0  0  0  0  0  0  0  0  0
   26.1588    8.0679   54.3674 C   0  0  0  0  0  0  0  0  0  0  0  0
   27.2684    7.0921   54.5322 C   0  0  0  0  0  0  0  0  0  0  0  0
   28.4016    7.9533   55.1086 C   0  0  0  0  0  0  0  0  0  0  0  0
   27.7836    9.3081   55.3779 C   0  0  0  0  0  0  0  0  0  0  0  0
   27.8678   10.1272   54.2342 O   0  0  0  0  0  0  0  0  0  0  0  0
   28.3664    9.6625   53.5115 H   0  0  0  0  0  0  0  0  0  0  0  0
   28.4155    9.9480   56.5395 C   0  0  0  0  0  0  0  0  0  0  0  0
   29.1210   10.9213   56.3843 O   0  0  0  0  0  0  0  0  0  0  0  0
   28.2508    9.4774   57.9408 C   0  0  0  0  0  0  0  0  0  0  0  0
   29.3155    8.7664   58.4360 O   0  0  0  0  0  0  0  0  0  0  0  0
   29.1601    7.7893   58.5116 H   0  0  0  0  0  0  0  0  0  0  0  0
  2  1  1  0  0  0
  2  3  1  0  0  0
  3  4  1  0  0  0
  4  5  1  0  0  0
  5  6  1  0  0  0
  6  7  1  0  0  0
  7  8  1  0  0  0
  8  9  1  0  0  0
  9 10  2  0  0  0
 10 11  1  0  0  0
 11 12  2  0  0  0
 11 13  1  0  0  0
 13 14  1  0  0  0
 14 15  1  0  0  0
 15 16  1  0  0  0
  6 17  1  0  0  0
 17 18  1  0  0  0
 18 19  1  0  0  0
 19 20  1  0  0  0
 20 21  1  0  0  0
 20 23  1  0  0  0
 23 24  2  0  0  0
 23 25  1  0  0  0
 25 26  1  0  0  0
 17  2  1  0  0  0
 20  2  1  0  0  0
 15  5  1  0  0  0
 15  9  1  0  0  0
 21 22  1  0  0  0
 26 27  1  0  0  0
M  END
> <minimizedAffinity>
21.54214

> <CNNscore>
0.5748578906

> <CNNaffinity>
6.0117030144

> <CNN_VS>
3.4558749199

> <CNNaffinity_variance>
0.6205659509

$$$$
[H]OC([H])([H])C(=O)[C@@]1(O[H])C([H])([H])C([H])([H])[C@]2([H])[C@]1(C([H])([H])[H])C([H])([H])C([H])([H])[C@]1([H])[C@]3(C([H])([H])[H])C(=C([H])C(=O)C([H])([H])C3([H])[H])C([H])([H])C([H])([H])[C@@]21[H]


 27 30  0  0  0  0  0  0  0  0999 V2000
   22.8693    9.1730   52.6858 C   0  0  0  0  0  0  0  0  0  0  0  0
   22.8399    8.1972   53.8004 C   0  0  0  0  0  0  0  0  0  0  0  0
   22.5671    8.8086   55.1410 C   0  0  0  0  0  0  0  0  0  0  0  0
   23.7429    9.6219   55.5855 C   0  0  0  0  0  0  0  0  0  0  0  0
   24.9817    8.7241   55.7147 C   0  0  0  0  0  0  0  0  0  0  0  0
   25.2715    8.2489   54.2896 C   0  0  0  0  0  0  0  0  0  0  0  0
   26.5993    7.5293   54.2174 C   0  0  0  0  0  0  0  0  0  0  0  0
   27.6675    8.6029   54.4691 C   0  0  0  0  0  0  0  0  0  0  0  0
   27.4483    9.0157   55.9016 C   0  0  0  0  0  0  0  0  0  0  0  0
   28.4938    8.9854   56.7109 C   0  0  0  0  0  0  0  0  0  0  0  0
   28.4143    9.3586   58.1123 C   0  0  0  0  0  0  0  0  0  0  0  0
   29.3788    9.2032   58.9044 O   0  0  0  0  0  0  0  0  0  0  0  0
   27.1199    9.9447   58.5860 C   0  0  0  0  0  0  0  0  0  0  0  0
   26.0249    9.2103   57.8481 C   0  0  0  0  0  0  0  0  0  0  0  0
   26.1198    9.4283   56.3493 C   0  0  0  0  0  0  0  0  0  0  0  0
   26.0195   10.9451   56.1448 C   0  0  0  0  0  0  0  0  0  0  0  0
   24.1247    7.3970   53.9251 C   0  0  0  0  0  0  0  0  0  0  0  0
   24.1606    6.7028   52.6110 C   0  0  0  0  0  0  0  0  0  0  0  0
   22.6830    6.3712   52.3562 C   0  0  0  0  0  0  0  0  0  0  0  0
   21.9172    7.0542   53.4684 C   0  0  0  0  0  0  0  0  0  0  0  0
   21.8173    6.2097   54.5922 O   0  0  0  0  0  0  0  0  0  0  0  0
   22.2204    5.3233   54.3961 H   0  0  0  0  0  0  0  0  0  0  0  0
   20.5910    7.4810   53.0026 C   0  0  0  0  0  0  0  0  0  0  0  0
   19.5972    7.1237   53.5976 O   0  0  0  0  0  0  0  0  0  0  0  0
   20.3651    8.3483   51.8156 C   0  0  0  0  0  0  0  0  0  0  0  0
   20.7115    7.7793   50.6153 O   0  0  0  0  0  0  0  0  0  0  0  0
   21.5482    8.1335   50.2167 H   0  0  0  0  0  0  0  0  0  0  0  0
  2  1  1  0  0  0
  2  3  1  0  0  0
  3  4  1  0  0  0
  4  5  1  0  0  0
  5  6  1  0  0  0
  6  7  1  0  0  0
  7  8  1  0  0  0
  8  9  1  0  0  0
  9 10  2  0  0  0
 10 11  1  0  0  0
 11 12  2  0  0  0
 11 13  1  0  0  0
 13 14  1  0  0  0
 14 15  1  0  0  0
 15 16  1  0  0  0
  6 17  1  0  0  0
 17 18  1  0  0  0
 18 19  1  0  0  0
 19 20  1  0  0  0
 20 21  1  0  0  0
 20 23  1  0  0  0
 23 24  2  0  0  0
 23 25  1  0  0  0
 25 26  1  0  0  0
 17  2  1  0  0  0
 20  2  1  0  0  0
 15  5  1  0  0  0
 15  9  1  0  0  0
 21 22  1  0  0  0
 26 27  1  0  0  0
M  END
> <minimizedAffinity>
19.89659

> <CNNscore>
0.5613250732

> <CNNaffinity>
6.3331232071

> <CNN_VS>
3.5549409389

> <CNNaffinity_variance>
0.6426831484

$$$$
[H]OC([H])([H])C(=O)[C@@]1(O[H])C([H])([H])C([H])([H])[C@]2([H])[C@]1(C([H])([H])[H])C([H])([H])C([H])([H])[C@]1([H])[C@]3(C([H])([H])[H])C(=C([H])C(=O)C([H])([H])C3([H])[H])C([H])([H])C([H])([H])[C@@]21[H]


 27 30  0  0  0  0  0  0  0  0999 V2000
   22.8215    9.0571   52.6814 C   0  0  0  0  0  0  0  0  0  0  0  0
   22.8405    8.0737   53.7897 C   0  0  0  0  0  0  0  0  0  0  0  0
   22.5553    8.6652   55.1366 C   0  0  0  0  0  0  0  0  0  0  0  0
   23.7017    9.5217   55.5766 C   0  0  0  0  0  0  0  0  0  0  0  0
   24.9762    8.6731   55.6893 C   0  0  0  0  0  0  0  0  0  0  0  0
   25.2723    8.2189   54.2587 C   0  0  0  0  0  0  0  0  0  0  0  0
   26.6269    7.5531   54.1705 C   0  0  0  0  0  0  0  0  0  0  0  0
   27.6539    8.6667   54.4203 C   0  0  0  0  0  0  0  0  0  0  0  0
   27.4309    9.0612   55.8574 C   0  0  0  0  0  0  0  0  0  0  0  0
   28.4837    9.0673   56.6577 C   0  0  0  0  0  0  0  0  0  0  0  0
   28.4017    9.4281   58.0621 C   0  0  0  0  0  0  0  0  0  0  0  0
   29.3785    9.3061   58.8450 O   0  0  0  0  0  0  0  0  0  0  0  0
   27.0892    9.9592   58.5507 C   0  0  0  0  0  0  0  0  0  0  0  0
   26.0178    9.1867   57.8171 C   0  0  0  0  0  0  0  0  0  0  0  0
   26.0909    9.4178   56.3191 C   0  0  0  0  0  0  0  0  0  0  0  0
   25.9288   10.9307   56.1257 C   0  0  0  0  0  0  0  0  0  0  0  0
   24.1571    7.3245   53.8981 C   0  0  0  0  0  0  0  0  0  0  0  0
   24.2091    6.6407   52.5790 C   0  0  0  0  0  0  0  0  0  0  0  0
   22.7437    6.2522   52.3345 C   0  0  0  0  0  0  0  0  0  0  0  0
   21.9611    6.8971   53.4577 C   0  0  0  0  0  0  0  0  0  0  0  0
   21.9045    6.0422   54.5765 O   0  0  0  0  0  0  0  0  0  0  0  0
   22.3408    5.1737   54.3711 H   0  0  0  0  0  0  0  0  0  0  0  0
   20.6149    7.2739   53.0060 C   0  0  0  0  0  0  0  0  0  0  0  0
   20.4642    8.2490   52.3019 O   0  0  0  0  0  0  0  0  0  0  0  0
   19.3790    6.5251   53.3580 C   0  0  0  0  0  0  0  0  0  0  0  0
   19.5030    5.1588   53.3107 O   0  0  0  0  0  0  0  0  0  0  0  0
   19.0620    4.7310   52.5316 H   0  0  0  0  0  0  0  0  0  0  0  0
  2  1  1  0  0  0
  2  3  1  0  0  0
  3  4  1  0  0  0
  4  5  1  0  0  0
  5  6  1  0  0  0
  6  7  1  0  0  0
  7  8  1  0  0  0
  8  9  1  0  0  0
  9 10  2  0  0  0
 10 11  1  0  0  0
 11 12  2  0  0  0
 11 13  1  0  0  0
 13 14  1  0  0  0
 14 15  1  0  0  0
 15 16  1  0  0  0
  6 17  1  0  0  0
 17 18  1  0  0  0
 18 19  1  0  0  0
 19 20  1  0  0  0
 20 21  1  0  0  0
 20 23  1  0  0  0
 23 24  2  0  0  0
 23 25  1  0  0  0
 25 26  1  0  0  0
 17  2  1  0  0  0
 20  2  1  0  0  0
 15  5  1  0  0  0
 15  9  1  0  0  0
 21 22  1  0  0  0
 26 27  1  0  0  0
M  END
> <minimizedAffinity>
22.13648

> <CNNscore>
0.4463707805

> <CNNaffinity>
6.0782628059

> <CNN_VS>
2.7131588459

> <CNNaffinity_variance>
0.8573160172

$$$$
[H]OC([H])([H])C(=O)[C@@]1(O[H])C([H])([H])C([H])([H])[C@]2([H])[C@]1(C([H])([H])[H])C([H])([H])C([H])([H])[C@]1([H])[C@]3(C([H])([H])[H])C(=C([H])C(=O)C([H])([H])C3([H])[H])C([H])([H])C([H])([H])[C@@]21[H]


 27 30  0  0  0  0  0  0  0  0999 V2000
   21.7023    4.7355   53.4447 C   0  0  0  0  0  0  0  0  0  0  0  0
   20.4180    5.4653   53.3282 C   0  0  0  0  0  0  0  0  0  0  0  0
   20.1665    6.0468   51.9702 C   0  0  0  0  0  0  0  0  0  0  0  0
   21.0986    7.1911   51.7188 C   0  0  0  0  0  0  0  0  0  0  0  0
   20.8654    8.2948   52.7602 C   0  0  0  0  0  0  0  0  0  0  0  0
   21.2692    7.6658   54.0950 C   0  0  0  0  0  0  0  0  0  0  0  0
   21.3051    8.7030   55.1945 C   0  0  0  0  0  0  0  0  0  0  0  0
   22.4829    9.6273   54.8549 C   0  0  0  0  0  0  0  0  0  0  0  0
   22.0570   10.3201   53.5864 C   0  0  0  0  0  0  0  0  0  0  0  0
   22.1081   11.6415   53.5675 C   0  0  0  0  0  0  0  0  0  0  0  0
   21.7250   12.4265   52.4071 C   0  0  0  0  0  0  0  0  0  0  0  0
   21.6518   13.6816   52.4399 O   0  0  0  0  0  0  0  0  0  0  0  0
   21.4154   11.6730   51.1502 C   0  0  0  0  0  0  0  0  0  0  0  0
   20.7134   10.4047   51.5762 C   0  0  0  0  0  0  0  0  0  0  0  0
   21.6094    9.5345   52.4383 C   0  0  0  0  0  0  0  0  0  0  0  0
   22.8448    9.2351   51.5800 C   0  0  0  0  0  0  0  0  0  0  0  0
   20.2827    6.5962   54.3328 C   0  0  0  0  0  0  0  0  0  0  0  0
   20.3566    5.8511   55.6172 C   0  0  0  0  0  0  0  0  0  0  0  0
   19.5855    4.5590   55.3107 C   0  0  0  0  0  0  0  0  0  0  0  0
   19.2846    4.6090   53.8285 C   0  0  0  0  0  0  0  0  0  0  0  0
   18.0688    5.2812   53.5923 O   0  0  0  0  0  0  0  0  0  0  0  0
   17.6376    5.5294   54.4521 H   0  0  0  0  0  0  0  0  0  0  0  0
   19.2667    3.2571   53.2541 C   0  0  0  0  0  0  0  0  0  0  0  0
   20.2327    2.8442   52.6494 O   0  0  0  0  0  0  0  0  0  0  0  0
   18.1145    2.3226   53.3609 C   0  0  0  0  0  0  0  0  0  0  0  0
   16.8882    2.9324   53.4539 O   0  0  0  0  0  0  0  0  0  0  0  0
   16.4811    2.9050   54.3583 H   0  0  0  0  0  0  0  0  0  0  0  0
  2  1  1  0  0  0
  2  3  1  0  0  0
  3  4  1  0  0  0
  4  5  1  0  0  0
  5  6  1  0  0  0
  6  7  1  0  0  0
  7  8  1  0  0  0
  8  9  1  0  0  0
  9 10  2  0  0  0
 10 11  1  0  0  0
 11 12  2  0  0  0
 11 13  1  0  0  0
 13 14  1  0  0  0
 14 15  1  0  0  0
 15 16  1  0  0  0
  6 17  1  0  0  0
 17 18  1  0  0  0
 18 19  1  0  0  0
 19 20  1  0  0  0
 20 21  1  0  0  0
 20 23  1  0  0  0
 23 24  2  0  0  0
 23 25  1  0  0  0
 25 26  1  0  0  0
 17  2  1  0  0  0
 20  2  1  0  0  0
 15  5  1  0  0  0
 15  9  1  0  0  0
 21 22  1  0  0  0
 26 27  1  0  0  0
M  END
> <minimizedAffinity>
51.07933

> <CNNscore>
0.4359172881

> <CNNaffinity>
5.6861958504

> <CNN_VS>
2.4787111282

> <CNNaffinity_variance>
0.4300813675

$$$$
[H]OC([H])([H])C(=O)[C@@]1(O[H])C([H])([H])C([H])([H])[C@]2([H])[C@]1(C([H])([H])[H])C([H])([H])C([H])([H])[C@]1([H])[C@]3(C([H])([H])[H])C(=C([H])C(=O)C([H])([H])C3([H])[H])C([H])([H])C([H])([H])[C@@]21[H]


 27 30  0  0  0  0  0  0  0  0999 V2000
   19.5621    7.0168   54.5814 C   0  0  0  0  0  0  0  0  0  0  0  0
   20.4851    5.9613   54.1023 C   0  0  0  0  0  0  0  0  0  0  0  0
   21.4502    5.4759   55.1408 C   0  0  0  0  0  0  0  0  0  0  0  0
   22.4610    6.5385   55.4417 C   0  0  0  0  0  0  0  0  0  0  0  0
   23.2570    6.8782   54.1736 C   0  0  0  0  0  0  0  0  0  0  0  0
   22.2295    7.4873   53.2175 C   0  0  0  0  0  0  0  0  0  0  0  0
   22.9047    8.0781   52.0005 C   0  0  0  0  0  0  0  0  0  0  0  0
   23.6932    9.2922   52.5116 C   0  0  0  0  0  0  0  0  0  0  0  0
   24.7662    8.6964   53.3858 C   0  0  0  0  0  0  0  0  0  0  0  0
   26.0171    9.0483   53.1400 C   0  0  0  0  0  0  0  0  0  0  0  0
   27.1411    8.5448   53.9097 C   0  0  0  0  0  0  0  0  0  0  0  0
   28.3342    8.7805   53.5888 O   0  0  0  0  0  0  0  0  0  0  0  0
   26.8209    7.7213   55.1191 C   0  0  0  0  0  0  0  0  0  0  0  0
   25.6087    6.8934   54.7615 C   0  0  0  0  0  0  0  0  0  0  0  0
   24.4069    7.7682   54.4558 C   0  0  0  0  0  0  0  0  0  0  0  0
   24.1686    8.6006   55.7218 C   0  0  0  0  0  0  0  0  0  0  0  0
   21.3018    6.3878   52.8950 C   0  0  0  0  0  0  0  0  0  0  0  0
   20.2292    6.6489   51.8992 C   0  0  0  0  0  0  0  0  0  0  0  0
   19.2071    5.5418   52.1956 C   0  0  0  0  0  0  0  0  0  0  0  0
   19.7100    4.8504   53.4442 C   0  0  0  0  0  0  0  0  0  0  0  0
   20.6007    3.8108   53.1102 O   0  0  0  0  0  0  0  0  0  0  0  0
   20.6657    3.7141   52.1237 H   0  0  0  0  0  0  0  0  0  0  0  0
   18.5886    4.3526   54.2522 C   0  0  0  0  0  0  0  0  0  0  0  0
   18.7950    3.5764   55.1600 O   0  0  0  0  0  0  0  0  0  0  0  0
   17.1694    4.7411   54.0350 C   0  0  0  0  0  0  0  0  0  0  0  0
   16.2550    3.9792   54.7189 O   0  0  0  0  0  0  0  0  0  0  0  0
   15.7489    3.3376   54.1561 H   0  0  0  0  0  0  0  0  0  0  0  0
  2  1  1  0  0  0
  2  3  1  0  0  0
  3  4  1  0  0  0
  4  5  1  0  0  0
  5  6  1  0  0  0
  6  7  1  0  0  0
  7  8  1  0  0  0
  8  9  1  0  0  0
  9 10  2  0  0  0
 10 11  1  0  0  0
 11 12  2  0  0  0
 11 13  1  0  0  0
 13 14  1  0  0  0
 14 15  1  0  0  0
 15 16  1  0  0  0
  6 17  1  0  0  0
 17 18  1  0  0  0
 18 19  1  0  0  0
 19 20  1  0  0  0
 20 21  1  0  0  0
 20 23  1  0  0  0
 23 24  2  0  0  0
 23 25  1  0  0  0
 25 26  1  0  0  0
 17  2  1  0  0  0
 20  2  1  0  0  0
 15  5  1  0  0  0
 15  9  1  0  0  0
 21 22  1  0  0  0
 26 27  1  0  0  0
M  END
> <minimizedAffinity>
39.78955

> <CNNscore>
0.4121311605

> <CNNaffinity>
5.8658037186

> <CNN_VS>
2.4174804688

> <CNNaffinity_variance>
0.9767609835

$$$$
[H]OC([H])([H])C(=O)[C@@]1(O[H])C([H])([H])C([H])([H])[C@]2([H])[C@]1(C([H])([H])[H])C([H])([H])C([H])([H])[C@]1([H])[C@]3(C([H])([H])[H])C(=C([H])C(=O)C([H])([H])C3([H])[H])C([H])([H])C([H])([H])[C@@]21[H]


 27 30  0  0  0  0  0  0  0  0999 V2000
   19.0480    5.5474   52.2039 C   0  0  0  0  0  0  0  0  0  0  0  0
   19.3995    5.3488   53.6296 C   0  0  0  0  0  0  0  0  0  0  0  0
   19.2608    6.5811   54.4708 C   0  0  0  0  0  0  0  0  0  0  0  0
   20.3248    7.5717   54.1131 C   0  0  0  0  0  0  0  0  0  0  0  0
   21.7118    6.9685   54.3771 C   0  0  0  0  0  0  0  0  0  0  0  0
   21.8266    5.8039   53.3916 C   0  0  0  0  0  0  0  0  0  0  0  0
   23.2306    5.2431   53.3760 C   0  0  0  0  0  0  0  0  0  0  0  0
   24.1080    6.3376   52.7522 C   0  0  0  0  0  0  0  0  0  0  0  0
   24.0744    7.4585   53.7587 C   0  0  0  0  0  0  0  0  0  0  0  0
   25.2343    7.9410   54.1718 C   0  0  0  0  0  0  0  0  0  0  0  0
   25.3375    9.0199   55.1386 C   0  0  0  0  0  0  0  0  0  0  0  0
   26.4394    9.3841   55.6234 O   0  0  0  0  0  0  0  0  0  0  0  0
   24.0621    9.6931   55.5428 C   0  0  0  0  0  0  0  0  0  0  0  0
   23.0092    8.6111   55.5999 C   0  0  0  0  0  0  0  0  0  0  0  0
   22.7935    7.9711   54.2409 C   0  0  0  0  0  0  0  0  0  0  0  0
   22.3782    9.1144   53.3066 C   0  0  0  0  0  0  0  0  0  0  0  0
   20.8120    4.8269   53.8273 C   0  0  0  0  0  0  0  0  0  0  0  0
   20.7418    3.5265   53.1104 C   0  0  0  0  0  0  0  0  0  0  0  0
   19.3304    3.0236   53.4465 C   0  0  0  0  0  0  0  0  0  0  0  0
   18.6613    4.1606   54.1878 C   0  0  0  0  0  0  0  0  0  0  0  0
   18.9218    4.0721   55.5699 O   0  0  0  0  0  0  0  0  0  0  0  0
   19.4414    3.2500   55.7724 H   0  0  0  0  0  0  0  0  0  0  0  0
   17.2175    4.1812   53.9176 C   0  0  0  0  0  0  0  0  0  0  0  0
   16.6166    5.2339   53.9210 O   0  0  0  0  0  0  0  0  0  0  0  0
   16.4073    2.9675   53.6300 C   0  0  0  0  0  0  0  0  0  0  0  0
   15.5095    3.1078   52.6011 O   0  0  0  0  0  0  0  0  0  0  0  0
   14.5626    3.1850   52.8871 H   0  0  0  0  0  0  0  0  0  0  0  0
  2  1  1  0  0  0
  2  3  1  0  0  0
  3  4  1  0  0  0
  4  5  1  0  0  0
  5  6  1  0  0  0
  6  7  1  0  0  0
  7  8  1  0  0  0
  8  9  1  0  0  0
  9 10  2  0  0  0
 10 11  1  0  0  0
 11 12  2  0  0  0
 11 13  1  0  0  0
 13 14  1  0  0  0
 14 15  1  0  0  0
 15 16  1  0  0  0
  6 17  1  0  0  0
 17 18  1  0  0  0
 18 19  1  0  0  0
 19 20  1  0  0  0
 20 21  1  0  0  0
 20 23  1  0  0  0
 23 24  2  0  0  0
 23 25  1  0  0  0
 25 26  1  0  0  0
 17  2  1  0  0  0
 20  2  1  0  0  0
 15  5  1  0  0  0
 15  9  1  0  0  0
 21 22  1  0  0  0
 26 27  1  0  0  0
M  END
> <minimizedAffinity>
35.31324

> <CNNscore>
0.3861577809

> <CNNaffinity>
6.0199861526

> <CNN_VS>
2.3246645927

> <CNNaffinity_variance>
0.6291334033

$$$$
[H]OC([H])([H])C(=O)[C@@]1(O[H])C([H])([H])C([H])([H])[C@]2([H])[C@]1(C([H])([H])[H])C([H])([H])C([H])([H])[C@]1([H])[C@]3(C([H])([H])[H])C(=C([H])C(=O)C([H])([H])C3([H])[H])C([H])([H])C([H])([H])[C@@]21[H]


 27 30  0  0  0  0  0  0  0  0999 V2000
   24.2927    8.8623   52.6936 C   0  0  0  0  0  0  0  0  0  0  0  0
   24.2539    7.9141   53.8316 C   0  0  0  0  0  0  0  0  0  0  0  0
   24.2453    6.4718   53.4253 C   0  0  0  0  0  0  0  0  0  0  0  0
   22.9327    6.1214   52.7962 C   0  0  0  0  0  0  0  0  0  0  0  0
   21.7946    6.3393   53.8033 C   0  0  0  0  0  0  0  0  0  0  0  0
   21.7848    7.8469   54.0634 C   0  0  0  0  0  0  0  0  0  0  0  0
   20.5713    8.2502   54.8700 C   0  0  0  0  0  0  0  0  0  0  0  0
   19.3661    8.0311   53.9446 C   0  0  0  0  0  0  0  0  0  0  0  0
   19.3122    6.5375   53.7531 C   0  0  0  0  0  0  0  0  0  0  0  0
   18.1626    5.9328   54.0016 C   0  0  0  0  0  0  0  0  0  0  0  0
   17.9808    4.4992   53.8556 C   0  0  0  0  0  0  0  0  0  0  0  0
   16.9270    3.9156   54.2176 O   0  0  0  0  0  0  0  0  0  0  0  0
   19.1133    3.7299   53.2482 C   0  0  0  0  0  0  0  0  0  0  0  0
   20.3838    4.3685   53.7589 C   0  0  0  0  0  0  0  0  0  0  0  0
   20.5012    5.8131   53.3091 C   0  0  0  0  0  0  0  0  0  0  0  0
   20.4659    5.7732   51.7762 C   0  0  0  0  0  0  0  0  0  0  0  0
   23.0606    8.1301   54.7459 C   0  0  0  0  0  0  0  0  0  0  0  0
   23.3068    9.5181   55.2180 C   0  0  0  0  0  0  0  0  0  0  0  0
   24.8333    9.5615   55.3792 C   0  0  0  0  0  0  0  0  0  0  0  0
   25.3365    8.2466   54.8243 C   0  0  0  0  0  0  0  0  0  0  0  0
   25.3511    7.2582   55.8287 O   0  0  0  0  0  0  0  0  0  0  0  0
   25.0829    7.6481   56.7021 H   0  0  0  0  0  0  0  0  0  0  0  0
   26.6645    8.4106   54.2182 C   0  0  0  0  0  0  0  0  0  0  0  0
   27.6005    8.7684   54.9003 O   0  0  0  0  0  0  0  0  0  0  0  0
   26.9602    8.1626   52.7818 C   0  0  0  0  0  0  0  0  0  0  0  0
   27.7713    9.1006   52.1930 O   0  0  0  0  0  0  0  0  0  0  0  0
   27.3038    9.7229   51.5777 H   0  0  0  0  0  0  0  0  0  0  0  0
  2  1  1  0  0  0
  2  3  1  0  0  0
  3  4  1  0  0  0
  4  5  1  0  0  0
  5  6  1  0  0  0
  6  7  1  0  0  0
  7  8  1  0  0  0
  8  9  1  0  0  0
  9 10  2  0  0  0
 10 11  1  0  0  0
 11 12  2  0  0  0
 11 13  1  0  0  0
 13 14  1  0  0  0
 14 15  1  0  0  0
 15 16  1  0  0  0
  6 17  1  0  0  0
 17 18  1  0  0  0
 18 19  1  0  0  0
 19 20  1  0  0  0
 20 21  1  0  0  0
 20 23  1  0  0  0
 23 24  2  0  0  0
 23 25  1  0  0  0
 25 26  1  0  0  0
 17  2  1  0  0  0
 20  2  1  0  0  0
 15  5  1  0  0  0
 15  9  1  0  0  0
 21 22  1  0  0  0
 26 27  1  0  0  0
M  END
> <minimizedAffinity>
32.12741

> <CNNscore>
0.3767714202

> <CNNaffinity>
5.9679946899

> <CNN_VS>
2.2485697269

> <CNNaffinity_variance>
0.5661528707

$$$$
[H]OC([H])([H])C(=O)[C@@]1(O[H])C([H])([H])C([H])([H])[C@]2([H])[C@]1(C([H])([H])[H])C([H])([H])C([H])([H])[C@]1([H])[C@]3(C([H])([H])[H])C(=C([H])C(=O)C([H])([H])C3([H])[H])C([H])([H])C([H])([H])[C@@]21[H]


 27 30  0  0  0  0  0  0  0  0999 V2000
   20.2447    9.9714   51.9658 C   0  0  0  0  0  0  0  0  0  0  0  0
   21.5746   10.2430   52.5601 C   0  0  0  0  0  0  0  0  0  0  0  0
   22.6779    9.3967   52.0017 C   0  0  0  0  0  0  0  0  0  0  0  0
   22.5168    7.9777   52.4509 C   0  0  0  0  0  0  0  0  0  0  0  0
   22.5872    7.9021   53.9827 C   0  0  0  0  0  0  0  0  0  0  0  0
   21.3597    8.6743   54.4700 C   0  0  0  0  0  0  0  0  0  0  0  0
   21.1671    8.5025   55.9598 C   0  0  0  0  0  0  0  0  0  0  0  0
   20.7771    7.0313   56.1610 C   0  0  0  0  0  0  0  0  0  0  0  0
   22.0123    6.2630   55.7680 C   0  0  0  0  0  0  0  0  0  0  0  0
   22.4825    5.3814   56.6343 C   0  0  0  0  0  0  0  0  0  0  0  0
   23.6647    4.5783   56.3755 C   0  0  0  0  0  0  0  0  0  0  0  0
   24.1799    3.8393   57.2532 O   0  0  0  0  0  0  0  0  0  0  0  0
   24.2564    4.6647   55.0023 C   0  0  0  0  0  0  0  0  0  0  0  0
   24.1039    6.1022   54.5628 C   0  0  0  0  0  0  0  0  0  0  0  0
   22.6437    6.5054   54.4724 C   0  0  0  0  0  0  0  0  0  0  0  0
   22.0088    5.5370   53.4666 C   0  0  0  0  0  0  0  0  0  0  0  0
   21.5981   10.0729   54.0691 C   0  0  0  0  0  0  0  0  0  0  0  0
   20.6076   11.0984   54.4903 C   0  0  0  0  0  0  0  0  0  0  0  0
   20.8709   12.2534   53.5131 C   0  0  0  0  0  0  0  0  0  0  0  0
   21.8744   11.7182   52.5148 C   0  0  0  0  0  0  0  0  0  0  0  0
   23.1901   11.9287   52.9735 O   0  0  0  0  0  0  0  0  0  0  0  0
   23.1820   12.4354   53.8279 H   0  0  0  0  0  0  0  0  0  0  0  0
   21.6676   12.3232   51.1922 C   0  0  0  0  0  0  0  0  0  0  0  0
   20.9945   11.7495   50.3633 O   0  0  0  0  0  0  0  0  0  0  0  0
   22.2404   13.6314   50.7767 C   0  0  0  0  0  0  0  0  0  0  0  0
   23.4805   13.5551   50.1928 O   0  0  0  0  0  0  0  0  0  0  0  0
   24.2275   13.8629   50.7687 H   0  0  0  0  0  0  0  0  0  0  0  0
  2  1  1  0  0  0
  2  3  1  0  0  0
  3  4  1  0  0  0
  4  5  1  0  0  0
  5  6  1  0  0  0
  6  7  1  0  0  0
  7  8  1  0  0  0
  8  9  1  0  0  0
  9 10  2  0  0  0
 10 11  1  0  0  0
 11 12  2  0  0  0
 11 13  1  0  0  0
 13 14  1  0  0  0
 14 15  1  0  0  0
 15 16  1  0  0  0
  6 17  1  0  0  0
 17 18  1  0  0  0
 18 19  1  0  0  0
 19 20  1  0  0  0
 20 21  1  0  0  0
 20 23  1  0  0  0
 23 24  2  0  0  0
 23 25  1  0  0  0
 25 26  1  0  0  0
 17  2  1  0  0  0
 20  2  1  0  0  0
 15  5  1  0  0  0
 15  9  1  0  0  0
 21 22  1  0  0  0
 26 27  1  0  0  0
M  END
> <minimizedAffinity>
40.64277

> <CNNscore>
0.3673920929

> <CNNaffinity>
5.7806839943

> <CNN_VS>
2.1237776279

> <CNNaffinity_variance>
0.6911286116

$$$$
[H]c1c([H])c2c(c([H])c1Br)C([H])([H])C([H])([H])[C@]([H])(N1C([H])([H])C([H])([H])C([H])([H])[C@@]([H])(C([H])(C([H])([H])[H])C([H])([H])[H])C1([H])[H])N2[H]


 21 23  0  0  0  0  0  0  0  0999 V2000
   24.2837    7.5434   53.6187 C   0  0  0  0  0  0  0  0  0  0  0  0
   25.4503    8.0364   52.8077 C   0  0  0  0  0  0  0  0  0  0  0  0
   26.6914    7.7872   53.6765 C   0  0  0  0  0  0  0  0  0  0  0  0
   26.4799    8.5560   54.9427 C   0  0  0  0  0  0  0  0  0  0  0  0
   27.6266    8.8945   55.6342 C   0  0  0  0  0  0  0  0  0  0  0  0
   27.4904    9.6041   56.8089 C   0  0  0  0  0  0  0  0  0  0  0  0
   29.1021   10.0587   57.7461 Br  0  0  0  0  0  0  0  0  0  0  0  0
   26.2421    9.9643   57.2773 C   0  0  0  0  0  0  0  0  0  0  0  0
   25.1041    9.6212   56.5788 C   0  0  0  0  0  0  0  0  0  0  0  0
   25.2109    8.9088   55.3965 C   0  0  0  0  0  0  0  0  0  0  0  0
   24.0636    8.5347   54.6486 N   0  0  0  0  0  0  0  0  0  0  0  0
   23.1526    8.9748   54.8688 H   0  0  0  0  0  0  0  0  0  0  0  0
   21.3056    8.6782   51.9655 C   0  0  0  0  0  0  0  0  0  0  0  0
   20.3719    7.5450   52.1906 C   0  0  0  0  0  0  0  0  0  0  0  0
   20.7556    6.5800   53.2473 C   0  0  0  0  0  0  0  0  0  0  0  0
   22.1689    6.5845   53.6655 C   0  0  0  0  0  0  0  0  0  0  0  0
   23.1155    7.2198   52.8540 N   0  0  0  0  0  0  0  0  0  0  0  0
   22.7487    8.3190   52.0565 C   0  0  0  0  0  0  0  0  0  0  0  0
   21.2966    9.7447   54.2311 C   0  0  0  0  0  0  0  0  0  0  0  0
   20.9885    9.9247   52.7422 C   0  0  0  0  0  0  0  0  0  0  0  0
   21.6513   11.1678   52.2957 C   0  0  0  0  0  0  0  0  0  0  0  0
 19 20  1  0  0  0
 20 21  1  0  0  0
 20 13  1  0  0  0
 13 14  1  0  0  0
 14 15  1  0  0  0
 15 16  1  0  0  0
 16 17  1  0  0  0
 17 18  1  0  0  0
 17  1  1  0  0  0
  1  2  1  0  0  0
  2  3  1  0  0  0
  3  4  1  0  0  0
  4  5  2  0  0  0
  5  6  1  0  0  0
  6  7  1  0  0  0
  6  8  2  0  0  0
  8  9  1  0  0  0
  9 10  2  0  0  0
 10 11  1  0  0  0
 18 13  1  0  0  0
 11  1  1  0  0  0
 10  4  1  0  0  0
 11 12  1  0  0  0
M  END
> <minimizedAffinity>
10.35061

> <CNNscore>
0.5794803500

> <CNNaffinity>
5.5247507095

> <CNN_VS>
3.2014844418

> <CNNaffinity_variance>
0.2423150986

$$$$
[H]c1c([H])c2c(c([H])c1Br)C([H])([H])C([H])([H])[C@]([H])(N1C([H])([H])C([H])([H])C([H])([H])[C@@]([H])(C([H])(C([H])([H])[H])C([H])([H])[H])C1([H])[H])N2[H]


 21 23  0  0  0  0  0  0  0  0999 V2000
   24.6284    8.5126   53.9938 C   0  0  0  0  0  0  0  0  0  0  0  0
   24.0604    8.4069   55.3823 C   0  0  0  0  0  0  0  0  0  0  0  0
   24.7090    9.5464   56.1812 C   0  0  0  0  0  0  0  0  0  0  0  0
   26.1859    9.3132   56.1234 C   0  0  0  0  0  0  0  0  0  0  0  0
   26.9203    9.8799   57.1467 C   0  0  0  0  0  0  0  0  0  0  0  0
   28.2872    9.6964   57.1433 C   0  0  0  0  0  0  0  0  0  0  0  0
   29.2790   10.4965   58.5781 Br  0  0  0  0  0  0  0  0  0  0  0  0
   28.9006    8.9664   56.1442 C   0  0  0  0  0  0  0  0  0  0  0  0
   28.1577    8.4051   55.1275 C   0  0  0  0  0  0  0  0  0  0  0  0
   26.7836    8.5732   55.1056 C   0  0  0  0  0  0  0  0  0  0  0  0
   25.9832    8.0129   54.0755 N   0  0  0  0  0  0  0  0  0  0  0  0
   26.3940    7.2963   53.4511 H   0  0  0  0  0  0  0  0  0  0  0  0
   21.5358    8.4152   52.1730 C   0  0  0  0  0  0  0  0  0  0  0  0
   21.3639    6.9604   51.9263 C   0  0  0  0  0  0  0  0  0  0  0  0
   22.1947    6.0533   52.7520 C   0  0  0  0  0  0  0  0  0  0  0  0
   23.3728    6.6488   53.4075 C   0  0  0  0  0  0  0  0  0  0  0  0
   23.8344    7.8962   52.9723 N   0  0  0  0  0  0  0  0  0  0  0  0
   22.9411    8.8378   52.4300 C   0  0  0  0  0  0  0  0  0  0  0  0
   20.0417    7.9354   54.1245 C   0  0  0  0  0  0  0  0  0  0  0  0
   20.5814    9.0058   53.1719 C   0  0  0  0  0  0  0  0  0  0  0  0
   21.0939   10.1203   53.9962 C   0  0  0  0  0  0  0  0  0  0  0  0
 19 20  1  0  0  0
 20 21  1  0  0  0
 20 13  1  0  0  0
 13 14  1  0  0  0
 14 15  1  0  0  0
 15 16  1  0  0  0
 16 17  1  0  0  0
 17 18  1  0  0  0
 17  1  1  0  0  0
  1  2  1  0  0  0
  2  3  1  0  0  0
  3  4  1  0  0  0
  4  5  2  0  0  0
  5  6  1  0  0  0
  6  7  1  0  0  0
  6  8  2  0  0  0
  8  9  1  0  0  0
  9 10  2  0  0  0
 10 11  1  0  0  0
 18 13  1  0  0  0
 11  1  1  0  0  0
 10  4  1  0  0  0
 11 12  1  0  0  0
M  END
> <minimizedAffinity>
11.69370

> <CNNscore>
0.5548275709

> <CNNaffinity>
5.4850668907

> <CNN_VS>
3.0432662964

> <CNNaffinity_variance>
0.1369532049

$$$$
[H]c1c([H])c2c(c([H])c1Br)C([H])([H])C([H])([H])[C@]([H])(N1C([H])([H])C([H])([H])C([H])([H])[C@@]([H])(C([H])(C([H])([H])[H])C([H])([H])[H])C1([H])[H])N2[H]


 21 23  0  0  0  0  0  0  0  0999 V2000
   25.4863    7.3336   53.5952 C   0  0  0  0  0  0  0  0  0  0  0  0
   24.9057    6.8043   54.8776 C   0  0  0  0  0  0  0  0  0  0  0  0
   23.6601    6.0056   54.4677 C   0  0  0  0  0  0  0  0  0  0  0  0
   22.7586    6.9666   53.7586 C   0  0  0  0  0  0  0  0  0  0  0  0
   21.4185    6.6324   53.7498 C   0  0  0  0  0  0  0  0  0  0  0  0
   20.5417    7.4833   53.1101 C   0  0  0  0  0  0  0  0  0  0  0  0
   18.6869    6.9911   53.1153 Br  0  0  0  0  0  0  0  0  0  0  0  0
   20.9940    8.6353   52.4970 C   0  0  0  0  0  0  0  0  0  0  0  0
   22.3340    8.9590   52.5120 C   0  0  0  0  0  0  0  0  0  0  0  0
   23.2369    8.1232   53.1468 C   0  0  0  0  0  0  0  0  0  0  0  0
   24.6248    8.4198   53.1831 N   0  0  0  0  0  0  0  0  0  0  0  0
   24.9446    9.3690   52.9208 H   0  0  0  0  0  0  0  0  0  0  0  0
   28.2196    8.6311   55.5280 C   0  0  0  0  0  0  0  0  0  0  0  0
   29.0172    9.3476   54.4998 C   0  0  0  0  0  0  0  0  0  0  0  0
   28.3296    9.6331   53.2188 C   0  0  0  0  0  0  0  0  0  0  0  0
   27.1205    8.8426   52.9268 C   0  0  0  0  0  0  0  0  0  0  0  0
   26.8759    7.6779   53.6630 N   0  0  0  0  0  0  0  0  0  0  0  0
   27.3309    7.5636   54.9892 C   0  0  0  0  0  0  0  0  0  0  0  0
   25.9825    9.3744   56.3726 C   0  0  0  0  0  0  0  0  0  0  0  0
   27.5011    9.5183   56.5047 C   0  0  0  0  0  0  0  0  0  0  0  0
   27.8441    9.3441   57.9316 C   0  0  0  0  0  0  0  0  0  0  0  0
 19 20  1  0  0  0
 20 21  1  0  0  0
 20 13  1  0  0  0
 13 14  1  0  0  0
 14 15  1  0  0  0
 15 16  1  0  0  0
 16 17  1  0  0  0
 17 18  1  0  0  0
 17  1  1  0  0  0
  1  2  1  0  0  0
  2  3  1  0  0  0
  3  4  1  0  0  0
  4  5  2  0  0  0
  5  6  1  0  0  0
  6  7  1  0  0  0
  6  8  2  0  0  0
  8  9  1  0  0  0
  9 10  2  0  0  0
 10 11  1  0  0  0
 18 13  1  0  0  0
 11  1  1  0  0  0
 10  4  1  0  0  0
 11 12  1  0  0  0
M  END
> <minimizedAffinity>
13.00543

> <CNNscore>
0.5316621065

> <CNNaffinity>
5.3243517876

> <CNN_VS>
2.8307561874

> <CNNaffinity_variance>
0.2250558138

$$$$
[H]c1c([H])c2c(c([H])c1Br)C([H])([H])C([H])([H])[C@]([H])(N1C([H])([H])C([H])([H])C([H])([H])[C@@]([H])(C([H])(C([H])([H])[H])C([H])([H])[H])C1([H])[H])N2[H]


 21 23  0  0  0  0  0  0  0  0999 V2000
   23.9196    8.3910   53.9651 C   0  0  0  0  0  0  0  0  0  0  0  0
   23.5452    8.1888   55.4076 C   0  0  0  0  0  0  0  0  0  0  0  0
   24.2799    9.2917   56.1830 C   0  0  0  0  0  0  0  0  0  0  0  0
   25.7386    9.0949   55.9138 C   0  0  0  0  0  0  0  0  0  0  0  0
   26.5963    9.6146   56.8636 C   0  0  0  0  0  0  0  0  0  0  0  0
   27.9527    9.4617   56.6661 C   0  0  0  0  0  0  0  0  0  0  0  0
   29.1177   10.1948   58.0031 Br  0  0  0  0  0  0  0  0  0  0  0  0
   28.4359    8.8074   55.5499 C   0  0  0  0  0  0  0  0  0  0  0  0
   27.5705    8.2925   54.6082 C   0  0  0  0  0  0  0  0  0  0  0  0
   26.2038    8.4314   54.7806 C   0  0  0  0  0  0  0  0  0  0  0  0
   25.2797    7.9172   53.8334 N   0  0  0  0  0  0  0  0  0  0  0  0
   25.6124    7.2490   53.1158 H   0  0  0  0  0  0  0  0  0  0  0  0
   21.4037    8.9072   51.4565 C   0  0  0  0  0  0  0  0  0  0  0  0
   20.5059    7.7431   51.6699 C   0  0  0  0  0  0  0  0  0  0  0  0
   20.6594    7.0246   52.9565 C   0  0  0  0  0  0  0  0  0  0  0  0
   21.9173    7.2463   53.6917 C   0  0  0  0  0  0  0  0  0  0  0  0
   23.0037    7.8204   53.0220 N   0  0  0  0  0  0  0  0  0  0  0  0
   22.7932    8.7179   51.9594 C   0  0  0  0  0  0  0  0  0  0  0  0
   21.2129   10.5720   53.3173 C   0  0  0  0  0  0  0  0  0  0  0  0
   20.8326   10.2329   51.8734 C   0  0  0  0  0  0  0  0  0  0  0  0
   21.1840   11.3971   51.0336 C   0  0  0  0  0  0  0  0  0  0  0  0
 19 20  1  0  0  0
 20 21  1  0  0  0
 20 13  1  0  0  0
 13 14  1  0  0  0
 14 15  1  0  0  0
 15 16  1  0  0  0
 16 17  1  0  0  0
 17 18  1  0  0  0
 17  1  1  0  0  0
  1  2  1  0  0  0
  2  3  1  0  0  0
  3  4  1  0  0  0
  4  5  2  0  0  0
  5  6  1  0  0  0
  6  7  1  0  0  0
  6  8  2  0  0  0
  8  9  1  0  0  0
  9 10  2  0  0  0
 10 11  1  0  0  0
 18 13  1  0  0  0
 11  1  1  0  0  0
 10  4  1  0  0  0
 11 12  1  0  0  0
M  END
> <minimizedAffinity>
10.54503

> <CNNscore>
0.5243278146

> <CNNaffinity>
5.4334135056

> <CNN_VS>
2.8488898277

> <CNNaffinity_variance>
0.2303936034

$$$$
[H]c1c([H])c2c(c([H])c1Br)C([H])([H])C([H])([H])[C@]([H])(N1C([H])([H])C([H])([H])C([H])([H])[C@@]([H])(C([H])(C([H])([H])[H])C([H])([H])[H])C1([H])[H])N2[H]


 21 23  0  0  0  0  0  0  0  0999 V2000
   22.5304    9.3205   54.0562 C   0  0  0  0  0  0  0  0  0  0  0  0
   22.3592    9.1507   55.5407 C   0  0  0  0  0  0  0  0  0  0  0  0
   23.4958    9.9594   56.1822 C   0  0  0  0  0  0  0  0  0  0  0  0
   24.7721    9.3783   55.6604 C   0  0  0  0  0  0  0  0  0  0  0  0
   25.8877    9.5838   56.4483 C   0  0  0  0  0  0  0  0  0  0  0  0
   27.0918    9.0693   56.0153 C   0  0  0  0  0  0  0  0  0  0  0  0
   28.6227    9.3720   57.1320 Br  0  0  0  0  0  0  0  0  0  0  0  0
   27.1761    8.3694   54.8276 C   0  0  0  0  0  0  0  0  0  0  0  0
   26.0559    8.1702   54.0490 C   0  0  0  0  0  0  0  0  0  0  0  0
   24.8340    8.6755   54.4591 C   0  0  0  0  0  0  0  0  0  0  0  0
   23.6576    8.4937   53.6853 N   0  0  0  0  0  0  0  0  0  0  0  0
   23.6621    7.8003   52.9163 H   0  0  0  0  0  0  0  0  0  0  0  0
   20.0049    7.0093   52.9748 C   0  0  0  0  0  0  0  0  0  0  0  0
   19.7270    7.4744   51.5916 C   0  0  0  0  0  0  0  0  0  0  0  0
   20.7340    8.3796   50.9902 C   0  0  0  0  0  0  0  0  0  0  0  0
   21.6577    9.0527   51.9206 C   0  0  0  0  0  0  0  0  0  0  0  0
   21.3464    9.0820   53.2846 N   0  0  0  0  0  0  0  0  0  0  0  0
   20.5988    8.0431   53.8682 C   0  0  0  0  0  0  0  0  0  0  0  0
   21.9582    5.8116   53.9851 C   0  0  0  0  0  0  0  0  0  0  0  0
   20.7369    5.7005   53.0684 C   0  0  0  0  0  0  0  0  0  0  0  0
   19.9483    4.5329   53.5140 C   0  0  0  0  0  0  0  0  0  0  0  0
 19 20  1  0  0  0
 20 21  1  0  0  0
 20 13  1  0  0  0
 13 14  1  0  0  0
 14 15  1  0  0  0
 15 16  1  0  0  0
 16 17  1  0  0  0
 17 18  1  0  0  0
 17  1  1  0  0  0
  1  2  1  0  0  0
  2  3  1  0  0  0
  3  4  1  0  0  0
  4  5  2  0  0  0
  5  6  1  0  0  0
  6  7  1  0  0  0
  6  8  2  0  0  0
  8  9  1  0  0  0
  9 10  2  0  0  0
 10 11  1  0  0  0
 18 13  1  0  0  0
 11  1  1  0  0  0
 10  4  1  0  0  0
 11 12  1  0  0  0
M  END
> <minimizedAffinity>
10.62510

> <CNNscore>
0.5140640140

> <CNNaffinity>
5.6995697021

> <CNN_VS>
2.9299435616

> <CNNaffinity_variance>
0.1813857406

$$$$
[H]c1c([H])c2c(c([H])c1Br)C([H])([H])C([H])([H])[C@]([H])(N1C([H])([H])C([H])([H])C([H])([H])[C@@]([H])(C([H])(C([H])([H])[H])C([H])([H])[H])C1([H])[H])N2[H]


 21 23  0  0  0  0  0  0  0  0999 V2000
   24.4857    9.2873   55.7112 C   0  0  0  0  0  0  0  0  0  0  0  0
   23.5177   10.3842   55.3624 C   0  0  0  0  0  0  0  0  0  0  0  0
   22.1204    9.7837   55.5732 C   0  0  0  0  0  0  0  0  0  0  0  0
   22.0299    8.5991   54.6636 C   0  0  0  0  0  0  0  0  0  0  0  0
   20.7516    8.2176   54.3055 C   0  0  0  0  0  0  0  0  0  0  0  0
   20.6093    7.1312   53.4680 C   0  0  0  0  0  0  0  0  0  0  0  0
   18.8208    6.6262   52.9895 Br  0  0  0  0  0  0  0  0  0  0  0  0
   21.7150    6.4468   53.0026 C   0  0  0  0  0  0  0  0  0  0  0  0
   22.9864    6.8365   53.3665 C   0  0  0  0  0  0  0  0  0  0  0  0
   23.1592    7.9235   54.2062 C   0  0  0  0  0  0  0  0  0  0  0  0
   24.4513    8.3554   54.6057 N   0  0  0  0  0  0  0  0  0  0  0  0
   25.2814    7.9942   54.1031 H   0  0  0  0  0  0  0  0  0  0  0  0
   28.0291    9.0732   55.1747 C   0  0  0  0  0  0  0  0  0  0  0  0
   28.5663    9.2961   56.5416 C   0  0  0  0  0  0  0  0  0  0  0  0
   27.6017    9.1494   57.6565 C   0  0  0  0  0  0  0  0  0  0  0  0
   26.1716    9.2184   57.3071 C   0  0  0  0  0  0  0  0  0  0  0  0
   25.8008    9.7368   56.0613 N   0  0  0  0  0  0  0  0  0  0  0  0
   26.6578    9.6117   54.9529 C   0  0  0  0  0  0  0  0  0  0  0  0
   26.9535    7.2593   53.8243 C   0  0  0  0  0  0  0  0  0  0  0  0
   28.1696    7.6688   54.6596 C   0  0  0  0  0  0  0  0  0  0  0  0
   29.3788    7.3754   53.8623 C   0  0  0  0  0  0  0  0  0  0  0  0
 19 20  1  0  0  0
 20 21  1  0  0  0
 20 13  1  0  0  0
 13 14  1  0  0  0
 14 15  1  0  0  0
 15 16  1  0  0  0
 16 17  1  0  0  0
 17 18  1  0  0  0
 17  1  1  0  0  0
  1  2  1  0  0  0
  2  3  1  0  0  0
  3  4  1  0  0  0
  4  5  2  0  0  0
  5  6  1  0  0  0
  6  7  1  0  0  0
  6  8  2  0  0  0
  8  9  1  0  0  0
  9 10  2  0  0  0
 10 11  1  0  0  0
 18 13  1  0  0  0
 11  1  1  0  0  0
 10  4  1  0  0  0
 11 12  1  0  0  0
M  END
> <minimizedAffinity>
19.86037

> <CNNscore>
0.5135672688

> <CNNaffinity>
5.5014581680

> <CNN_VS>
2.8253688812

> <CNNaffinity_variance>
0.0536053590

$$$$
[H]c1c([H])c2c(c([H])c1Br)C([H])([H])C([H])([H])[C@]([H])(N1C([H])([H])C([H])([H])C([H])([H])[C@@]([H])(C([H])(C([H])([H])[H])C([H])([H])[H])C1([H])[H])N2[H]


 21 23  0  0  0  0  0  0  0  0999 V2000
   20.3535    7.1297   53.2789 C   0  0  0  0  0  0  0  0  0  0  0  0
   21.0196    5.9437   53.9205 C   0  0  0  0  0  0  0  0  0  0  0  0
   20.3945    4.7094   53.2549 C   0  0  0  0  0  0  0  0  0  0  0  0
   18.9247    4.7845   53.5253 C   0  0  0  0  0  0  0  0  0  0  0  0
   18.2467    3.5821   53.4776 C   0  0  0  0  0  0  0  0  0  0  0  0
   16.8890    3.5927   53.7193 C   0  0  0  0  0  0  0  0  0  0  0  0
   15.9759    1.9065   53.6455 Br  0  0  0  0  0  0  0  0  0  0  0  0
   16.2295    4.7732   54.0007 C   0  0  0  0  0  0  0  0  0  0  0  0
   16.9164    5.9677   54.0458 C   0  0  0  0  0  0  0  0  0  0  0  0
   18.2800    5.9869   53.8071 C   0  0  0  0  0  0  0  0  0  0  0  0
   19.0232    7.1960   53.8423 N   0  0  0  0  0  0  0  0  0  0  0  0
   18.5915    8.0413   54.2561 H   0  0  0  0  0  0  0  0  0  0  0  0
   23.5436    8.7606   53.5096 C   0  0  0  0  0  0  0  0  0  0  0  0
   23.2335    9.9343   54.3658 C   0  0  0  0  0  0  0  0  0  0  0  0
   21.9592    9.8770   55.1194 C   0  0  0  0  0  0  0  0  0  0  0  0
   20.9544    8.9078   54.6469 C   0  0  0  0  0  0  0  0  0  0  0  0
   21.0927    8.3543   53.3691 N   0  0  0  0  0  0  0  0  0  0  0  0
   22.3675    8.1843   52.7994 C   0  0  0  0  0  0  0  0  0  0  0  0
   24.1869    6.3406   53.4852 C   0  0  0  0  0  0  0  0  0  0  0  0
   24.3763    7.6976   54.1685 C   0  0  0  0  0  0  0  0  0  0  0  0
   25.8289    7.9555   54.2551 C   0  0  0  0  0  0  0  0  0  0  0  0
 19 20  1  0  0  0
 20 21  1  0  0  0
 20 13  1  0  0  0
 13 14  1  0  0  0
 14 15  1  0  0  0
 15 16  1  0  0  0
 16 17  1  0  0  0
 17 18  1  0  0  0
 17  1  1  0  0  0
  1  2  1  0  0  0
  2  3  1  0  0  0
  3  4  1  0  0  0
  4  5  2  0  0  0
  5  6  1  0  0  0
  6  7  1  0  0  0
  6  8  2  0  0  0
  8  9  1  0  0  0
  9 10  2  0  0  0
 10 11  1  0  0  0
 18 13  1  0  0  0
 11  1  1  0  0  0
 10  4  1  0  0  0
 11 12  1  0  0  0
M  END
> <minimizedAffinity>
21.44226

> <CNNscore>
0.4946714342

> <CNNaffinity>
5.8113889694

> <CNN_VS>
2.8747282028

> <CNNaffinity_variance>
0.6555309296

$$$$
[H]c1c([H])c2c(c([H])c1Br)C([H])([H])C([H])([H])[C@]([H])(N1C([H])([H])C([H])([H])C([H])([H])[C@@]([H])(C([H])(C([H])([H])[H])C([H])([H])[H])C1([H])[H])N2[H]


 21 23  0  0  0  0  0  0  0  0999 V2000
   21.4987    7.5141   54.3524 C   0  0  0  0  0  0  0  0  0  0  0  0
   22.3212    6.3404   54.8081 C   0  0  0  0  0  0  0  0  0  0  0  0
   22.1559    5.2725   53.7174 C   0  0  0  0  0  0  0  0  0  0  0  0
   20.6912    4.9769   53.6366 C   0  0  0  0  0  0  0  0  0  0  0  0
   20.3596    3.7396   53.1198 C   0  0  0  0  0  0  0  0  0  0  0  0
   19.0230    3.4141   53.0225 C   0  0  0  0  0  0  0  0  0  0  0  0
   18.5950    1.6885   52.3003 Br  0  0  0  0  0  0  0  0  0  0  0  0
   18.0469    4.3019   53.4310 C   0  0  0  0  0  0  0  0  0  0  0  0
   18.3895    5.5342   53.9454 C   0  0  0  0  0  0  0  0  0  0  0  0
   19.7236    5.8877   54.0546 C   0  0  0  0  0  0  0  0  0  0  0  0
   20.1177    7.1476   54.5772 N   0  0  0  0  0  0  0  0  0  0  0  0
   19.4203    7.7261   55.0782 H   0  0  0  0  0  0  0  0  0  0  0  0
   21.7798   11.0755   53.9960 C   0  0  0  0  0  0  0  0  0  0  0  0
   23.0089   11.3717   54.7760 C   0  0  0  0  0  0  0  0  0  0  0  0
   23.8806   10.2153   55.0891 C   0  0  0  0  0  0  0  0  0  0  0  0
   23.2697    8.8784   54.9819 C   0  0  0  0  0  0  0  0  0  0  0  0
   21.8754    8.7708   54.9294 N   0  0  0  0  0  0  0  0  0  0  0  0
   21.1008    9.8031   54.3699 C   0  0  0  0  0  0  0  0  0  0  0  0
   21.2034   10.0855   51.7693 C   0  0  0  0  0  0  0  0  0  0  0  0
   21.9243   11.2169   52.5072 C   0  0  0  0  0  0  0  0  0  0  0  0
   21.4718   12.4944   51.9180 C   0  0  0  0  0  0  0  0  0  0  0  0
 19 20  1  0  0  0
 20 21  1  0  0  0
 20 13  1  0  0  0
 13 14  1  0  0  0
 14 15  1  0  0  0
 15 16  1  0  0  0
 16 17  1  0  0  0
 17 18  1  0  0  0
 17  1  1  0  0  0
  1  2  1  0  0  0
  2  3  1  0  0  0
  3  4  1  0  0  0
  4  5  2  0  0  0
  5  6  1  0  0  0
  6  7  1  0  0  0
  6  8  2  0  0  0
  8  9  1  0  0  0
  9 10  2  0  0  0
 10 11  1  0  0  0
 18 13  1  0  0  0
 11  1  1  0  0  0
 10  4  1  0  0  0
 11 12  1  0  0  0
M  END
> <minimizedAffinity>
32.12691

> <CNNscore>
0.4915329814

> <CNNaffinity>
5.6360712051

> <CNN_VS>
2.7703149319

> <CNNaffinity_variance>
0.2342660427

$$$$
[H]c1c([H])c2c(c([H])c1Br)C([H])([H])C([H])([H])[C@]([H])(N1C([H])([H])C([H])([H])C([H])([H])[C@@]([H])(C([H])(C([H])([H])[H])C([H])([H])[H])C1([H])[H])N2[H]


 21 23  0  0  0  0  0  0  0  0999 V2000
   20.8131    6.2297   54.2607 C   0  0  0  0  0  0  0  0  0  0  0  0
   19.6810    6.9716   53.6051 C   0  0  0  0  0  0  0  0  0  0  0  0
   18.3986    6.2844   54.0956 C   0  0  0  0  0  0  0  0  0  0  0  0
   18.4983    4.8537   53.6688 C   0  0  0  0  0  0  0  0  0  0  0  0
   17.2974    4.1830   53.5438 C   0  0  0  0  0  0  0  0  0  0  0  0
   17.3302    2.8609   53.1527 C   0  0  0  0  0  0  0  0  0  0  0  0
   15.6454    1.9570   52.9886 Br  0  0  0  0  0  0  0  0  0  0  0  0
   18.5308    2.2290   52.8943 C   0  0  0  0  0  0  0  0  0  0  0  0
   19.7236    2.9083   53.0223 C   0  0  0  0  0  0  0  0  0  0  0  0
   19.7207    4.2363   53.4134 C   0  0  0  0  0  0  0  0  0  0  0  0
   20.9273    4.9704   53.5585 N   0  0  0  0  0  0  0  0  0  0  0  0
   21.8039    4.5820   53.1678 H   0  0  0  0  0  0  0  0  0  0  0  0
   22.4857    9.4039   54.1324 C   0  0  0  0  0  0  0  0  0  0  0  0
   23.7952    9.0432   53.5308 C   0  0  0  0  0  0  0  0  0  0  0  0
   23.8678    7.7226   52.8632 C   0  0  0  0  0  0  0  0  0  0  0  0
   22.8192    6.7471   53.2110 C   0  0  0  0  0  0  0  0  0  0  0  0
   22.0394    6.9657   54.3522 N   0  0  0  0  0  0  0  0  0  0  0  0
   21.7776    8.2742   54.7973 C   0  0  0  0  0  0  0  0  0  0  0  0
   22.0091   11.6522   53.1382 C   0  0  0  0  0  0  0  0  0  0  0  0
   21.5707   10.1884   53.2354 C   0  0  0  0  0  0  0  0  0  0  0  0
   21.4005    9.6805   51.8581 C   0  0  0  0  0  0  0  0  0  0  0  0
 19 20  1  0  0  0
 20 21  1  0  0  0
 20 13  1  0  0  0
 13 14  1  0  0  0
 14 15  1  0  0  0
 15 16  1  0  0  0
 16 17  1  0  0  0
 17 18  1  0  0  0
 17  1  1  0  0  0
  1  2  1  0  0  0
  2  3  1  0  0  0
  3  4  1  0  0  0
  4  5  2  0  0  0
  5  6  1  0  0  0
  6  7  1  0  0  0
  6  8  2  0  0  0
  8  9  1  0  0  0
  9 10  2  0  0  0
 10 11  1  0  0  0
 18 13  1  0  0  0
 11  1  1  0  0  0
 10  4  1  0  0  0
 11 12  1  0  0  0
M  END
> <minimizedAffinity>
27.15956

> <CNNscore>
0.4906120002

> <CNNaffinity>
5.7831935883

> <CNN_VS>
2.8373041153

> <CNNaffinity_variance>
0.2396333665

$$$$
[H]OC(=O)C([H])([H])Oc1c(N2C([H])([H])C([H])([H])N(C([H])([H])[H])C([H])([H])C2([H])[H])nc(C([H])([H])[H])c([H])c1C([H])([H])n1c([H])c([H])c([H])c1[H]


 26 28  0  0  0  0  0  0  0  0999 V2000
   23.6482    8.5775   54.3841 C   0  0  0  0  0  0  0  0  0  0  0  0
   22.9532    9.2462   55.3564 N   0  0  0  0  0  0  0  0  0  0  0  0
   23.5109    9.8064   56.4257 C   0  0  0  0  0  0  0  0  0  0  0  0
   22.7298   10.5214   57.4679 C   0  0  0  0  0  0  0  0  0  0  0  0
   24.9034    9.6787   56.5195 C   0  0  0  0  0  0  0  0  0  0  0  0
   25.6432    9.0308   55.5899 C   0  0  0  0  0  0  0  0  0  0  0  0
   25.0165    8.4540   54.4807 C   0  0  0  0  0  0  0  0  0  0  0  0
   19.3168    7.1006   52.6395 C   0  0  0  0  0  0  0  0  0  0  0  0
   20.6573    6.9143   52.1184 N   0  0  0  0  0  0  0  0  0  0  0  0
   21.4607    6.1648   53.0082 C   0  0  0  0  0  0  0  0  0  0  0  0
   22.8693    6.6546   53.0311 C   0  0  0  0  0  0  0  0  0  0  0  0
   22.8677    8.0570   53.3324 N   0  0  0  0  0  0  0  0  0  0  0  0
   22.0405    8.9075   52.5074 C   0  0  0  0  0  0  0  0  0  0  0  0
   21.2077    8.0883   51.5427 C   0  0  0  0  0  0  0  0  0  0  0  0
   27.1099    8.9314   55.7074 C   0  0  0  0  0  0  0  0  0  0  0  0
   27.5930    9.5295   56.9338 N   0  0  0  0  0  0  0  0  0  0  0  0
   27.9372    8.9403   58.0992 C   0  0  0  0  0  0  0  0  0  0  0  0
   28.3422    9.8386   59.0320 C   0  0  0  0  0  0  0  0  0  0  0  0
   28.2522   11.0791   58.4277 C   0  0  0  0  0  0  0  0  0  0  0  0
   27.7940   10.8607   57.1531 C   0  0  0  0  0  0  0  0  0  0  0  0
   25.7771    7.7919   53.5368 O   0  0  0  0  0  0  0  0  0  0  0  0
   26.8763    8.2823   52.8405 C   0  0  0  0  0  0  0  0  0  0  0  0
   28.1444    8.1168   53.6316 C   0  0  0  0  0  0  0  0  0  0  0  0
   28.8200    9.2373   54.0731 O   0  0  0  0  0  0  0  0  0  0  0  0
   28.6137    6.9886   53.9075 O   0  0  0  0  0  0  0  0  0  0  0  0
   28.3937    9.9909   54.5959 H   0  0  0  0  0  0  0  0  0  0  0  0
  8  9  1  0  0  0
  9 10  1  0  0  0
 10 11  1  0  0  0
 11 12  1  0  0  0
 12 13  1  0  0  0
 13 14  1  0  0  0
 12  1  1  0  0  0
  1  2  2  0  0  0
  2  3  1  0  0  0
  3  4  1  0  0  0
  3  5  2  0  0  0
  5  6  1  0  0  0
  6 15  1  0  0  0
 15 16  1  0  0  0
 16 17  1  0  0  0
 17 18  2  0  0  0
 18 19  1  0  0  0
 19 20  2  0  0  0
  6  7  2  0  0  0
  7 21  1  0  0  0
 21 22  1  0  0  0
 22 23  1  0  0  0
 23 24  1  0  0  0
 23 25  2  0  0  0
 14  9  1  0  0  0
  7  1  1  0  0  0
 20 16  1  0  0  0
 24 26  1  0  0  0
M  END
> <minimizedAffinity>
18.02148

> <CNNscore>
0.5725874901

> <CNNaffinity>
5.4775657654

> <CNN_VS>
3.1363856792

> <CNNaffinity_variance>
0.2390319556

$$$$
[H]OC(=O)C([H])([H])Oc1c(N2C([H])([H])C([H])([H])N(C([H])([H])[H])C([H])([H])C2([H])[H])nc(C([H])([H])[H])c([H])c1C([H])([H])n1c([H])c([H])c([H])c1[H]


 26 28  0  0  0  0  0  0  0  0999 V2000
   23.4806    9.8076   55.0042 C   0  0  0  0  0  0  0  0  0  0  0  0
   23.5136   11.1382   55.3265 N   0  0  0  0  0  0  0  0  0  0  0  0
   24.5690   11.7577   55.8466 C   0  0  0  0  0  0  0  0  0  0  0  0
   24.5735   13.2028   56.1916 C   0  0  0  0  0  0  0  0  0  0  0  0
   25.6979   10.9550   56.0600 C   0  0  0  0  0  0  0  0  0  0  0  0
   25.7251    9.6357   55.7604 C   0  0  0  0  0  0  0  0  0  0  0  0
   24.5922    9.0226   55.2161 C   0  0  0  0  0  0  0  0  0  0  0  0
   21.0221    6.7242   52.0999 C   0  0  0  0  0  0  0  0  0  0  0  0
   20.6000    7.9532   52.7440 N   0  0  0  0  0  0  0  0  0  0  0  0
   21.3469    9.0627   52.2854 C   0  0  0  0  0  0  0  0  0  0  0  0
   21.6240   10.0363   53.3807 C   0  0  0  0  0  0  0  0  0  0  0  0
   22.2635    9.3463   54.4636 N   0  0  0  0  0  0  0  0  0  0  0  0
   21.6020    8.1687   54.9771 C   0  0  0  0  0  0  0  0  0  0  0  0
   20.3895    7.8157   54.1402 C   0  0  0  0  0  0  0  0  0  0  0  0
   26.9362    8.8228   55.9781 C   0  0  0  0  0  0  0  0  0  0  0  0
   27.7252    9.3190   57.0856 N   0  0  0  0  0  0  0  0  0  0  0  0
   28.3706   10.4975   57.2203 C   0  0  0  0  0  0  0  0  0  0  0  0
   29.0144   10.6005   58.4103 C   0  0  0  0  0  0  0  0  0  0  0  0
   28.7663    9.4159   59.0792 C   0  0  0  0  0  0  0  0  0  0  0  0
   27.9804    8.6560   58.2501 C   0  0  0  0  0  0  0  0  0  0  0  0
   24.6257    7.6750   54.9149 O   0  0  0  0  0  0  0  0  0  0  0  0
   24.9161    7.0892   53.6876 C   0  0  0  0  0  0  0  0  0  0  0  0
   24.2017    5.7761   53.5245 C   0  0  0  0  0  0  0  0  0  0  0  0
   23.4695    5.2664   54.5785 O   0  0  0  0  0  0  0  0  0  0  0  0
   24.2468    5.1226   52.4568 O   0  0  0  0  0  0  0  0  0  0  0  0
   22.7594    5.7819   55.0815 H   0  0  0  0  0  0  0  0  0  0  0  0
  8  9  1  0  0  0
  9 10  1  0  0  0
 10 11  1  0  0  0
 11 12  1  0  0  0
 12 13  1  0  0  0
 13 14  1  0  0  0
 12  1  1  0  0  0
  1  2  2  0  0  0
  2  3  1  0  0  0
  3  4  1  0  0  0
  3  5  2  0  0  0
  5  6  1  0  0  0
  6 15  1  0  0  0
 15 16  1  0  0  0
 16 17  1  0  0  0
 17 18  2  0  0  0
 18 19  1  0  0  0
 19 20  2  0  0  0
  6  7  2  0  0  0
  7 21  1  0  0  0
 21 22  1  0  0  0
 22 23  1  0  0  0
 23 24  1  0  0  0
 23 25  2  0  0  0
 14  9  1  0  0  0
  7  1  1  0  0  0
 20 16  1  0  0  0
 24 26  1  0  0  0
M  END
> <minimizedAffinity>
23.65982

> <CNNscore>
0.5655978918

> <CNNaffinity>
5.6060962677

> <CNN_VS>
3.1707961559

> <CNNaffinity_variance>
0.3936126828

$$$$
[H]OC(=O)C([H])([H])Oc1c(N2C([H])([H])C([H])([H])N(C([H])([H])[H])C([H])([H])C2([H])[H])nc(C([H])([H])[H])c([H])c1C([H])([H])n1c([H])c([H])c([H])c1[H]


 26 28  0  0  0  0  0  0  0  0999 V2000
   24.0952    8.4876   53.8028 C   0  0  0  0  0  0  0  0  0  0  0  0
   25.1076    8.4933   52.8805 N   0  0  0  0  0  0  0  0  0  0  0  0
   26.4011    8.5206   53.1874 C   0  0  0  0  0  0  0  0  0  0  0  0
   27.4781    8.5317   52.1640 C   0  0  0  0  0  0  0  0  0  0  0  0
   26.6983    8.5435   54.5569 C   0  0  0  0  0  0  0  0  0  0  0  0
   25.7413    8.5380   55.5136 C   0  0  0  0  0  0  0  0  0  0  0  0
   24.3919    8.5106   55.1474 C   0  0  0  0  0  0  0  0  0  0  0  0
   21.0735    7.7842   50.0132 C   0  0  0  0  0  0  0  0  0  0  0  0
   20.8366    8.3902   51.3094 N   0  0  0  0  0  0  0  0  0  0  0  0
   21.6325    9.5437   51.4964 C   0  0  0  0  0  0  0  0  0  0  0  0
   22.1107    9.6659   52.9038 C   0  0  0  0  0  0  0  0  0  0  0  0
   22.7912    8.4571   53.2690 N   0  0  0  0  0  0  0  0  0  0  0  0
   22.0791    7.2150   53.0736 C   0  0  0  0  0  0  0  0  0  0  0  0
   20.7592    7.4484   52.3675 C   0  0  0  0  0  0  0  0  0  0  0  0
   26.0875    8.5419   56.9471 C   0  0  0  0  0  0  0  0  0  0  0  0
   27.1249    9.5057   57.2473 N   0  0  0  0  0  0  0  0  0  0  0  0
   28.1880    9.3943   58.0726 C   0  0  0  0  0  0  0  0  0  0  0  0
   28.9423   10.5220   58.0979 C   0  0  0  0  0  0  0  0  0  0  0  0
   28.3252   11.4102   57.2363 C   0  0  0  0  0  0  0  0  0  0  0  0
   27.2231   10.7657   56.7339 C   0  0  0  0  0  0  0  0  0  0  0  0
   23.4200    8.5077   56.1289 O   0  0  0  0  0  0  0  0  0  0  0  0
   22.6271    9.5743   56.5378 C   0  0  0  0  0  0  0  0  0  0  0  0
   21.3841    9.6862   55.6990 C   0  0  0  0  0  0  0  0  0  0  0  0
   20.5381    8.6001   55.5913 O   0  0  0  0  0  0  0  0  0  0  0  0
   21.0854   10.7390   55.0896 O   0  0  0  0  0  0  0  0  0  0  0  0
   20.1628    8.0894   56.3795 H   0  0  0  0  0  0  0  0  0  0  0  0
  8  9  1  0  0  0
  9 10  1  0  0  0
 10 11  1  0  0  0
 11 12  1  0  0  0
 12 13  1  0  0  0
 13 14  1  0  0  0
 12  1  1  0  0  0
  1  2  2  0  0  0
  2  3  1  0  0  0
  3  4  1  0  0  0
  3  5  2  0  0  0
  5  6  1  0  0  0
  6 15  1  0  0  0
 15 16  1  0  0  0
 16 17  1  0  0  0
 17 18  2  0  0  0
 18 19  1  0  0  0
 19 20  2  0  0  0
  6  7  2  0  0  0
  7 21  1  0  0  0
 21 22  1  0  0  0
 22 23  1  0  0  0
 23 24  1  0  0  0
 23 25  2  0  0  0
 14  9  1  0  0  0
  7  1  1  0  0  0
 20 16  1  0  0  0
 24 26  1  0  0  0
M  END
> <minimizedAffinity>
19.39316

> <CNNscore>
0.5334716439

> <CNNaffinity>
5.2235288620

> <CNN_VS>
2.7866046429

> <CNNaffinity_variance>
0.2873539329

$$$$
[H]OC(=O)C([H])([H])Oc1c(N2C([H])([H])C([H])([H])N(C([H])([H])[H])C([H])([H])C2([H])[H])nc(C([H])([H])[H])c([H])c1C([H])([H])n1c([H])c([H])c([H])c1[H]


 26 28  0  0  0  0  0  0  0  0999 V2000
   23.0932    8.4093   53.9802 C   0  0  0  0  0  0  0  0  0  0  0  0
   22.5690    9.3314   54.8465 N   0  0  0  0  0  0  0  0  0  0  0  0
   23.2674    9.9548   55.7908 C   0  0  0  0  0  0  0  0  0  0  0  0
   22.6697   10.9474   56.7207 C   0  0  0  0  0  0  0  0  0  0  0  0
   24.6247    9.6135   55.8649 C   0  0  0  0  0  0  0  0  0  0  0  0
   25.1988    8.7110   55.0360 C   0  0  0  0  0  0  0  0  0  0  0  0
   24.4274    8.0766   54.0571 C   0  0  0  0  0  0  0  0  0  0  0  0
   19.2718    8.9466   50.9646 C   0  0  0  0  0  0  0  0  0  0  0  0
   19.9127    7.7486   51.4716 N   0  0  0  0  0  0  0  0  0  0  0  0
   19.8169    7.6648   52.8798 C   0  0  0  0  0  0  0  0  0  0  0  0
   21.0534    7.0935   53.4873 C   0  0  0  0  0  0  0  0  0  0  0  0
   22.1823    7.8646   53.0529 N   0  0  0  0  0  0  0  0  0  0  0  0
   22.3464    8.0486   51.6291 C   0  0  0  0  0  0  0  0  0  0  0  0
   21.1674    7.4800   50.8663 C   0  0  0  0  0  0  0  0  0  0  0  0
   26.6350    8.3889   55.1265 C   0  0  0  0  0  0  0  0  0  0  0  0
   27.2670    9.0580   56.2438 N   0  0  0  0  0  0  0  0  0  0  0  0
   27.4253    8.6392   57.5179 C   0  0  0  0  0  0  0  0  0  0  0  0
   28.0692    9.5540   58.2858 C   0  0  0  0  0  0  0  0  0  0  0  0
   28.3402   10.6242   57.4532 C   0  0  0  0  0  0  0  0  0  0  0  0
   27.8412   10.2951   56.2183 C   0  0  0  0  0  0  0  0  0  0  0  0
   25.0190    7.1547   53.2158 O   0  0  0  0  0  0  0  0  0  0  0  0
   24.6839    5.8141   53.0600 C   0  0  0  0  0  0  0  0  0  0  0  0
   23.6292    5.3948   54.0464 C   0  0  0  0  0  0  0  0  0  0  0  0
   23.8958    5.4725   55.3991 O   0  0  0  0  0  0  0  0  0  0  0  0
   22.5070    4.9743   53.6817 O   0  0  0  0  0  0  0  0  0  0  0  0
   24.2411    6.3009   55.8654 H   0  0  0  0  0  0  0  0  0  0  0  0
  8  9  1  0  0  0
  9 10  1  0  0  0
 10 11  1  0  0  0
 11 12  1  0  0  0
 12 13  1  0  0  0
 13 14  1  0  0  0
 12  1  1  0  0  0
  1  2  2  0  0  0
  2  3  1  0  0  0
  3  4  1  0  0  0
  3  5  2  0  0  0
  5  6  1  0  0  0
  6 15  1  0  0  0
 15 16  1  0  0  0
 16 17  1  0  0  0
 17 18  2  0  0  0
 18 19  1  0  0  0
 19 20  2  0  0  0
  6  7  2  0  0  0
  7 21  1  0  0  0
 21 22  1  0  0  0
 22 23  1  0  0  0
 23 24  1  0  0  0
 23 25  2  0  0  0
 14  9  1  0  0  0
  7  1  1  0  0  0
 20 16  1  0  0  0
 24 26  1  0  0  0
M  END
> <minimizedAffinity>
18.47017

> <CNNscore>
0.5333932638

> <CNNaffinity>
5.6390957832

> <CNN_VS>
3.0078556538

> <CNNaffinity_variance>
0.5015612841

$$$$
[H]OC(=O)C([H])([H])Oc1c(N2C([H])([H])C([H])([H])N(C([H])([H])[H])C([H])([H])C2([H])[H])nc(C([H])([H])[H])c([H])c1C([H])([H])n1c([H])c([H])c([H])c1[H]


 26 28  0  0  0  0  0  0  0  0999 V2000
   24.5189    8.2759   53.7306 C   0  0  0  0  0  0  0  0  0  0  0  0
   25.7386    7.9811   53.1820 N   0  0  0  0  0  0  0  0  0  0  0  0
   26.9029    8.1772   53.7937 C   0  0  0  0  0  0  0  0  0  0  0  0
   28.2120    7.8524   53.1707 C   0  0  0  0  0  0  0  0  0  0  0  0
   26.8257    8.7223   55.0826 C   0  0  0  0  0  0  0  0  0  0  0  0
   25.6501    9.0326   55.6767 C   0  0  0  0  0  0  0  0  0  0  0  0
   24.4479    8.8119   54.9972 C   0  0  0  0  0  0  0  0  0  0  0  0
   19.7341    7.3470   53.2529 C   0  0  0  0  0  0  0  0  0  0  0  0
   20.8241    7.1940   52.3085 N   0  0  0  0  0  0  0  0  0  0  0  0
   21.7803    6.2586   52.7664 C   0  0  0  0  0  0  0  0  0  0  0  0
   23.1705    6.6684   52.4144 C   0  0  0  0  0  0  0  0  0  0  0  0
   23.4048    7.9918   52.9156 N   0  0  0  0  0  0  0  0  0  0  0  0
   22.4563    9.0159   52.5417 C   0  0  0  0  0  0  0  0  0  0  0  0
   21.2888    8.4250   51.7781 C   0  0  0  0  0  0  0  0  0  0  0  0
   25.6018    9.5861   57.0427 C   0  0  0  0  0  0  0  0  0  0  0  0
   26.9230    9.7046   57.6221 N   0  0  0  0  0  0  0  0  0  0  0  0
   27.6082    8.8258   58.3850 C   0  0  0  0  0  0  0  0  0  0  0  0
   28.8272    9.2984   58.7483 C   0  0  0  0  0  0  0  0  0  0  0  0
   28.9295   10.5565   58.1838 C   0  0  0  0  0  0  0  0  0  0  0  0
   27.7577   10.7772   57.5054 C   0  0  0  0  0  0  0  0  0  0  0  0
   23.2516    9.1332   55.6084 O   0  0  0  0  0  0  0  0  0  0  0  0
   22.0416    8.4553   55.5086 C   0  0  0  0  0  0  0  0  0  0  0  0
   22.1648    7.0391   55.9989 C   0  0  0  0  0  0  0  0  0  0  0  0
   21.4977    6.6577   57.1462 O   0  0  0  0  0  0  0  0  0  0  0  0
   22.8566    6.1850   55.3980 O   0  0  0  0  0  0  0  0  0  0  0  0
   20.5102    6.8052   57.3072 H   0  0  0  0  0  0  0  0  0  0  0  0
  8  9  1  0  0  0
  9 10  1  0  0  0
 10 11  1  0  0  0
 11 12  1  0  0  0
 12 13  1  0  0  0
 13 14  1  0  0  0
 12  1  1  0  0  0
  1  2  2  0  0  0
  2  3  1  0  0  0
  3  4  1  0  0  0
  3  5  2  0  0  0
  5  6  1  0  0  0
  6 15  1  0  0  0
 15 16  1  0  0  0
 16 17  1  0  0  0
 17 18  2  0  0  0
 18 19  1  0  0  0
 19 20  2  0  0  0
  6  7  2  0  0  0
  7 21  1  0  0  0
 21 22  1  0  0  0
 22 23  1  0  0  0
 23 24  1  0  0  0
 23 25  2  0  0  0
 14  9  1  0  0  0
  7  1  1  0  0  0
 20 16  1  0  0  0
 24 26  1  0  0  0
M  END
> <minimizedAffinity>
11.58012

> <CNNscore>
0.5313217640

> <CNNaffinity>
5.7005715370

> <CNN_VS>
3.0288376808

> <CNNaffinity_variance>
0.1123602241

$$$$
[H]OC(=O)C([H])([H])Oc1c(N2C([H])([H])C([H])([H])N(C([H])([H])[H])C([H])([H])C2([H])[H])nc(C([H])([H])[H])c([H])c1C([H])([H])n1c([H])c([H])c([H])c1[H]


 26 28  0  0  0  0  0  0  0  0999 V2000
   22.5857    7.9399   53.9331 C   0  0  0  0  0  0  0  0  0  0  0  0
   21.9440    7.1477   54.8475 N   0  0  0  0  0  0  0  0  0  0  0  0
   22.5448    6.2238   55.5915 C   0  0  0  0  0  0  0  0  0  0  0  0
   21.8208    5.3746   56.5724 C   0  0  0  0  0  0  0  0  0  0  0  0
   23.9255    6.0894   55.3921 C   0  0  0  0  0  0  0  0  0  0  0  0
   24.6136    6.8441   54.5043 C   0  0  0  0  0  0  0  0  0  0  0  0
   23.9425    7.8040   53.7401 C   0  0  0  0  0  0  0  0  0  0  0  0
   22.0769   12.0467   51.3136 C   0  0  0  0  0  0  0  0  0  0  0  0
   21.0870   11.2276   51.9862 N   0  0  0  0  0  0  0  0  0  0  0  0
   21.3066   11.1895   53.3824 C   0  0  0  0  0  0  0  0  0  0  0  0
   21.0044    9.8462   53.9555 C   0  0  0  0  0  0  0  0  0  0  0  0
   21.7654    8.8579   53.2471 N   0  0  0  0  0  0  0  0  0  0  0  0
   21.6463    8.8417   51.8071 C   0  0  0  0  0  0  0  0  0  0  0  0
   20.8133   10.0077   51.3156 C   0  0  0  0  0  0  0  0  0  0  0  0
   26.0704    6.6923   54.3326 C   0  0  0  0  0  0  0  0  0  0  0  0
   26.8037    7.7439   55.0047 N   0  0  0  0  0  0  0  0  0  0  0  0
   26.3678    8.6612   55.8948 C   0  0  0  0  0  0  0  0  0  0  0  0
   27.3575    9.4945   56.3039 C   0  0  0  0  0  0  0  0  0  0  0  0
   28.4971    9.0863   55.6355 C   0  0  0  0  0  0  0  0  0  0  0  0
   28.1308    8.0207   54.8529 C   0  0  0  0  0  0  0  0  0  0  0  0
   24.6504    8.5694   52.8340 O   0  0  0  0  0  0  0  0  0  0  0  0
   25.8360    9.2616   53.0550 C   0  0  0  0  0  0  0  0  0  0  0  0
   26.9315    8.7759   52.1465 C   0  0  0  0  0  0  0  0  0  0  0  0
   27.4484    7.5078   52.3244 O   0  0  0  0  0  0  0  0  0  0  0  0
   27.3956    9.4867   51.2254 O   0  0  0  0  0  0  0  0  0  0  0  0
   26.8894    6.6666   52.3771 H   0  0  0  0  0  0  0  0  0  0  0  0
  8  9  1  0  0  0
  9 10  1  0  0  0
 10 11  1  0  0  0
 11 12  1  0  0  0
 12 13  1  0  0  0
 13 14  1  0  0  0
 12  1  1  0  0  0
  1  2  2  0  0  0
  2  3  1  0  0  0
  3  4  1  0  0  0
  3  5  2  0  0  0
  5  6  1  0  0  0
  6 15  1  0  0  0
 15 16  1  0  0  0
 16 17  1  0  0  0
 17 18  2  0  0  0
 18 19  1  0  0  0
 19 20  2  0  0  0
  6  7  2  0  0  0
  7 21  1  0  0  0
 21 22  1  0  0  0
 22 23  1  0  0  0
 23 24  1  0  0  0
 23 25  2  0  0  0
 14  9  1  0  0  0
  7  1  1  0  0  0
 20 16  1  0  0  0
 24 26  1  0  0  0
M  END
> <minimizedAffinity>
22.66935

> <CNNscore>
0.5122812390

> <CNNaffinity>
5.2574534416

> <CNN_VS>
2.6932947636

> <CNNaffinity_variance>
0.2038387060

$$$$
[H]OC(=O)C([H])([H])Oc1c(N2C([H])([H])C([H])([H])N(C([H])([H])[H])C([H])([H])C2([H])[H])nc(C([H])([H])[H])c([H])c1C([H])([H])n1c([H])c([H])c([H])c1[H]


 26 28  0  0  0  0  0  0  0  0999 V2000
   22.4682    8.5947   53.9736 C   0  0  0  0  0  0  0  0  0  0  0  0
   22.4059    9.7765   54.6628 N   0  0  0  0  0  0  0  0  0  0  0  0
   23.4565   10.3832   55.2071 C   0  0  0  0  0  0  0  0  0  0  0  0
   23.3574   11.6633   55.9547 C   0  0  0  0  0  0  0  0  0  0  0  0
   24.6865    9.7331   55.0372 C   0  0  0  0  0  0  0  0  0  0  0  0
   24.8102    8.5649   54.3654 C   0  0  0  0  0  0  0  0  0  0  0  0
   23.6789    7.9591   53.8095 C   0  0  0  0  0  0  0  0  0  0  0  0
   19.3976    4.8856   53.0791 C   0  0  0  0  0  0  0  0  0  0  0  0
   19.3887    6.2546   52.6004 N   0  0  0  0  0  0  0  0  0  0  0  0
   20.5409    6.5440   51.8337 C   0  0  0  0  0  0  0  0  0  0  0  0
   21.0297    7.9332   52.0688 C   0  0  0  0  0  0  0  0  0  0  0  0
   21.2383    8.1195   53.4758 N   0  0  0  0  0  0  0  0  0  0  0  0
   20.1333    7.8074   54.3530 C   0  0  0  0  0  0  0  0  0  0  0  0
   18.9820    7.1938   53.5828 C   0  0  0  0  0  0  0  0  0  0  0  0
   26.1225    7.9163   54.1865 C   0  0  0  0  0  0  0  0  0  0  0  0
   27.1544    8.5661   54.9664 N   0  0  0  0  0  0  0  0  0  0  0  0
   28.4191    8.8878   54.6191 C   0  0  0  0  0  0  0  0  0  0  0  0
   29.0952    9.4889   55.6304 C   0  0  0  0  0  0  0  0  0  0  0  0
   28.2098    9.5568   56.6904 C   0  0  0  0  0  0  0  0  0  0  0  0
   27.0384    8.9883   56.2583 C   0  0  0  0  0  0  0  0  0  0  0  0
   23.8117    6.7656   53.1272 O   0  0  0  0  0  0  0  0  0  0  0  0
   23.4472    5.4965   53.5632 C   0  0  0  0  0  0  0  0  0  0  0  0
   23.2482    5.4653   55.0534 C   0  0  0  0  0  0  0  0  0  0  0  0
   22.0975    6.0027   55.5958 O   0  0  0  0  0  0  0  0  0  0  0  0
   24.0961    4.9642   55.8274 O   0  0  0  0  0  0  0  0  0  0  0  0
   21.1612    5.7644   55.2968 H   0  0  0  0  0  0  0  0  0  0  0  0
  8  9  1  0  0  0
  9 10  1  0  0  0
 10 11  1  0  0  0
 11 12  1  0  0  0
 12 13  1  0  0  0
 13 14  1  0  0  0
 12  1  1  0  0  0
  1  2  2  0  0  0
  2  3  1  0  0  0
  3  4  1  0  0  0
  3  5  2  0  0  0
  5  6  1  0  0  0
  6 15  1  0  0  0
 15 16  1  0  0  0
 16 17  1  0  0  0
 17 18  2  0  0  0
 18 19  1  0  0  0
 19 20  2  0  0  0
  6  7  2  0  0  0
  7 21  1  0  0  0
 21 22  1  0  0  0
 22 23  1  0  0  0
 23 24  1  0  0  0
 23 25  2  0  0  0
 14  9  1  0  0  0
  7  1  1  0  0  0
 20 16  1  0  0  0
 24 26  1  0  0  0
M  END
> <minimizedAffinity>
18.98030

> <CNNscore>
0.4952621758

> <CNNaffinity>
5.5638160706

> <CNN_VS>
2.7555477619

> <CNNaffinity_variance>
0.7149908543

$$$$
[H]OC(=O)C([H])([H])Oc1c(N2C([H])([H])C([H])([H])N(C([H])([H])[H])C([H])([H])C2([H])[H])nc(C([H])([H])[H])c([H])c1C([H])([H])n1c([H])c([H])c([H])c1[H]


 26 28  0  0  0  0  0  0  0  0999 V2000
   24.6540    7.3039   53.7862 C   0  0  0  0  0  0  0  0  0  0  0  0
   24.9635    6.0063   53.4763 N   0  0  0  0  0  0  0  0  0  0  0  0
   24.0651    5.0391   53.3158 C   0  0  0  0  0  0  0  0  0  0  0  0
   24.4314    3.6378   52.9849 C   0  0  0  0  0  0  0  0  0  0  0  0
   22.7273    5.4213   53.4839 C   0  0  0  0  0  0  0  0  0  0  0  0
   22.3607    6.6876   53.7892 C   0  0  0  0  0  0  0  0  0  0  0  0
   23.3380    7.6747   53.9510 C   0  0  0  0  0  0  0  0  0  0  0  0
   29.2275    8.1728   55.3076 C   0  0  0  0  0  0  0  0  0  0  0  0
   28.1942    9.0843   54.8549 N   0  0  0  0  0  0  0  0  0  0  0  0
   27.0618    9.0466   55.7006 C   0  0  0  0  0  0  0  0  0  0  0  0
   25.7906    9.1825   54.9325 C   0  0  0  0  0  0  0  0  0  0  0  0
   25.7551    8.1745   53.9125 N   0  0  0  0  0  0  0  0  0  0  0  0
   26.8896    8.0989   53.0207 C   0  0  0  0  0  0  0  0  0  0  0  0
   27.9865    9.0507   53.4519 C   0  0  0  0  0  0  0  0  0  0  0  0
   20.9423    7.0623   53.9394 C   0  0  0  0  0  0  0  0  0  0  0  0
   20.7830    8.2528   54.7471 N   0  0  0  0  0  0  0  0  0  0  0  0
   20.2198    9.4381   54.4283 C   0  0  0  0  0  0  0  0  0  0  0  0
   20.2623   10.3230   55.4561 C   0  0  0  0  0  0  0  0  0  0  0  0
   20.8909    9.6648   56.4971 C   0  0  0  0  0  0  0  0  0  0  0  0
   21.1964    8.4086   56.0377 C   0  0  0  0  0  0  0  0  0  0  0  0
   22.9572    8.9648   54.2649 O   0  0  0  0  0  0  0  0  0  0  0  0
   23.1446   10.1119   53.5015 C   0  0  0  0  0  0  0  0  0  0  0  0
   22.1071   10.2250   52.4189 C   0  0  0  0  0  0  0  0  0  0  0  0
   21.8225    9.1250   51.6341 O   0  0  0  0  0  0  0  0  0  0  0  0
   21.4856   11.2908   52.2020 O   0  0  0  0  0  0  0  0  0  0  0  0
   21.5862    8.2112   51.9975 H   0  0  0  0  0  0  0  0  0  0  0  0
  8  9  1  0  0  0
  9 10  1  0  0  0
 10 11  1  0  0  0
 11 12  1  0  0  0
 12 13  1  0  0  0
 13 14  1  0  0  0
 12  1  1  0  0  0
  1  2  2  0  0  0
  2  3  1  0  0  0
  3  4  1  0  0  0
  3  5  2  0  0  0
  5  6  1  0  0  0
  6 15  1  0  0  0
 15 16  1  0  0  0
 16 17  1  0  0  0
 17 18  2  0  0  0
 18 19  1  0  0  0
 19 20  2  0  0  0
  6  7  2  0  0  0
  7 21  1  0  0  0
 21 22  1  0  0  0
 22 23  1  0  0  0
 23 24  1  0  0  0
 23 25  2  0  0  0
 14  9  1  0  0  0
  7  1  1  0  0  0
 20 16  1  0  0  0
 24 26  1  0  0  0
M  END
> <minimizedAffinity>
20.60384

> <CNNscore>
0.4927011728

> <CNNaffinity>
5.3897962570

> <CNN_VS>
2.6555588245

> <CNNaffinity_variance>
0.7047118545

$$$$
[H]OC(=O)C([H])([H])Oc1c(N2C([H])([H])C([H])([H])N(C([H])([H])[H])C([H])([H])C2([H])[H])nc(C([H])([H])[H])c([H])c1C([H])([H])n1c([H])c([H])c([H])c1[H]


 26 28  0  0  0  0  0  0  0  0999 V2000
   22.6747    6.8750   54.0695 C   0  0  0  0  0  0  0  0  0  0  0  0
   22.9067    5.8159   54.9061 N   0  0  0  0  0  0  0  0  0  0  0  0
   24.0956    5.5111   55.4177 C   0  0  0  0  0  0  0  0  0  0  0  0
   24.3183    4.3513   56.3192 C   0  0  0  0  0  0  0  0  0  0  0  0
   25.1490    6.3586   55.0485 C   0  0  0  0  0  0  0  0  0  0  0  0
   24.9805    7.4204   54.2267 C   0  0  0  0  0  0  0  0  0  0  0  0
   23.7130    7.7048   53.7089 C   0  0  0  0  0  0  0  0  0  0  0  0
   19.4478    8.0199   50.5676 C   0  0  0  0  0  0  0  0  0  0  0  0
   19.2663    7.8360   51.9947 N   0  0  0  0  0  0  0  0  0  0  0  0
   20.0105    8.7804   52.7386 C   0  0  0  0  0  0  0  0  0  0  0  0
   20.5746    8.1855   53.9845 C   0  0  0  0  0  0  0  0  0  0  0  0
   21.3413    7.0238   53.6378 N   0  0  0  0  0  0  0  0  0  0  0  0
   20.6848    6.0154   52.8376 C   0  0  0  0  0  0  0  0  0  0  0  0
   19.3101    6.4769   52.3992 C   0  0  0  0  0  0  0  0  0  0  0  0
   26.1061    8.3054   53.8736 C   0  0  0  0  0  0  0  0  0  0  0  0
   26.8653    8.7017   55.0405 N   0  0  0  0  0  0  0  0  0  0  0  0
   26.4293    9.1515   56.2369 C   0  0  0  0  0  0  0  0  0  0  0  0
   27.4496    9.4299   57.0869 C   0  0  0  0  0  0  0  0  0  0  0  0
   28.6104    9.1408   56.3932 C   0  0  0  0  0  0  0  0  0  0  0  0
   28.2249    8.7004   55.1523 C   0  0  0  0  0  0  0  0  0  0  0  0
   23.5482    8.7887   52.8687 O   0  0  0  0  0  0  0  0  0  0  0  0
   22.8761    9.9753   53.1402 C   0  0  0  0  0  0  0  0  0  0  0  0
   22.6063   10.1280   54.6117 C   0  0  0  0  0  0  0  0  0  0  0  0
   21.3929   10.6376   55.0298 O   0  0  0  0  0  0  0  0  0  0  0  0
   23.4501    9.8057   55.4795 O   0  0  0  0  0  0  0  0  0  0  0  0
   20.4932   10.2860   54.7303 H   0  0  0  0  0  0  0  0  0  0  0  0
  8  9  1  0  0  0
  9 10  1  0  0  0
 10 11  1  0  0  0
 11 12  1  0  0  0
 12 13  1  0  0  0
 13 14  1  0  0  0
 12  1  1  0  0  0
  1  2  2  0  0  0
  2  3  1  0  0  0
  3  4  1  0  0  0
  3  5  2  0  0  0
  5  6  1  0  0  0
  6 15  1  0  0  0
 15 16  1  0  0  0
 16 17  1  0  0  0
 17 18  2  0  0  0
 18 19  1  0  0  0
 19 20  2  0  0  0
  6  7  2  0  0  0
  7 21  1  0  0  0
 21 22  1  0  0  0
 22 23  1  0  0  0
 23 24  1  0  0  0
 23 25  2  0  0  0
 14  9  1  0  0  0
  7  1  1  0  0  0
 20 16  1  0  0  0
 24 26  1  0  0  0
M  END
> <minimizedAffinity>
20.64702

> <CNNscore>
0.4891204834

> <CNNaffinity>
5.2392568588

> <CNN_VS>
2.5626277924

> <CNNaffinity_variance>
0.4577439725

$$$$
[H]OC(=O)C([H])([H])[C@@]([H])(C(=O)N([H])[C@]([H])(C(=O)N1C([H])([H])C([H])([H])C([H])([H])[C@@]1([H])C(=O)N([H])[C@]([H])(C(=O)C([H])([H])[H])C([H])([H])[H])C([H])([H])c1c([H])c([H])c([H])c([H])c1[H])N([H])C(=O)[C@@]([H])(N([H])C(=O)[C@]([H])(N([H])C(=O)[C@@]([H])(N([H])C(=O)[C@]([H])(N([H])C(=O)[C@@]([H])(N([H])C(=O)[C@@]([H])(N([H])C(=O)C([H])([H])[H])C([H])([H])[H])C([H])([H])[H])C([H])([H])[H])C([H])([H])c1c([H])c([H])c([H])c([H])c1[H])C([H])([H])[H])C([H])([H])c1c([H])c([H])c([H])c([H])c1[H]


 87 90  0  0  0  0  0  0  0  0999 V2000
   23.1736   19.4560   49.2427 C   0  0  0  0  0  0  0  0  0  0  0  0
   23.3414   19.1856   50.5972 N   0  0  0  0  0  0  0  0  0  0  0  0
   22.9435   20.1053   51.6556 C   0  0  0  0  0  0  0  0  0  0  0  0
   22.3241   21.0892   51.2637 O   0  0  0  0  0  0  0  0  0  0  0  0
   23.7543   18.2951   50.8921 H   0  0  0  0  0  0  0  0  0  0  0  0
   23.3216   19.7330   52.9867 C   0  0  0  0  0  0  0  0  0  0  0  0
   23.6964   18.1700   52.8253 C   0  0  0  0  0  0  0  0  0  0  0  0
   24.4462   20.2891   53.6951 N   0  0  0  0  0  0  0  0  0  0  0  0
   25.2926   19.2353   54.2344 C   0  0  0  0  0  0  0  0  0  0  0  0
   24.8228   18.0627   53.9910 O   0  0  0  0  0  0  0  0  0  0  0  0
   24.6304   21.2501   53.8238 H   0  0  0  0  0  0  0  0  0  0  0  0
   26.5295   19.3476   54.9441 C   0  0  0  0  0  0  0  0  0  0  0  0
   26.3108   19.7954   56.2997 N   0  0  0  0  0  0  0  0  0  0  0  0
   26.5226   21.0648   56.7757 C   0  0  0  0  0  0  0  0  0  0  0  0
   26.8873   22.0493   56.1858 O   0  0  0  0  0  0  0  0  0  0  0  0
   25.9423   19.0421   57.0032 H   0  0  0  0  0  0  0  0  0  0  0  0
   26.2964   21.2398   58.3445 C   0  0  0  0  0  0  0  0  0  0  0  0
   25.2471   20.3232   58.7480 C   0  0  0  0  0  0  0  0  0  0  0  0
   27.5381   21.3258   58.8431 N   0  0  0  0  0  0  0  0  0  0  0  0
   28.8586   21.4282   59.3706 C   0  0  0  0  0  0  0  0  0  0  0  0
   29.5263   22.4705   59.3941 O   0  0  0  0  0  0  0  0  0  0  0  0
   27.5860   22.6834   58.6586 H   0  0  0  0  0  0  0  0  0  0  0  0
   29.3997   20.1822   59.9204 C   0  0  0  0  0  0  0  0  0  0  0  0
   28.3305   19.0606   59.8010 C   0  0  0  0  0  0  0  0  0  0  0  0
   29.9965   19.9194   61.1449 N   0  0  0  0  0  0  0  0  0  0  0  0
   31.4295   19.7088   61.1380 C   0  0  0  0  0  0  0  0  0  0  0  0
   32.0786   19.9712   60.1347 O   0  0  0  0  0  0  0  0  0  0  0  0
   29.4796   19.8847   62.0272 H   0  0  0  0  0  0  0  0  0  0  0  0
   32.1007   19.1218   62.3724 C   0  0  0  0  0  0  0  0  0  0  0  0
   33.1225   19.8697   63.0462 C   0  0  0  0  0  0  0  0  0  0  0  0
   32.7242   17.9249   61.5909 N   0  0  0  0  0  0  0  0  0  0  0  0
   31.7674   16.8237   61.5090 C   0  0  0  0  0  0  0  0  0  0  0  0
   32.1203   15.6575   60.6747 C   0  0  0  0  0  0  0  0  0  0  0  0
   30.7146   16.9009   62.1118 O   0  0  0  0  0  0  0  0  0  0  0  0
   33.6019   17.9078   61.2140 H   0  0  0  0  0  0  0  0  0  0  0  0
   27.4832   18.1636   54.8133 C   0  0  0  0  0  0  0  0  0  0  0  0
   28.6619   18.1905   55.6630 C   0  0  0  0  0  0  0  0  0  0  0  0
   29.2010   17.0859   56.2449 C   0  0  0  0  0  0  0  0  0  0  0  0
   30.2922   17.1721   57.1140 C   0  0  0  0  0  0  0  0  0  0  0  0
   30.7966   18.4146   57.3524 C   0  0  0  0  0  0  0  0  0  0  0  0
   30.2831   19.5544   56.7876 C   0  0  0  0  0  0  0  0  0  0  0  0
   29.2072   19.4293   55.9295 C   0  0  0  0  0  0  0  0  0  0  0  0
   21.3310   19.7900   47.7292 N   0  0  0  0  0  0  0  0  0  0  0  0
   21.9708   18.8414   48.5386 C   0  0  0  0  0  0  0  0  0  0  0  0
   21.5989   17.6724   48.6434 O   0  0  0  0  0  0  0  0  0  0  0  0
   21.6622   20.8217   47.7939 H   0  0  0  0  0  0  0  0  0  0  0  0
   20.2812   19.5842   46.7953 C   0  0  0  0  0  0  0  0  0  0  0  0
   20.3884   18.7589   44.3156 N   0  0  0  0  0  0  0  0  0  0  0  0
   20.8668   19.2016   45.5050 C   0  0  0  0  0  0  0  0  0  0  0  0
   22.2245   19.3012   45.5307 O   0  0  0  0  0  0  0  0  0  0  0  0
   19.4143   18.7025   43.9684 H   0  0  0  0  0  0  0  0  0  0  0  0
   21.3671   18.3095   43.2357 C   0  0  0  0  0  0  0  0  0  0  0  0
   19.6104   21.0335   42.0367 C   0  0  0  0  0  0  0  0  0  0  0  0
   19.9902   22.4974   41.8094 C   0  0  0  0  0  0  0  0  0  0  0  0
   21.4483   22.4155   41.3651 C   0  0  0  0  0  0  0  0  0  0  0  0
   21.3252   21.1466   40.5301 C   0  0  0  0  0  0  0  0  0  0  0  0
   20.7645   20.2807   41.6646 N   0  0  0  0  0  0  0  0  0  0  0  0
   21.4511   19.1817   42.1240 C   0  0  0  0  0  0  0  0  0  0  0  0
   22.4931   18.8320   41.3153 O   0  0  0  0  0  0  0  0  0  0  0  0
   17.0941   20.9485   42.0220 N   0  0  0  0  0  0  0  0  0  0  0  0
   18.3409   20.7739   41.3695 C   0  0  0  0  0  0  0  0  0  0  0  0
   18.3634   20.3844   40.1462 O   0  0  0  0  0  0  0  0  0  0  0  0
   17.1759   21.2933   43.0368 H   0  0  0  0  0  0  0  0  0  0  0  0
   15.5773   19.7057   40.5025 C   0  0  0  0  0  0  0  0  0  0  0  0
   15.7615   20.7342   41.5474 C   0  0  0  0  0  0  0  0  0  0  0  0
   14.6568   20.7782   42.5344 C   0  0  0  0  0  0  0  0  0  0  0  0
   14.0219   19.3445   42.6600 C   0  0  0  0  0  0  0  0  0  0  0  0
   14.1778   21.5537   43.2146 O   0  0  0  0  0  0  0  0  0  0  0  0
   20.8686   16.8893   42.9456 C   0  0  0  0  0  0  0  0  0  0  0  0
   19.9613   16.7002   41.8101 C   0  0  0  0  0  0  0  0  0  0  0  0
   20.4172   15.8695   40.7832 C   0  0  0  0  0  0  0  0  0  0  0  0
   19.7058   15.5767   39.6782 C   0  0  0  0  0  0  0  0  0  0  0  0
   18.4790   16.1155   39.5243 C   0  0  0  0  0  0  0  0  0  0  0  0
   17.9809   16.9465   40.4949 C   0  0  0  0  0  0  0  0  0  0  0  0
   18.7416   17.2350   41.6488 C   0  0  0  0  0  0  0  0  0  0  0  0
   19.1205   20.5100   46.8207 C   0  0  0  0  0  0  0  0  0  0  0  0
   18.0520   19.9909   45.8489 C   0  0  0  0  0  0  0  0  0  0  0  0
   17.7224   18.6263   45.9793 O   0  0  0  0  0  0  0  0  0  0  0  0
   17.5222   20.6953   45.0295 O   0  0  0  0  0  0  0  0  0  0  0  0
   17.8303   18.2353   46.9121 H   0  0  0  0  0  0  0  0  0  0  0  0
   24.4007   19.0759   48.3988 C   0  0  0  0  0  0  0  0  0  0  0  0
   25.4915   20.0265   48.5731 C   0  0  0  0  0  0  0  0  0  0  0  0
   26.1066   20.5964   47.4881 C   0  0  0  0  0  0  0  0  0  0  0  0
   27.1248   21.5566   47.5416 C   0  0  0  0  0  0  0  0  0  0  0  0
   27.5301   21.9413   48.8267 C   0  0  0  0  0  0  0  0  0  0  0  0
   26.9503   21.3975   49.9332 C   0  0  0  0  0  0  0  0  0  0  0  0
   25.9421   20.4499   49.8177 C   0  0  0  0  0  0  0  0  0  0  0  0
 64 65  1  0  0  0
 65 60  1  0  0  0
 60 61  1  0  0  0
 61 62  2  0  0  0
 61 53  1  0  0  0
 53 54  1  0  0  0
 54 55  1  0  0  0
 55 56  1  0  0  0
 56 57  1  0  0  0
 57 58  1  0  0  0
 58 59  2  0  0  0
 58 52  1  0  0  0
 52 69  1  0  0  0
 69 70  1  0  0  0
 70 71  2  0  0  0
 71 72  1  0  0  0
 72 73  2  0  0  0
 73 74  1  0  0  0
 74 75  2  0  0  0
 52 48  1  0  0  0
 48 49  1  0  0  0
 49 50  2  0  0  0
 49 47  1  0  0  0
 47 76  1  0  0  0
 76 77  1  0  0  0
 77 78  1  0  0  0
 77 79  2  0  0  0
 47 43  1  0  0  0
 43 44  1  0  0  0
 44 45  2  0  0  0
 44  1  1  0  0  0
  1 81  1  0  0  0
 81 82  1  0  0  0
 82 83  2  0  0  0
 83 84  1  0  0  0
 84 85  2  0  0  0
 85 86  1  0  0  0
 86 87  2  0  0  0
  1  2  1  0  0  0
  2  3  1  0  0  0
  3  4  2  0  0  0
  3  6  1  0  0  0
  6  7  1  0  0  0
  6  8  1  0  0  0
  8  9  1  0  0  0
  9 10  2  0  0  0
  9 12  1  0  0  0
 12 36  1  0  0  0
 36 37  1  0  0  0
 37 38  2  0  0  0
 38 39  1  0  0  0
 39 40  2  0  0  0
 40 41  1  0  0  0
 41 42  2  0  0  0
 12 13  1  0  0  0
 13 14  1  0  0  0
 14 15  2  0  0  0
 14 17  1  0  0  0
 17 18  1  0  0  0
 17 19  1  0  0  0
 19 20  1  0  0  0
 20 21  2  0  0  0
 20 23  1  0  0  0
 23 24  1  0  0  0
 23 25  1  0  0  0
 25 26  1  0  0  0
 26 27  2  0  0  0
 26 29  1  0  0  0
 29 30  1  0  0  0
 29 31  1  0  0  0
 31 32  1  0  0  0
 32 33  1  0  0  0
 32 34  2  0  0  0
 65 66  1  0  0  0
 66 67  1  0  0  0
 66 68  2  0  0  0
 57 53  1  0  0  0
 75 70  1  0  0  0
 87 82  1  0  0  0
 42 37  1  0  0  0
 60 63  1  0  0  0
 48 51  1  0  0  0
 78 80  1  0  0  0
 43 46  1  0  0  0
  2  5  1  0  0  0
  8 11  1  0  0  0
 13 16  1  0  0  0
 19 22  1  0  0  0
 25 28  1  0  0  0
 31 35  1  0  0  0
M  END
> <minimizedAffinity>
-1.29780

> <CNNscore>
0.5055301189

> <CNNaffinity>
6.7889609337

> <CNN_VS>
3.4320242405

> <CNNaffinity_variance>
0.1061533689

$$$$
[H]OC(=O)C([H])([H])[C@@]([H])(C(=O)N([H])[C@]([H])(C(=O)N1C([H])([H])C([H])([H])C([H])([H])[C@@]1([H])C(=O)N([H])[C@]([H])(C(=O)C([H])([H])[H])C([H])([H])[H])C([H])([H])c1c([H])c([H])c([H])c([H])c1[H])N([H])C(=O)[C@@]([H])(N([H])C(=O)[C@]([H])(N([H])C(=O)[C@@]([H])(N([H])C(=O)[C@]([H])(N([H])C(=O)[C@@]([H])(N([H])C(=O)[C@@]([H])(N([H])C(=O)C([H])([H])[H])C([H])([H])[H])C([H])([H])[H])C([H])([H])[H])C([H])([H])c1c([H])c([H])c([H])c([H])c1[H])C([H])([H])[H])C([H])([H])c1c([H])c([H])c([H])c([H])c1[H]


 87 90  0  0  0  0  0  0  0  0999 V2000
   23.6949   19.3012   49.4035 C   0  0  0  0  0  0  0  0  0  0  0  0
   23.6337   19.1812   50.7883 N   0  0  0  0  0  0  0  0  0  0  0  0
   22.9247   20.1226   51.6460 C   0  0  0  0  0  0  0  0  0  0  0  0
   22.2698   20.9644   51.0395 O   0  0  0  0  0  0  0  0  0  0  0  0
   24.0941   18.3921   51.2527 H   0  0  0  0  0  0  0  0  0  0  0  0
   23.0858   19.9314   53.0570 C   0  0  0  0  0  0  0  0  0  0  0  0
   23.1972   18.3251   53.1872 C   0  0  0  0  0  0  0  0  0  0  0  0
   24.2068   20.4208   53.8182 N   0  0  0  0  0  0  0  0  0  0  0  0
   25.1302   19.3415   54.1348 C   0  0  0  0  0  0  0  0  0  0  0  0
   24.7147   18.2040   53.7009 O   0  0  0  0  0  0  0  0  0  0  0  0
   24.3441   21.3535   54.1104 H   0  0  0  0  0  0  0  0  0  0  0  0
   26.3872   19.4014   54.8149 C   0  0  0  0  0  0  0  0  0  0  0  0
   26.2096   19.7588   56.2029 N   0  0  0  0  0  0  0  0  0  0  0  0
   26.4099   21.0013   56.7496 C   0  0  0  0  0  0  0  0  0  0  0  0
   26.7294   22.0293   56.2098 O   0  0  0  0  0  0  0  0  0  0  0  0
   25.8851   18.9544   56.8706 H   0  0  0  0  0  0  0  0  0  0  0  0
   26.2390   21.0732   58.3334 C   0  0  0  0  0  0  0  0  0  0  0  0
   25.2752   20.0617   58.7236 C   0  0  0  0  0  0  0  0  0  0  0  0
   27.4916   21.2222   58.7878 N   0  0  0  0  0  0  0  0  0  0  0  0
   28.8230   21.3916   59.2687 C   0  0  0  0  0  0  0  0  0  0  0  0
   29.4285   22.4712   59.2932 O   0  0  0  0  0  0  0  0  0  0  0  0
   27.4523   22.5840   58.6352 H   0  0  0  0  0  0  0  0  0  0  0  0
   29.4573   20.1682   59.7673 C   0  0  0  0  0  0  0  0  0  0  0  0
   28.3801   19.0594   59.9279 C   0  0  0  0  0  0  0  0  0  0  0  0
   30.2871   19.9618   60.8598 N   0  0  0  0  0  0  0  0  0  0  0  0
   31.7131   20.0272   60.6148 C   0  0  0  0  0  0  0  0  0  0  0  0
   32.1283   20.4583   59.5477 O   0  0  0  0  0  0  0  0  0  0  0  0
   29.9392   19.7852   61.8056 H   0  0  0  0  0  0  0  0  0  0  0  0
   32.6747   19.5165   61.6793 C   0  0  0  0  0  0  0  0  0  0  0  0
   33.9137   20.2039   61.9031 C   0  0  0  0  0  0  0  0  0  0  0  0
   32.9252   18.1612   60.9498 N   0  0  0  0  0  0  0  0  0  0  0  0
   32.0693   17.1198   61.5138 C   0  0  0  0  0  0  0  0  0  0  0  0
   32.0530   15.8000   60.8519 C   0  0  0  0  0  0  0  0  0  0  0  0
   31.3927   17.3680   62.4928 O   0  0  0  0  0  0  0  0  0  0  0  0
   33.5435   18.0241   60.2346 H   0  0  0  0  0  0  0  0  0  0  0  0
   27.3299   18.2249   54.5785 C   0  0  0  0  0  0  0  0  0  0  0  0
   28.4782   18.1331   55.4645 C   0  0  0  0  0  0  0  0  0  0  0  0
   28.9689   16.9608   55.9488 C   0  0  0  0  0  0  0  0  0  0  0  0
   30.0306   16.9284   56.8572 C   0  0  0  0  0  0  0  0  0  0  0  0
   30.5568   18.1260   57.2366 C   0  0  0  0  0  0  0  0  0  0  0  0
   30.0920   19.3307   56.7739 C   0  0  0  0  0  0  0  0  0  0  0  0
   29.0443   19.3230   55.8729 C   0  0  0  0  0  0  0  0  0  0  0  0
   22.3879   19.1376   47.3880 N   0  0  0  0  0  0  0  0  0  0  0  0
   22.7236   18.4711   48.5742 C   0  0  0  0  0  0  0  0  0  0  0  0
   22.2876   17.3609   48.8795 O   0  0  0  0  0  0  0  0  0  0  0  0
   22.7298   20.1604   47.2637 H   0  0  0  0  0  0  0  0  0  0  0  0
   21.6471   18.6442   46.2815 C   0  0  0  0  0  0  0  0  0  0  0  0
   20.1536   20.0862   44.6904 N   0  0  0  0  0  0  0  0  0  0  0  0
   20.6795   19.6674   45.8684 C   0  0  0  0  0  0  0  0  0  0  0  0
   20.2223   20.3744   46.9386 O   0  0  0  0  0  0  0  0  0  0  0  0
   20.2192   19.6682   43.7452 H   0  0  0  0  0  0  0  0  0  0  0  0
   19.2634   21.3243   44.6662 C   0  0  0  0  0  0  0  0  0  0  0  0
   17.7040   18.7974   42.8980 C   0  0  0  0  0  0  0  0  0  0  0  0
   16.3541   18.0966   43.0579 C   0  0  0  0  0  0  0  0  0  0  0  0
   15.4352   19.2143   43.5443 C   0  0  0  0  0  0  0  0  0  0  0  0
   16.0238   20.3329   42.6929 C   0  0  0  0  0  0  0  0  0  0  0  0
   17.4582   20.1684   43.2094 N   0  0  0  0  0  0  0  0  0  0  0  0
   18.0879   21.1833   43.8902 C   0  0  0  0  0  0  0  0  0  0  0  0
   17.4143   22.3678   43.8171 O   0  0  0  0  0  0  0  0  0  0  0  0
   17.8912   17.2602   40.9128 N   0  0  0  0  0  0  0  0  0  0  0  0
   18.2578   18.4473   41.5961 C   0  0  0  0  0  0  0  0  0  0  0  0
   19.0973   19.2534   41.0537 O   0  0  0  0  0  0  0  0  0  0  0  0
   17.1707   16.6585   41.4366 H   0  0  0  0  0  0  0  0  0  0  0  0
   19.7802   16.7929   39.3741 C   0  0  0  0  0  0  0  0  0  0  0  0
   18.3300   16.7424   39.6533 C   0  0  0  0  0  0  0  0  0  0  0  0
   17.6712   15.5192   39.1370 C   0  0  0  0  0  0  0  0  0  0  0  0
   16.2139   15.8794   38.6672 C   0  0  0  0  0  0  0  0  0  0  0  0
   17.9466   14.4267   38.9826 O   0  0  0  0  0  0  0  0  0  0  0  0
   20.2527   22.4012   44.2066 C   0  0  0  0  0  0  0  0  0  0  0  0
   20.8363   22.2693   42.8686 C   0  0  0  0  0  0  0  0  0  0  0  0
   22.1747   21.8723   42.8118 C   0  0  0  0  0  0  0  0  0  0  0  0
   22.8586   21.6879   41.6668 C   0  0  0  0  0  0  0  0  0  0  0  0
   22.2387   21.9045   40.4886 C   0  0  0  0  0  0  0  0  0  0  0  0
   20.9271   22.3048   40.4805 C   0  0  0  0  0  0  0  0  0  0  0  0
   20.2271   22.4860   41.6931 C   0  0  0  0  0  0  0  0  0  0  0  0
   21.2386   17.2165   46.2840 C   0  0  0  0  0  0  0  0  0  0  0  0
   21.3451   16.6688   44.8542 C   0  0  0  0  0  0  0  0  0  0  0  0
   21.8164   17.5799   43.8871 O   0  0  0  0  0  0  0  0  0  0  0  0
   21.0518   15.5370   44.5690 O   0  0  0  0  0  0  0  0  0  0  0  0
   22.4485   18.2985   44.2315 H   0  0  0  0  0  0  0  0  0  0  0  0
   25.0940   19.0102   48.8377 C   0  0  0  0  0  0  0  0  0  0  0  0
   25.8983   20.2213   48.7366 C   0  0  0  0  0  0  0  0  0  0  0  0
   26.3372   20.8690   49.8627 C   0  0  0  0  0  0  0  0  0  0  0  0
   27.1557   22.0053   49.8806 C   0  0  0  0  0  0  0  0  0  0  0  0
   27.5355   22.5003   48.6258 C   0  0  0  0  0  0  0  0  0  0  0  0
   27.1187   21.8917   47.4804 C   0  0  0  0  0  0  0  0  0  0  0  0
   26.3088   20.7648   47.5252 C   0  0  0  0  0  0  0  0  0  0  0  0
 64 65  1  0  0  0
 65 60  1  0  0  0
 60 61  1  0  0  0
 61 62  2  0  0  0
 61 53  1  0  0  0
 53 54  1  0  0  0
 54 55  1  0  0  0
 55 56  1  0  0  0
 56 57  1  0  0  0
 57 58  1  0  0  0
 58 59  2  0  0  0
 58 52  1  0  0  0
 52 69  1  0  0  0
 69 70  1  0  0  0
 70 71  2  0  0  0
 71 72  1  0  0  0
 72 73  2  0  0  0
 73 74  1  0  0  0
 74 75  2  0  0  0
 52 48  1  0  0  0
 48 49  1  0  0  0
 49 50  2  0  0  0
 49 47  1  0  0  0
 47 76  1  0  0  0
 76 77  1  0  0  0
 77 78  1  0  0  0
 77 79  2  0  0  0
 47 43  1  0  0  0
 43 44  1  0  0  0
 44 45  2  0  0  0
 44  1  1  0  0  0
  1 81  1  0  0  0
 81 82  1  0  0  0
 82 83  2  0  0  0
 83 84  1  0  0  0
 84 85  2  0  0  0
 85 86  1  0  0  0
 86 87  2  0  0  0
  1  2  1  0  0  0
  2  3  1  0  0  0
  3  4  2  0  0  0
  3  6  1  0  0  0
  6  7  1  0  0  0
  6  8  1  0  0  0
  8  9  1  0  0  0
  9 10  2  0  0  0
  9 12  1  0  0  0
 12 36  1  0  0  0
 36 37  1  0  0  0
 37 38  2  0  0  0
 38 39  1  0  0  0
 39 40  2  0  0  0
 40 41  1  0  0  0
 41 42  2  0  0  0
 12 13  1  0  0  0
 13 14  1  0  0  0
 14 15  2  0  0  0
 14 17  1  0  0  0
 17 18  1  0  0  0
 17 19  1  0  0  0
 19 20  1  0  0  0
 20 21  2  0  0  0
 20 23  1  0  0  0
 23 24  1  0  0  0
 23 25  1  0  0  0
 25 26  1  0  0  0
 26 27  2  0  0  0
 26 29  1  0  0  0
 29 30  1  0  0  0
 29 31  1  0  0  0
 31 32  1  0  0  0
 32 33  1  0  0  0
 32 34  2  0  0  0
 65 66  1  0  0  0
 66 67  1  0  0  0
 66 68  2  0  0  0
 57 53  1  0  0  0
 75 70  1  0  0  0
 87 82  1  0  0  0
 42 37  1  0  0  0
 60 63  1  0  0  0
 48 51  1  0  0  0
 78 80  1  0  0  0
 43 46  1  0  0  0
  2  5  1  0  0  0
  8 11  1  0  0  0
 13 16  1  0  0  0
 19 22  1  0  0  0
 25 28  1  0  0  0
 31 35  1  0  0  0
M  END
> <minimizedAffinity>
-1.04758

> <CNNscore>
0.4526824057

> <CNNaffinity>
6.9340124130

> <CNN_VS>
3.1389055252

> <CNNaffinity_variance>
0.0504926220

$$$$
[H]OC(=O)C([H])([H])[C@@]([H])(C(=O)N([H])[C@]([H])(C(=O)N1C([H])([H])C([H])([H])C([H])([H])[C@@]1([H])C(=O)N([H])[C@]([H])(C(=O)C([H])([H])[H])C([H])([H])[H])C([H])([H])c1c([H])c([H])c([H])c([H])c1[H])N([H])C(=O)[C@@]([H])(N([H])C(=O)[C@]([H])(N([H])C(=O)[C@@]([H])(N([H])C(=O)[C@]([H])(N([H])C(=O)[C@@]([H])(N([H])C(=O)[C@@]([H])(N([H])C(=O)C([H])([H])[H])C([H])([H])[H])C([H])([H])[H])C([H])([H])[H])C([H])([H])c1c([H])c([H])c([H])c([H])c1[H])C([H])([H])[H])C([H])([H])c1c([H])c([H])c([H])c([H])c1[H]


 87 90  0  0  0  0  0  0  0  0999 V2000
   24.6702   19.5875   50.4186 C   0  0  0  0  0  0  0  0  0  0  0  0
   24.9157   19.0301   51.6695 N   0  0  0  0  0  0  0  0  0  0  0  0
   24.5995   19.7008   52.9244 C   0  0  0  0  0  0  0  0  0  0  0  0
   23.9746   20.7486   52.7938 O   0  0  0  0  0  0  0  0  0  0  0  0
   25.3302   18.0953   51.7389 H   0  0  0  0  0  0  0  0  0  0  0  0
   25.0519   19.0482   54.1172 C   0  0  0  0  0  0  0  0  0  0  0  0
   26.5502   18.5896   53.7245 C   0  0  0  0  0  0  0  0  0  0  0  0
   25.2113   19.7050   55.3895 N   0  0  0  0  0  0  0  0  0  0  0  0
   26.5384   19.4637   55.9356 C   0  0  0  0  0  0  0  0  0  0  0  0
   27.2408   18.6932   55.1822 O   0  0  0  0  0  0  0  0  0  0  0  0
   24.5235   20.2385   55.8548 H   0  0  0  0  0  0  0  0  0  0  0  0
   27.1258   19.9752   57.1355 C   0  0  0  0  0  0  0  0  0  0  0  0
   27.8417   18.9406   57.8445 N   0  0  0  0  0  0  0  0  0  0  0  0
   27.6588   18.5853   59.1572 C   0  0  0  0  0  0  0  0  0  0  0  0
   26.8715   19.0150   59.9608 O   0  0  0  0  0  0  0  0  0  0  0  0
   28.5984   18.3969   57.2701 H   0  0  0  0  0  0  0  0  0  0  0  0
   28.6696   17.4778   59.7000 C   0  0  0  0  0  0  0  0  0  0  0  0
   29.2607   16.8143   58.5534 C   0  0  0  0  0  0  0  0  0  0  0  0
   29.3108   18.0899   60.7060 N   0  0  0  0  0  0  0  0  0  0  0  0
   29.9889   18.7506   61.7718 C   0  0  0  0  0  0  0  0  0  0  0  0
   29.9956   19.9762   61.9468 O   0  0  0  0  0  0  0  0  0  0  0  0
   28.8131   19.3192   60.3590 H   0  0  0  0  0  0  0  0  0  0  0  0
   30.6957   17.8604   62.6968 C   0  0  0  0  0  0  0  0  0  0  0  0
   30.4865   18.3612   64.1531 C   0  0  0  0  0  0  0  0  0  0  0  0
   32.0121   17.4224   62.7004 N   0  0  0  0  0  0  0  0  0  0  0  0
   32.9214   18.1030   63.5991 C   0  0  0  0  0  0  0  0  0  0  0  0
   32.4808   18.8636   64.4500 O   0  0  0  0  0  0  0  0  0  0  0  0
   32.3501   16.6504   62.1203 H   0  0  0  0  0  0  0  0  0  0  0  0
   34.4210   17.8907   63.4408 C   0  0  0  0  0  0  0  0  0  0  0  0
   35.2342   17.6867   64.6047 C   0  0  0  0  0  0  0  0  0  0  0  0
   34.6637   19.3119   62.8463 N   0  0  0  0  0  0  0  0  0  0  0  0
   34.6244   19.2606   61.3866 C   0  0  0  0  0  0  0  0  0  0  0  0
   34.6822   20.5362   60.6449 C   0  0  0  0  0  0  0  0  0  0  0  0
   34.5337   18.1843   60.8288 O   0  0  0  0  0  0  0  0  0  0  0  0
   34.8131   20.1062   63.3555 H   0  0  0  0  0  0  0  0  0  0  0  0
   27.8853   21.2915   56.9974 C   0  0  0  0  0  0  0  0  0  0  0  0
   29.0953   21.4220   57.7917 C   0  0  0  0  0  0  0  0  0  0  0  0
   30.2026   20.6521   57.6164 C   0  0  0  0  0  0  0  0  0  0  0  0
   31.3158   20.7652   58.4539 C   0  0  0  0  0  0  0  0  0  0  0  0
   31.2453   21.6850   59.4559 C   0  0  0  0  0  0  0  0  0  0  0  0
   30.1484   22.4807   59.6688 C   0  0  0  0  0  0  0  0  0  0  0  0
   29.0686   22.3441   58.8173 C   0  0  0  0  0  0  0  0  0  0  0  0
   23.3816   18.4544   48.7295 N   0  0  0  0  0  0  0  0  0  0  0  0
   23.2988   19.3602   49.7957 C   0  0  0  0  0  0  0  0  0  0  0  0
   22.2473   19.8819   50.1673 O   0  0  0  0  0  0  0  0  0  0  0  0
   24.3680   18.1400   48.4031 H   0  0  0  0  0  0  0  0  0  0  0  0
   22.3206   17.8599   47.9964 C   0  0  0  0  0  0  0  0  0  0  0  0
   21.0705   18.7127   45.8629 N   0  0  0  0  0  0  0  0  0  0  0  0
   21.9986   18.7205   46.8519 C   0  0  0  0  0  0  0  0  0  0  0  0
   22.8651   19.7671   46.7628 O   0  0  0  0  0  0  0  0  0  0  0  0
   20.2271   18.1234   45.7451 H   0  0  0  0  0  0  0  0  0  0  0  0
   21.1688   19.7357   44.7361 C   0  0  0  0  0  0  0  0  0  0  0  0
   17.8693   18.9322   44.0947 C   0  0  0  0  0  0  0  0  0  0  0  0
   16.5673   19.2038   44.8498 C   0  0  0  0  0  0  0  0  0  0  0  0
   16.7955   20.5870   45.4541 C   0  0  0  0  0  0  0  0  0  0  0  0
   17.5561   21.1886   44.2785 C   0  0  0  0  0  0  0  0  0  0  0  0
   18.6515   20.1159   44.2506 N   0  0  0  0  0  0  0  0  0  0  0  0
   19.9678   20.4398   44.4800 C   0  0  0  0  0  0  0  0  0  0  0  0
   20.1913   21.7859   44.4708 O   0  0  0  0  0  0  0  0  0  0  0  0
   18.5298   18.2602   41.7599 N   0  0  0  0  0  0  0  0  0  0  0  0
   17.5399   18.4634   42.7546 C   0  0  0  0  0  0  0  0  0  0  0  0
   16.3097   18.2191   42.4792 O   0  0  0  0  0  0  0  0  0  0  0  0
   19.5306   18.4741   42.0886 H   0  0  0  0  0  0  0  0  0  0  0  0
   17.8437   18.7930   39.4363 C   0  0  0  0  0  0  0  0  0  0  0  0
   18.4045   17.8259   40.4025 C   0  0  0  0  0  0  0  0  0  0  0  0
   19.4888   16.9880   39.8379 C   0  0  0  0  0  0  0  0  0  0  0  0
   19.7398   15.7615   40.7903 C   0  0  0  0  0  0  0  0  0  0  0  0
   20.1520   16.9951   38.9140 O   0  0  0  0  0  0  0  0  0  0  0  0
   21.7056   18.8732   43.5883 C   0  0  0  0  0  0  0  0  0  0  0  0
   22.1673   19.5559   42.3762 C   0  0  0  0  0  0  0  0  0  0  0  0
   23.2930   20.3720   42.5144 C   0  0  0  0  0  0  0  0  0  0  0  0
   23.8566   21.0570   41.5015 C   0  0  0  0  0  0  0  0  0  0  0  0
   23.3126   20.9757   40.2700 C   0  0  0  0  0  0  0  0  0  0  0  0
   22.2007   20.1972   40.0740 C   0  0  0  0  0  0  0  0  0  0  0  0
   21.6297   19.4823   41.1493 C   0  0  0  0  0  0  0  0  0  0  0  0
   21.2183   17.2094   48.7493 C   0  0  0  0  0  0  0  0  0  0  0  0
   21.7936   16.5842   50.0274 C   0  0  0  0  0  0  0  0  0  0  0  0
   20.8619   15.9248   50.8549 O   0  0  0  0  0  0  0  0  0  0  0  0
   22.9617   16.6443   50.3107 O   0  0  0  0  0  0  0  0  0  0  0  0
   20.0592   15.5210   50.3781 H   0  0  0  0  0  0  0  0  0  0  0  0
   25.6959   19.1565   49.3582 C   0  0  0  0  0  0  0  0  0  0  0  0
   26.2605   20.3019   48.6559 C   0  0  0  0  0  0  0  0  0  0  0  0
   26.8768   21.3144   49.3453 C   0  0  0  0  0  0  0  0  0  0  0  0
   27.4968   22.4306   48.7697 C   0  0  0  0  0  0  0  0  0  0  0  0
   27.4614   22.4906   47.3700 C   0  0  0  0  0  0  0  0  0  0  0  0
   26.8553   21.5096   46.6447 C   0  0  0  0  0  0  0  0  0  0  0  0
   26.2585   20.4239   47.2715 C   0  0  0  0  0  0  0  0  0  0  0  0
 64 65  1  0  0  0
 65 60  1  0  0  0
 60 61  1  0  0  0
 61 62  2  0  0  0
 61 53  1  0  0  0
 53 54  1  0  0  0
 54 55  1  0  0  0
 55 56  1  0  0  0
 56 57  1  0  0  0
 57 58  1  0  0  0
 58 59  2  0  0  0
 58 52  1  0  0  0
 52 69  1  0  0  0
 69 70  1  0  0  0
 70 71  2  0  0  0
 71 72  1  0  0  0
 72 73  2  0  0  0
 73 74  1  0  0  0
 74 75  2  0  0  0
 52 48  1  0  0  0
 48 49  1  0  0  0
 49 50  2  0  0  0
 49 47  1  0  0  0
 47 76  1  0  0  0
 76 77  1  0  0  0
 77 78  1  0  0  0
 77 79  2  0  0  0
 47 43  1  0  0  0
 43 44  1  0  0  0
 44 45  2  0  0  0
 44  1  1  0  0  0
  1 81  1  0  0  0
 81 82  1  0  0  0
 82 83  2  0  0  0
 83 84  1  0  0  0
 84 85  2  0  0  0
 85 86  1  0  0  0
 86 87  2  0  0  0
  1  2  1  0  0  0
  2  3  1  0  0  0
  3  4  2  0  0  0
  3  6  1  0  0  0
  6  7  1  0  0  0
  6  8  1  0  0  0
  8  9  1  0  0  0
  9 10  2  0  0  0
  9 12  1  0  0  0
 12 36  1  0  0  0
 36 37  1  0  0  0
 37 38  2  0  0  0
 38 39  1  0  0  0
 39 40  2  0  0  0
 40 41  1  0  0  0
 41 42  2  0  0  0
 12 13  1  0  0  0
 13 14  1  0  0  0
 14 15  2  0  0  0
 14 17  1  0  0  0
 17 18  1  0  0  0
 17 19  1  0  0  0
 19 20  1  0  0  0
 20 21  2  0  0  0
 20 23  1  0  0  0
 23 24  1  0  0  0
 23 25  1  0  0  0
 25 26  1  0  0  0
 26 27  2  0  0  0
 26 29  1  0  0  0
 29 30  1  0  0  0
 29 31  1  0  0  0
 31 32  1  0  0  0
 32 33  1  0  0  0
 32 34  2  0  0  0
 65 66  1  0  0  0
 66 67  1  0  0  0
 66 68  2  0  0  0
 57 53  1  0  0  0
 75 70  1  0  0  0
 87 82  1  0  0  0
 42 37  1  0  0  0
 60 63  1  0  0  0
 48 51  1  0  0  0
 78 80  1  0  0  0
 43 46  1  0  0  0
  2  5  1  0  0  0
  8 11  1  0  0  0
 13 16  1  0  0  0
 19 22  1  0  0  0
 25 28  1  0  0  0
 31 35  1  0  0  0
M  END
> <minimizedAffinity>
-2.85027

> <CNNscore>
0.4489804506

> <CNNaffinity>
6.8298711777

> <CNN_VS>
3.0664787292

> <CNNaffinity_variance>
0.0693300068

$$$$
[H]OC(=O)C([H])([H])[C@@]([H])(C(=O)N([H])[C@]([H])(C(=O)N1C([H])([H])C([H])([H])C([H])([H])[C@@]1([H])C(=O)N([H])[C@]([H])(C(=O)C([H])([H])[H])C([H])([H])[H])C([H])([H])c1c([H])c([H])c([H])c([H])c1[H])N([H])C(=O)[C@@]([H])(N([H])C(=O)[C@]([H])(N([H])C(=O)[C@@]([H])(N([H])C(=O)[C@]([H])(N([H])C(=O)[C@@]([H])(N([H])C(=O)[C@@]([H])(N([H])C(=O)C([H])([H])[H])C([H])([H])[H])C([H])([H])[H])C([H])([H])[H])C([H])([H])c1c([H])c([H])c([H])c([H])c1[H])C([H])([H])[H])C([H])([H])c1c([H])c([H])c([H])c([H])c1[H]


 87 90  0  0  0  0  0  0  0  0999 V2000
   24.6925   19.5144   50.3577 C   0  0  0  0  0  0  0  0  0  0  0  0
   24.8903   18.9160   51.5981 N   0  0  0  0  0  0  0  0  0  0  0  0
   24.9105   19.6562   52.8535 C   0  0  0  0  0  0  0  0  0  0  0  0
   24.6069   20.8403   52.7470 O   0  0  0  0  0  0  0  0  0  0  0  0
   25.0204   17.9013   51.6598 H   0  0  0  0  0  0  0  0  0  0  0  0
   25.2716   18.9060   54.0197 C   0  0  0  0  0  0  0  0  0  0  0  0
   26.7186   18.3076   53.6229 C   0  0  0  0  0  0  0  0  0  0  0  0
   25.4796   19.4841   55.3229 N   0  0  0  0  0  0  0  0  0  0  0  0
   26.7798   19.1069   55.8566 C   0  0  0  0  0  0  0  0  0  0  0  0
   27.4191   18.3186   55.0662 O   0  0  0  0  0  0  0  0  0  0  0  0
   24.8365   20.0494   55.8138 H   0  0  0  0  0  0  0  0  0  0  0  0
   27.4026   19.5084   57.0802 C   0  0  0  0  0  0  0  0  0  0  0  0
   28.4380   18.5779   57.4649 N   0  0  0  0  0  0  0  0  0  0  0  0
   28.7053   18.1481   58.7403 C   0  0  0  0  0  0  0  0  0  0  0  0
   28.1378   18.4132   59.7688 O   0  0  0  0  0  0  0  0  0  0  0  0
   29.0609   18.1869   56.6542 H   0  0  0  0  0  0  0  0  0  0  0  0
   29.9804   17.2002   58.8758 C   0  0  0  0  0  0  0  0  0  0  0  0
   31.1628   18.0404   58.8666 C   0  0  0  0  0  0  0  0  0  0  0  0
   29.6230   16.3083   59.8109 N   0  0  0  0  0  0  0  0  0  0  0  0
   29.2328   15.3650   60.8061 C   0  0  0  0  0  0  0  0  0  0  0  0
   28.1312   15.3555   61.3710 O   0  0  0  0  0  0  0  0  0  0  0  0
   28.3445   16.7983   59.8797 H   0  0  0  0  0  0  0  0  0  0  0  0
   30.2452   14.3551   61.1270 C   0  0  0  0  0  0  0  0  0  0  0  0
   31.6606   14.9759   60.9631 C   0  0  0  0  0  0  0  0  0  0  0  0
   30.4120   13.0615   60.6544 N   0  0  0  0  0  0  0  0  0  0  0  0
   30.2861   11.9934   61.6245 C   0  0  0  0  0  0  0  0  0  0  0  0
   29.8412   12.2324   62.7388 O   0  0  0  0  0  0  0  0  0  0  0  0
   30.6003   12.8405   59.6733 H   0  0  0  0  0  0  0  0  0  0  0  0
   30.7514   10.5921   61.2522 C   0  0  0  0  0  0  0  0  0  0  0  0
   29.7849    9.5445   61.0904 C   0  0  0  0  0  0  0  0  0  0  0  0
   31.5545   10.3958   62.5744 N   0  0  0  0  0  0  0  0  0  0  0  0
   32.9784   10.2479   62.2816 C   0  0  0  0  0  0  0  0  0  0  0  0
   33.9203   10.2038   63.4180 C   0  0  0  0  0  0  0  0  0  0  0  0
   33.3464   10.1783   61.1252 O   0  0  0  0  0  0  0  0  0  0  0  0
   31.1784   10.3778   63.4524 H   0  0  0  0  0  0  0  0  0  0  0  0
   27.8037   20.9777   57.1734 C   0  0  0  0  0  0  0  0  0  0  0  0
   29.0229   21.2659   57.9100 C   0  0  0  0  0  0  0  0  0  0  0  0
   30.2592   20.8578   57.5170 C   0  0  0  0  0  0  0  0  0  0  0  0
   31.3939   21.0962   58.2975 C   0  0  0  0  0  0  0  0  0  0  0  0
   31.2083   21.7598   59.4724 C   0  0  0  0  0  0  0  0  0  0  0  0
   29.9797   22.1879   59.9069 C   0  0  0  0  0  0  0  0  0  0  0  0
   28.8815   21.9386   59.1061 C   0  0  0  0  0  0  0  0  0  0  0  0
   23.4103   18.2734   48.7412 N   0  0  0  0  0  0  0  0  0  0  0  0
   23.3441   19.3135   49.6782 C   0  0  0  0  0  0  0  0  0  0  0  0
   22.3210   19.9575   49.9111 O   0  0  0  0  0  0  0  0  0  0  0  0
   24.3835   17.8451   48.5229 H   0  0  0  0  0  0  0  0  0  0  0  0
   22.3459   17.6714   48.0190 C   0  0  0  0  0  0  0  0  0  0  0  0
   21.0003   18.5877   45.9717 N   0  0  0  0  0  0  0  0  0  0  0  0
   22.0119   18.5255   46.8731 C   0  0  0  0  0  0  0  0  0  0  0  0
   22.9721   19.4680   46.6641 O   0  0  0  0  0  0  0  0  0  0  0  0
   20.0921   18.0904   45.9538 H   0  0  0  0  0  0  0  0  0  0  0  0
   21.1011   19.5578   44.7993 C   0  0  0  0  0  0  0  0  0  0  0  0
   17.8206   18.9601   43.8915 C   0  0  0  0  0  0  0  0  0  0  0  0
   16.4874   19.1753   44.6094 C   0  0  0  0  0  0  0  0  0  0  0  0
   16.7205   20.4585   45.4026 C   0  0  0  0  0  0  0  0  0  0  0  0
   17.5604   21.1824   44.3571 C   0  0  0  0  0  0  0  0  0  0  0  0
   18.6255   20.0853   44.2423 N   0  0  0  0  0  0  0  0  0  0  0  0
   19.9358   20.3305   44.5787 C   0  0  0  0  0  0  0  0  0  0  0  0
   20.1967   21.6577   44.7596 O   0  0  0  0  0  0  0  0  0  0  0  0
   17.9733   17.4832   41.8581 N   0  0  0  0  0  0  0  0  0  0  0  0
   17.5519   18.6826   42.4861 C   0  0  0  0  0  0  0  0  0  0  0  0
   16.9017   19.5561   41.8055 O   0  0  0  0  0  0  0  0  0  0  0  0
   18.4939   16.8068   42.5114 H   0  0  0  0  0  0  0  0  0  0  0  0
   17.7121   18.0858   39.4658 C   0  0  0  0  0  0  0  0  0  0  0  0
   17.8203   17.0417   40.5058 C   0  0  0  0  0  0  0  0  0  0  0  0
   18.5914   15.8528   40.0714 C   0  0  0  0  0  0  0  0  0  0  0  0
   19.7076   15.5465   41.1366 C   0  0  0  0  0  0  0  0  0  0  0  0
   18.5721   15.1192   39.2026 O   0  0  0  0  0  0  0  0  0  0  0  0
   21.5153   18.6178   43.6616 C   0  0  0  0  0  0  0  0  0  0  0  0
   21.8703   19.2176   42.3722 C   0  0  0  0  0  0  0  0  0  0  0  0
   21.1425   18.7796   41.2628 C   0  0  0  0  0  0  0  0  0  0  0  0
   21.3285   19.2375   40.0103 C   0  0  0  0  0  0  0  0  0  0  0  0
   22.2780   20.1684   39.7850 C   0  0  0  0  0  0  0  0  0  0  0  0
   23.0315   20.6307   40.8335 C   0  0  0  0  0  0  0  0  0  0  0  0
   22.8152   20.1412   42.1400 C   0  0  0  0  0  0  0  0  0  0  0  0
   21.2520   17.0203   48.7834 C   0  0  0  0  0  0  0  0  0  0  0  0
   21.8146   16.5136   50.1184 C   0  0  0  0  0  0  0  0  0  0  0  0
   20.8579   16.0581   51.0483 O   0  0  0  0  0  0  0  0  0  0  0  0
   22.9930   16.4986   50.3625 O   0  0  0  0  0  0  0  0  0  0  0  0
   20.0048   15.6743   50.6490 H   0  0  0  0  0  0  0  0  0  0  0  0
   25.7549   19.1132   49.3220 C   0  0  0  0  0  0  0  0  0  0  0  0
   26.3478   20.2780   48.6774 C   0  0  0  0  0  0  0  0  0  0  0  0
   26.9689   21.2505   49.4181 C   0  0  0  0  0  0  0  0  0  0  0  0
   27.6148   22.3799   48.8996 C   0  0  0  0  0  0  0  0  0  0  0  0
   27.6019   22.4995   47.5033 C   0  0  0  0  0  0  0  0  0  0  0  0
   26.9921   21.5598   46.7281 C   0  0  0  0  0  0  0  0  0  0  0  0
   26.3691   20.4584   47.2995 C   0  0  0  0  0  0  0  0  0  0  0  0
 64 65  1  0  0  0
 65 60  1  0  0  0
 60 61  1  0  0  0
 61 62  2  0  0  0
 61 53  1  0  0  0
 53 54  1  0  0  0
 54 55  1  0  0  0
 55 56  1  0  0  0
 56 57  1  0  0  0
 57 58  1  0  0  0
 58 59  2  0  0  0
 58 52  1  0  0  0
 52 69  1  0  0  0
 69 70  1  0  0  0
 70 71  2  0  0  0
 71 72  1  0  0  0
 72 73  2  0  0  0
 73 74  1  0  0  0
 74 75  2  0  0  0
 52 48  1  0  0  0
 48 49  1  0  0  0
 49 50  2  0  0  0
 49 47  1  0  0  0
 47 76  1  0  0  0
 76 77  1  0  0  0
 77 78  1  0  0  0
 77 79  2  0  0  0
 47 43  1  0  0  0
 43 44  1  0  0  0
 44 45  2  0  0  0
 44  1  1  0  0  0
  1 81  1  0  0  0
 81 82  1  0  0  0
 82 83  2  0  0  0
 83 84  1  0  0  0
 84 85  2  0  0  0
 85 86  1  0  0  0
 86 87  2  0  0  0
  1  2  1  0  0  0
  2  3  1  0  0  0
  3  4  2  0  0  0
  3  6  1  0  0  0
  6  7  1  0  0  0
  6  8  1  0  0  0
  8  9  1  0  0  0
  9 10  2  0  0  0
  9 12  1  0  0  0
 12 36  1  0  0  0
 36 37  1  0  0  0
 37 38  2  0  0  0
 38 39  1  0  0  0
 39 40  2  0  0  0
 40 41  1  0  0  0
 41 42  2  0  0  0
 12 13  1  0  0  0
 13 14  1  0  0  0
 14 15  2  0  0  0
 14 17  1  0  0  0
 17 18  1  0  0  0
 17 19  1  0  0  0
 19 20  1  0  0  0
 20 21  2  0  0  0
 20 23  1  0  0  0
 23 24  1  0  0  0
 23 25  1  0  0  0
 25 26  1  0  0  0
 26 27  2  0  0  0
 26 29  1  0  0  0
 29 30  1  0  0  0
 29 31  1  0  0  0
 31 32  1  0  0  0
 32 33  1  0  0  0
 32 34  2  0  0  0
 65 66  1  0  0  0
 66 67  1  0  0  0
 66 68  2  0  0  0
 57 53  1  0  0  0
 75 70  1  0  0  0
 87 82  1  0  0  0
 42 37  1  0  0  0
 60 63  1  0  0  0
 48 51  1  0  0  0
 78 80  1  0  0  0
 43 46  1  0  0  0
  2  5  1  0  0  0
  8 11  1  0  0  0
 13 16  1  0  0  0
 19 22  1  0  0  0
 25 28  1  0  0  0
 31 35  1  0  0  0
M  END
> <minimizedAffinity>
-5.33345

> <CNNscore>
0.4460684955

> <CNNaffinity>
7.1461820602

> <CNN_VS>
3.1876866817

> <CNNaffinity_variance>
0.0649844483

$$$$
[H]OC(=O)C([H])([H])[C@@]([H])(C(=O)N([H])[C@]([H])(C(=O)N1C([H])([H])C([H])([H])C([H])([H])[C@@]1([H])C(=O)N([H])[C@]([H])(C(=O)C([H])([H])[H])C([H])([H])[H])C([H])([H])c1c([H])c([H])c([H])c([H])c1[H])N([H])C(=O)[C@@]([H])(N([H])C(=O)[C@]([H])(N([H])C(=O)[C@@]([H])(N([H])C(=O)[C@]([H])(N([H])C(=O)[C@@]([H])(N([H])C(=O)[C@@]([H])(N([H])C(=O)C([H])([H])[H])C([H])([H])[H])C([H])([H])[H])C([H])([H])[H])C([H])([H])c1c([H])c([H])c([H])c([H])c1[H])C([H])([H])[H])C([H])([H])c1c([H])c([H])c([H])c([H])c1[H]


 87 90  0  0  0  0  0  0  0  0999 V2000
   24.0508   18.9346   49.7907 C   0  0  0  0  0  0  0  0  0  0  0  0
   24.5742   18.3868   50.9576 N   0  0  0  0  0  0  0  0  0  0  0  0
   24.6095   19.0935   52.2318 C   0  0  0  0  0  0  0  0  0  0  0  0
   24.0190   20.1690   52.2298 O   0  0  0  0  0  0  0  0  0  0  0  0
   24.9510   17.4337   50.9492 H   0  0  0  0  0  0  0  0  0  0  0  0
   25.3144   18.4392   53.2941 C   0  0  0  0  0  0  0  0  0  0  0  0
   26.5346   17.7180   52.5191 C   0  0  0  0  0  0  0  0  0  0  0  0
   25.9542   19.1271   54.3864 N   0  0  0  0  0  0  0  0  0  0  0  0
   27.2145   18.4886   54.7351 C   0  0  0  0  0  0  0  0  0  0  0  0
   27.4432   17.4434   54.0210 O   0  0  0  0  0  0  0  0  0  0  0  0
   25.5983   19.9165   54.8601 H   0  0  0  0  0  0  0  0  0  0  0  0
   28.1843   18.8816   55.7104 C   0  0  0  0  0  0  0  0  0  0  0  0
   27.5647   19.1112   56.9947 N   0  0  0  0  0  0  0  0  0  0  0  0
   27.4112   20.3269   57.6123 C   0  0  0  0  0  0  0  0  0  0  0  0
   27.7140   21.4246   57.2207 O   0  0  0  0  0  0  0  0  0  0  0  0
   27.1870   18.2246   57.5136 H   0  0  0  0  0  0  0  0  0  0  0  0
   26.7847   20.2611   59.0772 C   0  0  0  0  0  0  0  0  0  0  0  0
   25.4332   19.7473   58.9608 C   0  0  0  0  0  0  0  0  0  0  0  0
   27.7788   19.7729   59.8329 N   0  0  0  0  0  0  0  0  0  0  0  0
   28.8401   19.2641   60.6373 C   0  0  0  0  0  0  0  0  0  0  0  0
   29.7549   19.9518   61.1096 O   0  0  0  0  0  0  0  0  0  0  0  0
   28.2948   21.0203   60.0716 H   0  0  0  0  0  0  0  0  0  0  0  0
   28.7782   17.8233   60.8979 C   0  0  0  0  0  0  0  0  0  0  0  0
   27.5878   17.5240   61.8512 C   0  0  0  0  0  0  0  0  0  0  0  0
   29.7574   16.9407   61.3301 N   0  0  0  0  0  0  0  0  0  0  0  0
   29.8422   15.6724   60.6358 C   0  0  0  0  0  0  0  0  0  0  0  0
   29.2230   15.5063   59.5938 O   0  0  0  0  0  0  0  0  0  0  0  0
   30.4112   17.1524   62.0881 H   0  0  0  0  0  0  0  0  0  0  0  0
   30.6718   14.5477   61.2404 C   0  0  0  0  0  0  0  0  0  0  0  0
   32.0120   14.3288   60.7782 C   0  0  0  0  0  0  0  0  0  0  0  0
   29.7226   13.4268   60.7164 N   0  0  0  0  0  0  0  0  0  0  0  0
   29.4525   12.4588   61.7771 C   0  0  0  0  0  0  0  0  0  0  0  0
   28.4515   11.4048   61.5173 C   0  0  0  0  0  0  0  0  0  0  0  0
   30.0423   12.5528   62.8359 O   0  0  0  0  0  0  0  0  0  0  0  0
   29.3624   13.3754   59.8330 H   0  0  0  0  0  0  0  0  0  0  0  0
   29.4570   18.0414   55.7614 C   0  0  0  0  0  0  0  0  0  0  0  0
   30.4294   18.4083   56.7773 C   0  0  0  0  0  0  0  0  0  0  0  0
   30.9422   17.5349   57.6848 C   0  0  0  0  0  0  0  0  0  0  0  0
   31.8197   17.9510   58.6900 C   0  0  0  0  0  0  0  0  0  0  0  0
   32.1428   19.2738   58.7205 C   0  0  0  0  0  0  0  0  0  0  0  0
   31.6480   20.1884   57.8259 C   0  0  0  0  0  0  0  0  0  0  0  0
   30.7870   19.7390   56.8428 C   0  0  0  0  0  0  0  0  0  0  0  0
   22.1512   19.3269   48.3642 N   0  0  0  0  0  0  0  0  0  0  0  0
   22.6709   18.4697   49.3436 C   0  0  0  0  0  0  0  0  0  0  0  0
   22.0784   17.4756   49.7637 O   0  0  0  0  0  0  0  0  0  0  0  0
   22.6957   20.2400   48.1450 H   0  0  0  0  0  0  0  0  0  0  0  0
   20.9776   19.1596   47.5822 C   0  0  0  0  0  0  0  0  0  0  0  0
   20.7214   18.5981   45.0405 N   0  0  0  0  0  0  0  0  0  0  0  0
   21.3707   18.9019   46.1919 C   0  0  0  0  0  0  0  0  0  0  0  0
   22.7225   18.9671   46.0414 O   0  0  0  0  0  0  0  0  0  0  0  0
   19.7083   18.6010   44.8260 H   0  0  0  0  0  0  0  0  0  0  0  0
   21.5295   18.2427   43.7968 C   0  0  0  0  0  0  0  0  0  0  0  0
   19.6004   21.0277   43.1141 C   0  0  0  0  0  0  0  0  0  0  0  0
   19.9487   22.4897   42.8308 C   0  0  0  0  0  0  0  0  0  0  0  0
   21.2536   22.3923   42.0447 C   0  0  0  0  0  0  0  0  0  0  0  0
   20.9019   21.1472   41.2393 C   0  0  0  0  0  0  0  0  0  0  0  0
   20.6119   20.2635   42.4584 N   0  0  0  0  0  0  0  0  0  0  0  0
   21.3629   19.1409   42.7156 C   0  0  0  0  0  0  0  0  0  0  0  0
   22.1696   18.7927   41.6715 O   0  0  0  0  0  0  0  0  0  0  0  0
   17.5190   19.6111   43.1040 N   0  0  0  0  0  0  0  0  0  0  0  0
   18.2014   20.8082   42.7696 C   0  0  0  0  0  0  0  0  0  0  0  0
   17.5720   21.7413   42.1515 O   0  0  0  0  0  0  0  0  0  0  0  0
   18.1223   18.8973   43.6349 H   0  0  0  0  0  0  0  0  0  0  0  0
   15.2719   19.0740   44.0074 C   0  0  0  0  0  0  0  0  0  0  0  0
   16.1712   19.2084   42.8426 C   0  0  0  0  0  0  0  0  0  0  0  0
   15.5022   19.7585   41.6400 C   0  0  0  0  0  0  0  0  0  0  0  0
   15.9249   18.9116   40.3837 C   0  0  0  0  0  0  0  0  0  0  0  0
   14.7719   20.5977   41.4035 O   0  0  0  0  0  0  0  0  0  0  0  0
   21.0867   16.7962   43.5496 C   0  0  0  0  0  0  0  0  0  0  0  0
   20.3120   16.5145   42.3376 C   0  0  0  0  0  0  0  0  0  0  0  0
   20.8068   15.5075   41.5050 C   0  0  0  0  0  0  0  0  0  0  0  0
   20.2117   15.1124   40.3637 C   0  0  0  0  0  0  0  0  0  0  0  0
   19.0722   15.7188   39.9725 C   0  0  0  0  0  0  0  0  0  0  0  0
   18.5426   16.7213   40.7441 C   0  0  0  0  0  0  0  0  0  0  0  0
   19.1801   17.1154   41.9407 C   0  0  0  0  0  0  0  0  0  0  0  0
   19.8133   20.0394   47.8571 C   0  0  0  0  0  0  0  0  0  0  0  0
   19.4137   20.7518   46.5578 C   0  0  0  0  0  0  0  0  0  0  0  0
   18.2328   20.2844   45.9459 O   0  0  0  0  0  0  0  0  0  0  0  0
   20.0574   21.6533   46.0872 O   0  0  0  0  0  0  0  0  0  0  0  0
   17.5363   19.8937   46.5759 H   0  0  0  0  0  0  0  0  0  0  0  0
   24.9750   18.7536   48.5760 C   0  0  0  0  0  0  0  0  0  0  0  0
   25.8899   19.8774   48.4212 C   0  0  0  0  0  0  0  0  0  0  0  0
   26.0878   20.4582   47.1950 C   0  0  0  0  0  0  0  0  0  0  0  0
   26.9002   21.5709   46.9435 C   0  0  0  0  0  0  0  0  0  0  0  0
   27.5566   22.1083   48.0590 C   0  0  0  0  0  0  0  0  0  0  0  0
   27.3934   21.5604   49.2956 C   0  0  0  0  0  0  0  0  0  0  0  0
   26.5718   20.4572   49.4844 C   0  0  0  0  0  0  0  0  0  0  0  0
 64 65  1  0  0  0
 65 60  1  0  0  0
 60 61  1  0  0  0
 61 62  2  0  0  0
 61 53  1  0  0  0
 53 54  1  0  0  0
 54 55  1  0  0  0
 55 56  1  0  0  0
 56 57  1  0  0  0
 57 58  1  0  0  0
 58 59  2  0  0  0
 58 52  1  0  0  0
 52 69  1  0  0  0
 69 70  1  0  0  0
 70 71  2  0  0  0
 71 72  1  0  0  0
 72 73  2  0  0  0
 73 74  1  0  0  0
 74 75  2  0  0  0
 52 48  1  0  0  0
 48 49  1  0  0  0
 49 50  2  0  0  0
 49 47  1  0  0  0
 47 76  1  0  0  0
 76 77  1  0  0  0
 77 78  1  0  0  0
 77 79  2  0  0  0
 47 43  1  0  0  0
 43 44  1  0  0  0
 44 45  2  0  0  0
 44  1  1  0  0  0
  1 81  1  0  0  0
 81 82  1  0  0  0
 82 83  2  0  0  0
 83 84  1  0  0  0
 84 85  2  0  0  0
 85 86  1  0  0  0
 86 87  2  0  0  0
  1  2  1  0  0  0
  2  3  1  0  0  0
  3  4  2  0  0  0
  3  6  1  0  0  0
  6  7  1  0  0  0
  6  8  1  0  0  0
  8  9  1  0  0  0
  9 10  2  0  0  0
  9 12  1  0  0  0
 12 36  1  0  0  0
 36 37  1  0  0  0
 37 38  2  0  0  0
 38 39  1  0  0  0
 39 40  2  0  0  0
 40 41  1  0  0  0
 41 42  2  0  0  0
 12 13  1  0  0  0
 13 14  1  0  0  0
 14 15  2  0  0  0
 14 17  1  0  0  0
 17 18  1  0  0  0
 17 19  1  0  0  0
 19 20  1  0  0  0
 20 21  2  0  0  0
 20 23  1  0  0  0
 23 24  1  0  0  0
 23 25  1  0  0  0
 25 26  1  0  0  0
 26 27  2  0  0  0
 26 29  1  0  0  0
 29 30  1  0  0  0
 29 31  1  0  0  0
 31 32  1  0  0  0
 32 33  1  0  0  0
 32 34  2  0  0  0
 65 66  1  0  0  0
 66 67  1  0  0  0
 66 68  2  0  0  0
 57 53  1  0  0  0
 75 70  1  0  0  0
 87 82  1  0  0  0
 42 37  1  0  0  0
 60 63  1  0  0  0
 48 51  1  0  0  0
 78 80  1  0  0  0
 43 46  1  0  0  0
  2  5  1  0  0  0
  8 11  1  0  0  0
 13 16  1  0  0  0
 19 22  1  0  0  0
 25 28  1  0  0  0
 31 35  1  0  0  0
M  END
> <minimizedAffinity>
-1.10169

> <CNNscore>
0.4261195362

> <CNNaffinity>
6.7705435753

> <CNN_VS>
2.8850607872

> <CNNaffinity_variance>
0.0467636660

$$$$
[H]OC(=O)C([H])([H])[C@@]([H])(C(=O)N([H])[C@]([H])(C(=O)N1C([H])([H])C([H])([H])C([H])([H])[C@@]1([H])C(=O)N([H])[C@]([H])(C(=O)C([H])([H])[H])C([H])([H])[H])C([H])([H])c1c([H])c([H])c([H])c([H])c1[H])N([H])C(=O)[C@@]([H])(N([H])C(=O)[C@]([H])(N([H])C(=O)[C@@]([H])(N([H])C(=O)[C@]([H])(N([H])C(=O)[C@@]([H])(N([H])C(=O)[C@@]([H])(N([H])C(=O)C([H])([H])[H])C([H])([H])[H])C([H])([H])[H])C([H])([H])[H])C([H])([H])c1c([H])c([H])c([H])c([H])c1[H])C([H])([H])[H])C([H])([H])c1c([H])c([H])c([H])c([H])c1[H]


 87 90  0  0  0  0  0  0  0  0999 V2000
   29.1741    8.4600   61.5280 C   0  0  0  0  0  0  0  0  0  0  0  0
   29.4954    9.7934   61.7616 N   0  0  0  0  0  0  0  0  0  0  0  0
   30.8500   10.3226   61.6645 C   0  0  0  0  0  0  0  0  0  0  0  0
   31.6744    9.5247   61.2297 O   0  0  0  0  0  0  0  0  0  0  0  0
   28.7568   10.4607   62.0057 H   0  0  0  0  0  0  0  0  0  0  0  0
   31.0245   11.6830   62.0796 C   0  0  0  0  0  0  0  0  0  0  0  0
   32.0144   11.5428   63.3485 C   0  0  0  0  0  0  0  0  0  0  0  0
   31.6387   12.7047   61.2705 N   0  0  0  0  0  0  0  0  0  0  0  0
   30.8153   13.9041   61.2358 C   0  0  0  0  0  0  0  0  0  0  0  0
   29.7205   13.7609   61.8958 O   0  0  0  0  0  0  0  0  0  0  0  0
   32.4931   12.6206   60.7837 H   0  0  0  0  0  0  0  0  0  0  0  0
   31.0802   15.1610   60.6061 C   0  0  0  0  0  0  0  0  0  0  0  0
   29.9873   16.0832   60.8089 N   0  0  0  0  0  0  0  0  0  0  0  0
   29.4731   16.9453   59.8734 C   0  0  0  0  0  0  0  0  0  0  0  0
   29.7828   17.0907   58.7188 O   0  0  0  0  0  0  0  0  0  0  0  0
   29.5363   16.0851   61.8063 H   0  0  0  0  0  0  0  0  0  0  0  0
   28.3356   17.9228   60.4151 C   0  0  0  0  0  0  0  0  0  0  0  0
   28.2234   17.7248   61.8477 C   0  0  0  0  0  0  0  0  0  0  0  0
   28.5637   19.0749   59.7682 N   0  0  0  0  0  0  0  0  0  0  0  0
   28.7951   20.3020   59.0803 C   0  0  0  0  0  0  0  0  0  0  0  0
   27.9070   21.0955   58.7420 O   0  0  0  0  0  0  0  0  0  0  0  0
   27.2458   19.4464   59.8348 H   0  0  0  0  0  0  0  0  0  0  0  0
   30.2033   20.5920   58.7965 C   0  0  0  0  0  0  0  0  0  0  0  0
   30.5623   20.0610   57.3806 C   0  0  0  0  0  0  0  0  0  0  0  0
   31.3473   20.3223   59.5335 N   0  0  0  0  0  0  0  0  0  0  0  0
   31.9213   21.4285   60.2715 C   0  0  0  0  0  0  0  0  0  0  0  0
   31.2908   22.4694   60.3963 O   0  0  0  0  0  0  0  0  0  0  0  0
   31.7784   19.3958   59.5849 H   0  0  0  0  0  0  0  0  0  0  0  0
   33.3246   21.2903   60.8465 C   0  0  0  0  0  0  0  0  0  0  0  0
   33.7745   22.2151   61.8464 C   0  0  0  0  0  0  0  0  0  0  0  0
   34.0233   21.5772   59.4821 N   0  0  0  0  0  0  0  0  0  0  0  0
   34.5503   20.3377   58.9156 C   0  0  0  0  0  0  0  0  0  0  0  0
   35.1143   20.3820   57.5517 C   0  0  0  0  0  0  0  0  0  0  0  0
   34.4998   19.3136   59.5686 O   0  0  0  0  0  0  0  0  0  0  0  0
   34.0970   22.4350   59.0681 H   0  0  0  0  0  0  0  0  0  0  0  0
   32.4643   15.7530   60.8554 C   0  0  0  0  0  0  0  0  0  0  0  0
   32.5693   16.7041   61.9493 C   0  0  0  0  0  0  0  0  0  0  0  0
   33.3899   16.5378   63.0210 C   0  0  0  0  0  0  0  0  0  0  0  0
   33.4018   17.4444   64.0846 C   0  0  0  0  0  0  0  0  0  0  0  0
   32.5547   18.5077   64.0007 C   0  0  0  0  0  0  0  0  0  0  0  0
   31.7103   18.7130   62.9393 C   0  0  0  0  0  0  0  0  0  0  0  0
   31.7301   17.7981   61.9038 C   0  0  0  0  0  0  0  0  0  0  0  0
   28.8690    6.7647   63.2103 N   0  0  0  0  0  0  0  0  0  0  0  0
   29.8267    7.4058   62.4129 C   0  0  0  0  0  0  0  0  0  0  0  0
   31.0266    7.1310   62.4344 O   0  0  0  0  0  0  0  0  0  0  0  0
   27.8568    7.1568   63.2057 H   0  0  0  0  0  0  0  0  0  0  0  0
   29.0379    5.6281   64.0448 C   0  0  0  0  0  0  0  0  0  0  0  0
   27.2423    3.7340   63.8726 N   0  0  0  0  0  0  0  0  0  0  0  0
   28.2824    4.5074   63.4728 C   0  0  0  0  0  0  0  0  0  0  0  0
   28.7699    4.1566   62.2508 O   0  0  0  0  0  0  0  0  0  0  0  0
   26.6050    3.8406   64.6818 H   0  0  0  0  0  0  0  0  0  0  0  0
   26.8363    2.5308   63.0279 C   0  0  0  0  0  0  0  0  0  0  0  0
   25.1651   -0.1658   64.3989 C   0  0  0  0  0  0  0  0  0  0  0  0
   24.1892   -0.2986   65.5689 C   0  0  0  0  0  0  0  0  0  0  0  0
   23.3897    1.0003   65.5067 C   0  0  0  0  0  0  0  0  0  0  0  0
   23.3118    1.1070   63.9885 C   0  0  0  0  0  0  0  0  0  0  0  0
   24.8280    1.0665   63.7626 N   0  0  0  0  0  0  0  0  0  0  0  0
   25.4891    2.1291   63.1932 C   0  0  0  0  0  0  0  0  0  0  0  0
   24.6418    3.0499   62.6489 O   0  0  0  0  0  0  0  0  0  0  0  0
   24.1646   -2.4103   63.8509 N   0  0  0  0  0  0  0  0  0  0  0  0
   25.1355   -1.4015   63.6267 C   0  0  0  0  0  0  0  0  0  0  0  0
   26.0167   -1.5675   62.7075 O   0  0  0  0  0  0  0  0  0  0  0  0
   23.4596   -2.1741   64.6273 H   0  0  0  0  0  0  0  0  0  0  0  0
   23.4728   -4.7838   64.0557 C   0  0  0  0  0  0  0  0  0  0  0  0
   23.9833   -3.6798   63.2166 C   0  0  0  0  0  0  0  0  0  0  0  0
   23.4532   -3.6959   61.8326 C   0  0  0  0  0  0  0  0  0  0  0  0
   24.4722   -4.4491   60.9004 C   0  0  0  0  0  0  0  0  0  0  0  0
   22.5211   -3.3304   61.2932 O   0  0  0  0  0  0  0  0  0  0  0  0
   27.9025    1.5048   63.4280 C   0  0  0  0  0  0  0  0  0  0  0  0
   28.7585    1.8183   64.5758 C   0  0  0  0  0  0  0  0  0  0  0  0
   28.1072    2.0572   65.7886 C   0  0  0  0  0  0  0  0  0  0  0  0
   28.7413    2.3424   66.9416 C   0  0  0  0  0  0  0  0  0  0  0  0
   30.0879    2.4192   66.9497 C   0  0  0  0  0  0  0  0  0  0  0  0
   30.7826    2.2034   65.7872 C   0  0  0  0  0  0  0  0  0  0  0  0
   30.0976    1.8994   64.5906 C   0  0  0  0  0  0  0  0  0  0  0  0
   29.0424    5.8257   65.5165 C   0  0  0  0  0  0  0  0  0  0  0  0
   30.4967    5.8979   66.0017 C   0  0  0  0  0  0  0  0  0  0  0  0
   31.4280    6.3859   65.0624 O   0  0  0  0  0  0  0  0  0  0  0  0
   30.8287    5.5660   67.1098 O   0  0  0  0  0  0  0  0  0  0  0  0
   31.0600    7.0442   64.3800 H   0  0  0  0  0  0  0  0  0  0  0  0
   29.4413    8.0237   60.0787 C   0  0  0  0  0  0  0  0  0  0  0  0
   28.8700    8.9598   59.1188 C   0  0  0  0  0  0  0  0  0  0  0  0
   29.0188   10.3129   59.2834 C   0  0  0  0  0  0  0  0  0  0  0  0
   28.5580   11.2956   58.3983 C   0  0  0  0  0  0  0  0  0  0  0  0
   27.8876   10.8234   57.2619 C   0  0  0  0  0  0  0  0  0  0  0  0
   27.7122    9.4875   57.0600 C   0  0  0  0  0  0  0  0  0  0  0  0
   28.1940    8.5587   57.9727 C   0  0  0  0  0  0  0  0  0  0  0  0
 64 65  1  0  0  0
 65 60  1  0  0  0
 60 61  1  0  0  0
 61 62  2  0  0  0
 61 53  1  0  0  0
 53 54  1  0  0  0
 54 55  1  0  0  0
 55 56  1  0  0  0
 56 57  1  0  0  0
 57 58  1  0  0  0
 58 59  2  0  0  0
 58 52  1  0  0  0
 52 69  1  0  0  0
 69 70  1  0  0  0
 70 71  2  0  0  0
 71 72  1  0  0  0
 72 73  2  0  0  0
 73 74  1  0  0  0
 74 75  2  0  0  0
 52 48  1  0  0  0
 48 49  1  0  0  0
 49 50  2  0  0  0
 49 47  1  0  0  0
 47 76  1  0  0  0
 76 77  1  0  0  0
 77 78  1  0  0  0
 77 79  2  0  0  0
 47 43  1  0  0  0
 43 44  1  0  0  0
 44 45  2  0  0  0
 44  1  1  0  0  0
  1 81  1  0  0  0
 81 82  1  0  0  0
 82 83  2  0  0  0
 83 84  1  0  0  0
 84 85  2  0  0  0
 85 86  1  0  0  0
 86 87  2  0  0  0
  1  2  1  0  0  0
  2  3  1  0  0  0
  3  4  2  0  0  0
  3  6  1  0  0  0
  6  7  1  0  0  0
  6  8  1  0  0  0
  8  9  1  0  0  0
  9 10  2  0  0  0
  9 12  1  0  0  0
 12 36  1  0  0  0
 36 37  1  0  0  0
 37 38  2  0  0  0
 38 39  1  0  0  0
 39 40  2  0  0  0
 40 41  1  0  0  0
 41 42  2  0  0  0
 12 13  1  0  0  0
 13 14  1  0  0  0
 14 15  2  0  0  0
 14 17  1  0  0  0
 17 18  1  0  0  0
 17 19  1  0  0  0
 19 20  1  0  0  0
 20 21  2  0  0  0
 20 23  1  0  0  0
 23 24  1  0  0  0
 23 25  1  0  0  0
 25 26  1  0  0  0
 26 27  2  0  0  0
 26 29  1  0  0  0
 29 30  1  0  0  0
 29 31  1  0  0  0
 31 32  1  0  0  0
 32 33  1  0  0  0
 32 34  2  0  0  0
 65 66  1  0  0  0
 66 67  1  0  0  0
 66 68  2  0  0  0
 57 53  1  0  0  0
 75 70  1  0  0  0
 87 82  1  0  0  0
 42 37  1  0  0  0
 60 63  1  0  0  0
 48 51  1  0  0  0
 78 80  1  0  0  0
 43 46  1  0  0  0
  2  5  1  0  0  0
  8 11  1  0  0  0
 13 16  1  0  0  0
 19 22  1  0  0  0
 25 28  1  0  0  0
 31 35  1  0  0  0
M  END
> <minimizedAffinity>
-2.62677

> <CNNscore>
0.4184355736

> <CNNaffinity>
6.6938424110

> <CNN_VS>
2.8009417057

> <CNNaffinity_variance>
0.1127444357

$$$$
[H]OC(=O)C([H])([H])[C@@]([H])(C(=O)N([H])[C@]([H])(C(=O)N1C([H])([H])C([H])([H])C([H])([H])[C@@]1([H])C(=O)N([H])[C@]([H])(C(=O)C([H])([H])[H])C([H])([H])[H])C([H])([H])c1c([H])c([H])c([H])c([H])c1[H])N([H])C(=O)[C@@]([H])(N([H])C(=O)[C@]([H])(N([H])C(=O)[C@@]([H])(N([H])C(=O)[C@]([H])(N([H])C(=O)[C@@]([H])(N([H])C(=O)[C@@]([H])(N([H])C(=O)C([H])([H])[H])C([H])([H])[H])C([H])([H])[H])C([H])([H])[H])C([H])([H])c1c([H])c([H])c([H])c([H])c1[H])C([H])([H])[H])C([H])([H])c1c([H])c([H])c([H])c([H])c1[H]


 87 90  0  0  0  0  0  0  0  0999 V2000
   24.8245   19.5373   50.4792 C   0  0  0  0  0  0  0  0  0  0  0  0
   25.0517   18.9360   51.7131 N   0  0  0  0  0  0  0  0  0  0  0  0
   24.9886   19.6533   52.9804 C   0  0  0  0  0  0  0  0  0  0  0  0
   24.5880   20.8092   52.8875 O   0  0  0  0  0  0  0  0  0  0  0  0
   25.2659   17.9349   51.7609 H   0  0  0  0  0  0  0  0  0  0  0  0
   25.3925   18.9158   54.1407 C   0  0  0  0  0  0  0  0  0  0  0  0
   26.8147   18.2960   53.6902 C   0  0  0  0  0  0  0  0  0  0  0  0
   25.6631   19.5101   55.4250 N   0  0  0  0  0  0  0  0  0  0  0  0
   26.9685   19.1011   55.9215 C   0  0  0  0  0  0  0  0  0  0  0  0
   27.5552   18.2788   55.1251 O   0  0  0  0  0  0  0  0  0  0  0  0
   25.0553   20.1043   55.9265 H   0  0  0  0  0  0  0  0  0  0  0  0
   27.6452   19.5042   57.1156 C   0  0  0  0  0  0  0  0  0  0  0  0
   28.6185   18.5164   57.5189 N   0  0  0  0  0  0  0  0  0  0  0  0
   28.8211   18.0553   58.7953 C   0  0  0  0  0  0  0  0  0  0  0  0
   28.2339   18.3346   59.8090 O   0  0  0  0  0  0  0  0  0  0  0  0
   29.2473   18.1055   56.7228 H   0  0  0  0  0  0  0  0  0  0  0  0
   30.0411   17.0413   58.9570 C   0  0  0  0  0  0  0  0  0  0  0  0
   31.2596   17.8225   59.0524 C   0  0  0  0  0  0  0  0  0  0  0  0
   29.5896   16.1278   59.8285 N   0  0  0  0  0  0  0  0  0  0  0  0
   29.0994   15.1616   60.7550 C   0  0  0  0  0  0  0  0  0  0  0  0
   27.9463   15.1424   61.2052 O   0  0  0  0  0  0  0  0  0  0  0  0
   28.3114   16.6211   59.7800 H   0  0  0  0  0  0  0  0  0  0  0  0
   30.0727   14.1400   61.1510 C   0  0  0  0  0  0  0  0  0  0  0  0
   31.5030   14.7459   61.1012 C   0  0  0  0  0  0  0  0  0  0  0  0
   30.2625   12.8459   60.6885 N   0  0  0  0  0  0  0  0  0  0  0  0
   30.3096   11.7985   61.6878 C   0  0  0  0  0  0  0  0  0  0  0  0
   29.9784   12.0413   62.8402 O   0  0  0  0  0  0  0  0  0  0  0  0
   30.3529   12.6100   59.6971 H   0  0  0  0  0  0  0  0  0  0  0  0
   30.8131   10.4166   61.2933 C   0  0  0  0  0  0  0  0  0  0  0  0
   29.8707    9.3662   61.0360 C   0  0  0  0  0  0  0  0  0  0  0  0
   31.5385   10.1795   62.6533 N   0  0  0  0  0  0  0  0  0  0  0  0
   32.9847   10.1310   62.4510 C   0  0  0  0  0  0  0  0  0  0  0  0
   33.8513   10.0655   63.6448 C   0  0  0  0  0  0  0  0  0  0  0  0
   33.4310   10.1580   61.3206 O   0  0  0  0  0  0  0  0  0  0  0  0
   31.1075   10.0830   63.5005 H   0  0  0  0  0  0  0  0  0  0  0  0
   28.1536   20.9428   57.1406 C   0  0  0  0  0  0  0  0  0  0  0  0
   29.2997   21.2049   57.9949 C   0  0  0  0  0  0  0  0  0  0  0  0
   30.5545   20.7467   57.7398 C   0  0  0  0  0  0  0  0  0  0  0  0
   31.6103   20.9629   58.6298 C   0  0  0  0  0  0  0  0  0  0  0  0
   31.3283   21.6571   59.7672 C   0  0  0  0  0  0  0  0  0  0  0  0
   30.0776   22.1359   60.0640 C   0  0  0  0  0  0  0  0  0  0  0  0
   29.0598   21.9072   59.1578 C   0  0  0  0  0  0  0  0  0  0  0  0
   23.4714   18.2639   48.9478 N   0  0  0  0  0  0  0  0  0  0  0  0
   23.4564   19.3473   49.8368 C   0  0  0  0  0  0  0  0  0  0  0  0
   22.4583   20.0326   50.0599 O   0  0  0  0  0  0  0  0  0  0  0  0
   24.4265   17.7961   48.7303 H   0  0  0  0  0  0  0  0  0  0  0  0
   22.3743   17.6627   48.2757 C   0  0  0  0  0  0  0  0  0  0  0  0
   21.2275   18.3577   46.0299 N   0  0  0  0  0  0  0  0  0  0  0  0
   22.1972   18.3244   46.9776 C   0  0  0  0  0  0  0  0  0  0  0  0
   23.2908   19.0661   46.6490 O   0  0  0  0  0  0  0  0  0  0  0  0
   20.2565   17.9987   46.0571 H   0  0  0  0  0  0  0  0  0  0  0  0
   21.4982   19.0659   44.7067 C   0  0  0  0  0  0  0  0  0  0  0  0
   18.2440   19.9104   45.5069 C   0  0  0  0  0  0  0  0  0  0  0  0
   17.6340   21.0765   46.2860 C   0  0  0  0  0  0  0  0  0  0  0  0
   18.5422   22.2499   45.9274 C   0  0  0  0  0  0  0  0  0  0  0  0
   18.7744   21.8759   44.4683 C   0  0  0  0  0  0  0  0  0  0  0  0
   19.3238   20.4750   44.7638 N   0  0  0  0  0  0  0  0  0  0  0  0
   20.6101   20.1308   44.4218 C   0  0  0  0  0  0  0  0  0  0  0  0
   21.2035   21.0466   43.6025 O   0  0  0  0  0  0  0  0  0  0  0  0
   15.9848   18.8004   45.4491 N   0  0  0  0  0  0  0  0  0  0  0  0
   17.1758   19.2144   44.8005 C   0  0  0  0  0  0  0  0  0  0  0  0
   17.3242   18.9826   43.5463 O   0  0  0  0  0  0  0  0  0  0  0  0
   15.9443   19.0537   46.4930 H   0  0  0  0  0  0  0  0  0  0  0  0
   14.3247   16.9814   45.7484 C   0  0  0  0  0  0  0  0  0  0  0  0
   14.8456   18.1018   44.9379 C   0  0  0  0  0  0  0  0  0  0  0  0
   13.7837   18.8951   44.2748 C   0  0  0  0  0  0  0  0  0  0  0  0
   12.3809   18.4233   44.8075 C   0  0  0  0  0  0  0  0  0  0  0  0
   13.7263   19.7416   43.5174 O   0  0  0  0  0  0  0  0  0  0  0  0
   21.4824   17.8900   43.7236 C   0  0  0  0  0  0  0  0  0  0  0  0
   20.8959   18.1123   42.3988 C   0  0  0  0  0  0  0  0  0  0  0  0
   21.6980   18.7793   41.4692 C   0  0  0  0  0  0  0  0  0  0  0  0
   21.3214   19.0503   40.2053 C   0  0  0  0  0  0  0  0  0  0  0  0
   20.0942   18.6750   39.7902 C   0  0  0  0  0  0  0  0  0  0  0  0
   19.2576   18.0245   40.6607 C   0  0  0  0  0  0  0  0  0  0  0  0
   19.6755   17.7449   41.9800 C   0  0  0  0  0  0  0  0  0  0  0  0
   21.1768   17.2891   49.0703 C   0  0  0  0  0  0  0  0  0  0  0  0
   21.6327   16.5414   50.3308 C   0  0  0  0  0  0  0  0  0  0  0  0
   20.6791   15.6746   50.9025 O   0  0  0  0  0  0  0  0  0  0  0  0
   22.7307   16.6767   50.8044 O   0  0  0  0  0  0  0  0  0  0  0  0
   20.0103   15.2674   50.2532 H   0  0  0  0  0  0  0  0  0  0  0  0
   25.8549   19.1291   49.4144 C   0  0  0  0  0  0  0  0  0  0  0  0
   26.3905   20.2867   48.7093 C   0  0  0  0  0  0  0  0  0  0  0  0
   27.0035   21.3043   49.3940 C   0  0  0  0  0  0  0  0  0  0  0  0
   27.5970   22.4328   48.8145 C   0  0  0  0  0  0  0  0  0  0  0  0
   27.5370   22.5001   47.4161 C   0  0  0  0  0  0  0  0  0  0  0  0
   26.9332   21.5142   46.6953 C   0  0  0  0  0  0  0  0  0  0  0  0
   26.3632   20.4164   47.3259 C   0  0  0  0  0  0  0  0  0  0  0  0
 64 65  1  0  0  0
 65 60  1  0  0  0
 60 61  1  0  0  0
 61 62  2  0  0  0
 61 53  1  0  0  0
 53 54  1  0  0  0
 54 55  1  0  0  0
 55 56  1  0  0  0
 56 57  1  0  0  0
 57 58  1  0  0  0
 58 59  2  0  0  0
 58 52  1  0  0  0
 52 69  1  0  0  0
 69 70  1  0  0  0
 70 71  2  0  0  0
 71 72  1  0  0  0
 72 73  2  0  0  0
 73 74  1  0  0  0
 74 75  2  0  0  0
 52 48  1  0  0  0
 48 49  1  0  0  0
 49 50  2  0  0  0
 49 47  1  0  0  0
 47 76  1  0  0  0
 76 77  1  0  0  0
 77 78  1  0  0  0
 77 79  2  0  0  0
 47 43  1  0  0  0
 43 44  1  0  0  0
 44 45  2  0  0  0
 44  1  1  0  0  0
  1 81  1  0  0  0
 81 82  1  0  0  0
 82 83  2  0  0  0
 83 84  1  0  0  0
 84 85  2  0  0  0
 85 86  1  0  0  0
 86 87  2  0  0  0
  1  2  1  0  0  0
  2  3  1  0  0  0
  3  4  2  0  0  0
  3  6  1  0  0  0
  6  7  1  0  0  0
  6  8  1  0  0  0
  8  9  1  0  0  0
  9 10  2  0  0  0
  9 12  1  0  0  0
 12 36  1  0  0  0
 36 37  1  0  0  0
 37 38  2  0  0  0
 38 39  1  0  0  0
 39 40  2  0  0  0
 40 41  1  0  0  0
 41 42  2  0  0  0
 12 13  1  0  0  0
 13 14  1  0  0  0
 14 15  2  0  0  0
 14 17  1  0  0  0
 17 18  1  0  0  0
 17 19  1  0  0  0
 19 20  1  0  0  0
 20 21  2  0  0  0
 20 23  1  0  0  0
 23 24  1  0  0  0
 23 25  1  0  0  0
 25 26  1  0  0  0
 26 27  2  0  0  0
 26 29  1  0  0  0
 29 30  1  0  0  0
 29 31  1  0  0  0
 31 32  1  0  0  0
 32 33  1  0  0  0
 32 34  2  0  0  0
 65 66  1  0  0  0
 66 67  1  0  0  0
 66 68  2  0  0  0
 57 53  1  0  0  0
 75 70  1  0  0  0
 87 82  1  0  0  0
 42 37  1  0  0  0
 60 63  1  0  0  0
 48 51  1  0  0  0
 78 80  1  0  0  0
 43 46  1  0  0  0
  2  5  1  0  0  0
  8 11  1  0  0  0
 13 16  1  0  0  0
 19 22  1  0  0  0
 25 28  1  0  0  0
 31 35  1  0  0  0
M  END
> <minimizedAffinity>
-5.25030

> <CNNscore>
0.4035694003

> <CNNaffinity>
6.9576897621

> <CNN_VS>
2.8079106808

> <CNNaffinity_variance>
0.0603040271

$$$$
[H]OC(=O)C([H])([H])[C@@]([H])(C(=O)N([H])[C@]([H])(C(=O)N1C([H])([H])C([H])([H])C([H])([H])[C@@]1([H])C(=O)N([H])[C@]([H])(C(=O)C([H])([H])[H])C([H])([H])[H])C([H])([H])c1c([H])c([H])c([H])c([H])c1[H])N([H])C(=O)[C@@]([H])(N([H])C(=O)[C@]([H])(N([H])C(=O)[C@@]([H])(N([H])C(=O)[C@]([H])(N([H])C(=O)[C@@]([H])(N([H])C(=O)[C@@]([H])(N([H])C(=O)C([H])([H])[H])C([H])([H])[H])C([H])([H])[H])C([H])([H])[H])C([H])([H])c1c([H])c([H])c([H])c([H])c1[H])C([H])([H])[H])C([H])([H])c1c([H])c([H])c([H])c([H])c1[H]


 87 90  0  0  0  0  0  0  0  0999 V2000
   28.6465    5.6157   63.3480 C   0  0  0  0  0  0  0  0  0  0  0  0
   28.6634    4.2405   63.5585 N   0  0  0  0  0  0  0  0  0  0  0  0
   27.5130    3.3771   63.3230 C   0  0  0  0  0  0  0  0  0  0  0  0
   26.5585    3.9396   62.7957 O   0  0  0  0  0  0  0  0  0  0  0  0
   29.5213    3.7852   63.8859 H   0  0  0  0  0  0  0  0  0  0  0  0
   27.6587    2.0109   63.7297 C   0  0  0  0  0  0  0  0  0  0  0  0
   29.0937    2.0125   64.4717 C   0  0  0  0  0  0  0  0  0  0  0  0
   26.7854    1.3455   64.6627 N   0  0  0  0  0  0  0  0  0  0  0  0
   25.9781    0.3386   63.9904 C   0  0  0  0  0  0  0  0  0  0  0  0
   26.1997    0.3046   62.7237 O   0  0  0  0  0  0  0  0  0  0  0  0
   26.7152    1.5395   65.6278 H   0  0  0  0  0  0  0  0  0  0  0  0
   25.0361   -0.5816   64.5493 C   0  0  0  0  0  0  0  0  0  0  0  0
   23.7208   -0.3832   63.9867 N   0  0  0  0  0  0  0  0  0  0  0  0
   22.5508   -0.9252   64.4560 C   0  0  0  0  0  0  0  0  0  0  0  0
   22.3670   -1.6255   65.4182 O   0  0  0  0  0  0  0  0  0  0  0  0
   23.6659    0.2612   63.1036 H   0  0  0  0  0  0  0  0  0  0  0  0
   21.2639   -0.6167   63.5663 C   0  0  0  0  0  0  0  0  0  0  0  0
   21.5324    0.5826   62.7958 C   0  0  0  0  0  0  0  0  0  0  0  0
   20.8972   -1.8189   63.0994 N   0  0  0  0  0  0  0  0  0  0  0  0
   20.5066   -3.0928   62.5926 C   0  0  0  0  0  0  0  0  0  0  0  0
   20.2410   -3.3249   61.4058 O   0  0  0  0  0  0  0  0  0  0  0  0
   20.8905   -1.3823   61.7999 H   0  0  0  0  0  0  0  0  0  0  0  0
   20.4482   -4.1616   63.5936 C   0  0  0  0  0  0  0  0  0  0  0  0
   18.9623   -4.4859   63.9133 C   0  0  0  0  0  0  0  0  0  0  0  0
   21.0687   -4.2767   64.8291 N   0  0  0  0  0  0  0  0  0  0  0  0
   21.8520   -5.4739   65.0544 C   0  0  0  0  0  0  0  0  0  0  0  0
   22.1140   -6.2154   64.1171 O   0  0  0  0  0  0  0  0  0  0  0  0
   21.0070   -3.5621   65.5587 H   0  0  0  0  0  0  0  0  0  0  0  0
   22.3028   -5.8124   66.4690 C   0  0  0  0  0  0  0  0  0  0  0  0
   21.3210   -6.0444   67.4887 C   0  0  0  0  0  0  0  0  0  0  0  0
   23.0020   -4.4355   66.6862 N   0  0  0  0  0  0  0  0  0  0  0  0
   24.3005   -4.6257   67.3286 C   0  0  0  0  0  0  0  0  0  0  0  0
   25.1799   -3.4492   67.4795 C   0  0  0  0  0  0  0  0  0  0  0  0
   24.6235   -5.7353   67.7057 O   0  0  0  0  0  0  0  0  0  0  0  0
   22.6423   -3.5868   66.4350 H   0  0  0  0  0  0  0  0  0  0  0  0
   25.4852   -2.0385   64.6140 C   0  0  0  0  0  0  0  0  0  0  0  0
   25.2488   -2.8376   63.4233 C   0  0  0  0  0  0  0  0  0  0  0  0
   24.0584   -2.8851   62.7674 C   0  0  0  0  0  0  0  0  0  0  0  0
   23.8580   -3.7259   61.6691 C   0  0  0  0  0  0  0  0  0  0  0  0
   24.9111   -4.4972   61.2802 C   0  0  0  0  0  0  0  0  0  0  0  0
   26.1278   -4.4812   61.9135 C   0  0  0  0  0  0  0  0  0  0  0  0
   26.2901   -3.6335   62.9927 C   0  0  0  0  0  0  0  0  0  0  0  0
   29.4924    7.3845   61.9505 N   0  0  0  0  0  0  0  0  0  0  0  0
   28.8860    6.1212   61.9312 C   0  0  0  0  0  0  0  0  0  0  0  0
   28.6029    5.5163   60.8969 O   0  0  0  0  0  0  0  0  0  0  0  0
   29.5948    7.8862   62.9076 H   0  0  0  0  0  0  0  0  0  0  0  0
   30.0207    8.1231   60.8586 C   0  0  0  0  0  0  0  0  0  0  0  0
   31.0299   10.5145   61.1814 N   0  0  0  0  0  0  0  0  0  0  0  0
   30.0886    9.5395   61.2370 C   0  0  0  0  0  0  0  0  0  0  0  0
   28.9203    9.9566   61.7983 O   0  0  0  0  0  0  0  0  0  0  0  0
   31.9506   10.5257   60.7074 H   0  0  0  0  0  0  0  0  0  0  0  0
   30.7523   11.8613   61.8409 C   0  0  0  0  0  0  0  0  0  0  0  0
   30.5048   15.2896   61.4818 C   0  0  0  0  0  0  0  0  0  0  0  0
   31.2479   16.4592   62.1291 C   0  0  0  0  0  0  0  0  0  0  0  0
   32.6670   15.9223   62.2964 C   0  0  0  0  0  0  0  0  0  0  0  0
   32.7319   15.1372   60.9918 C   0  0  0  0  0  0  0  0  0  0  0  0
   31.4928   14.2801   61.2770 N   0  0  0  0  0  0  0  0  0  0  0  0
   31.5870   12.9135   61.3940 C   0  0  0  0  0  0  0  0  0  0  0  0
   32.7958   12.4291   60.9862 O   0  0  0  0  0  0  0  0  0  0  0  0
   29.8336   17.1430   59.9153 N   0  0  0  0  0  0  0  0  0  0  0  0
   29.7492   15.7933   60.3418 C   0  0  0  0  0  0  0  0  0  0  0  0
   28.9925   14.9762   59.7026 O   0  0  0  0  0  0  0  0  0  0  0  0
   30.5047   17.7455   60.5002 H   0  0  0  0  0  0  0  0  0  0  0  0
   27.9697   18.6114   59.1917 C   0  0  0  0  0  0  0  0  0  0  0  0
   29.1685   17.8202   58.8448 C   0  0  0  0  0  0  0  0  0  0  0  0
   30.0039   18.4444   57.7917 C   0  0  0  0  0  0  0  0  0  0  0  0
   29.4063   18.0859   56.3814 C   0  0  0  0  0  0  0  0  0  0  0  0
   30.9258   19.1087   57.7443 O   0  0  0  0  0  0  0  0  0  0  0  0
   30.8561   11.4995   63.3268 C   0  0  0  0  0  0  0  0  0  0  0  0
   32.1783   11.1551   63.8573 C   0  0  0  0  0  0  0  0  0  0  0  0
   32.7404   12.0620   64.7594 C   0  0  0  0  0  0  0  0  0  0  0  0
   33.9374   11.8924   65.3520 C   0  0  0  0  0  0  0  0  0  0  0  0
   34.6632   10.7925   65.0646 C   0  0  0  0  0  0  0  0  0  0  0  0
   34.1678    9.8702   64.1789 C   0  0  0  0  0  0  0  0  0  0  0  0
   32.9072   10.0651   63.5737 C   0  0  0  0  0  0  0  0  0  0  0  0
   29.5925    7.7576   59.4845 C   0  0  0  0  0  0  0  0  0  0  0  0
   28.6105    8.8204   58.9730 C   0  0  0  0  0  0  0  0  0  0  0  0
   29.1236   10.1306   58.8843 O   0  0  0  0  0  0  0  0  0  0  0  0
   27.4771    8.5612   58.6622 O   0  0  0  0  0  0  0  0  0  0  0  0
   30.1233   10.2002   58.7101 H   0  0  0  0  0  0  0  0  0  0  0  0
   29.6411    6.3717   64.2433 C   0  0  0  0  0  0  0  0  0  0  0  0
   30.0025    5.5967   65.4234 C   0  0  0  0  0  0  0  0  0  0  0  0
   29.0895    4.7722   66.0290 C   0  0  0  0  0  0  0  0  0  0  0  0
   29.3444    3.9467   67.1313 C   0  0  0  0  0  0  0  0  0  0  0  0
   30.6503    3.9954   67.6375 C   0  0  0  0  0  0  0  0  0  0  0  0
   31.5887    4.8040   67.0706 C   0  0  0  0  0  0  0  0  0  0  0  0
   31.2777    5.5996   65.9760 C   0  0  0  0  0  0  0  0  0  0  0  0
 64 65  1  0  0  0
 65 60  1  0  0  0
 60 61  1  0  0  0
 61 62  2  0  0  0
 61 53  1  0  0  0
 53 54  1  0  0  0
 54 55  1  0  0  0
 55 56  1  0  0  0
 56 57  1  0  0  0
 57 58  1  0  0  0
 58 59  2  0  0  0
 58 52  1  0  0  0
 52 69  1  0  0  0
 69 70  1  0  0  0
 70 71  2  0  0  0
 71 72  1  0  0  0
 72 73  2  0  0  0
 73 74  1  0  0  0
 74 75  2  0  0  0
 52 48  1  0  0  0
 48 49  1  0  0  0
 49 50  2  0  0  0
 49 47  1  0  0  0
 47 76  1  0  0  0
 76 77  1  0  0  0
 77 78  1  0  0  0
 77 79  2  0  0  0
 47 43  1  0  0  0
 43 44  1  0  0  0
 44 45  2  0  0  0
 44  1  1  0  0  0
  1 81  1  0  0  0
 81 82  1  0  0  0
 82 83  2  0  0  0
 83 84  1  0  0  0
 84 85  2  0  0  0
 85 86  1  0  0  0
 86 87  2  0  0  0
  1  2  1  0  0  0
  2  3  1  0  0  0
  3  4  2  0  0  0
  3  6  1  0  0  0
  6  7  1  0  0  0
  6  8  1  0  0  0
  8  9  1  0  0  0
  9 10  2  0  0  0
  9 12  1  0  0  0
 12 36  1  0  0  0
 36 37  1  0  0  0
 37 38  2  0  0  0
 38 39  1  0  0  0
 39 40  2  0  0  0
 40 41  1  0  0  0
 41 42  2  0  0  0
 12 13  1  0  0  0
 13 14  1  0  0  0
 14 15  2  0  0  0
 14 17  1  0  0  0
 17 18  1  0  0  0
 17 19  1  0  0  0
 19 20  1  0  0  0
 20 21  2  0  0  0
 20 23  1  0  0  0
 23 24  1  0  0  0
 23 25  1  0  0  0
 25 26  1  0  0  0
 26 27  2  0  0  0
 26 29  1  0  0  0
 29 30  1  0  0  0
 29 31  1  0  0  0
 31 32  1  0  0  0
 32 33  1  0  0  0
 32 34  2  0  0  0
 65 66  1  0  0  0
 66 67  1  0  0  0
 66 68  2  0  0  0
 57 53  1  0  0  0
 75 70  1  0  0  0
 87 82  1  0  0  0
 42 37  1  0  0  0
 60 63  1  0  0  0
 48 51  1  0  0  0
 78 80  1  0  0  0
 43 46  1  0  0  0
  2  5  1  0  0  0
  8 11  1  0  0  0
 13 16  1  0  0  0
 19 22  1  0  0  0
 25 28  1  0  0  0
 31 35  1  0  0  0
M  END
> <minimizedAffinity>
-4.58738

> <CNNscore>
0.4004836679

> <CNNaffinity>
7.0668945312

> <CNN_VS>
2.8301758766

> <CNNaffinity_variance>
0.0918983147

$$$$
[H]OC(=O)C([H])([H])[C@@]([H])(C(=O)N([H])[C@]([H])(C(=O)N1C([H])([H])C([H])([H])C([H])([H])[C@@]1([H])C(=O)N([H])[C@]([H])(C(=O)C([H])([H])[H])C([H])([H])[H])C([H])([H])c1c([H])c([H])c([H])c([H])c1[H])N([H])C(=O)[C@@]([H])(N([H])C(=O)[C@]([H])(N([H])C(=O)[C@@]([H])(N([H])C(=O)[C@]([H])(N([H])C(=O)[C@@]([H])(N([H])C(=O)[C@@]([H])(N([H])C(=O)C([H])([H])[H])C([H])([H])[H])C([H])([H])[H])C([H])([H])[H])C([H])([H])c1c([H])c([H])c([H])c([H])c1[H])C([H])([H])[H])C([H])([H])c1c([H])c([H])c([H])c([H])c1[H]


 87 90  0  0  0  0  0  0  0  0999 V2000
   29.3175    8.4633   61.5189 C   0  0  0  0  0  0  0  0  0  0  0  0
   29.8639    9.7426   61.5467 N   0  0  0  0  0  0  0  0  0  0  0  0
   31.2673   10.0232   61.2712 C   0  0  0  0  0  0  0  0  0  0  0  0
   31.9096    9.0533   60.8811 O   0  0  0  0  0  0  0  0  0  0  0  0
   29.2664   10.5478   61.7589 H   0  0  0  0  0  0  0  0  0  0  0  0
   31.6920   11.3748   61.4865 C   0  0  0  0  0  0  0  0  0  0  0  0
   33.1124   11.4272   60.7188 C   0  0  0  0  0  0  0  0  0  0  0  0
   30.9888   12.5329   60.9966 N   0  0  0  0  0  0  0  0  0  0  0  0
   31.5661   13.7562   61.5333 C   0  0  0  0  0  0  0  0  0  0  0  0
   32.5354   13.5202   62.3455 O   0  0  0  0  0  0  0  0  0  0  0  0
   30.2094   12.5226   60.3912 H   0  0  0  0  0  0  0  0  0  0  0  0
   31.2137   15.1151   61.2585 C   0  0  0  0  0  0  0  0  0  0  0  0
   32.3458   15.8512   60.7464 N   0  0  0  0  0  0  0  0  0  0  0  0
   32.9783   16.8976   61.3691 C   0  0  0  0  0  0  0  0  0  0  0  0
   32.7604   17.3873   62.4475 O   0  0  0  0  0  0  0  0  0  0  0  0
   32.7247   15.5353   59.7692 H   0  0  0  0  0  0  0  0  0  0  0  0
   34.1344   17.5875   60.5146 C   0  0  0  0  0  0  0  0  0  0  0  0
   33.8088   17.4233   59.1106 C   0  0  0  0  0  0  0  0  0  0  0  0
   34.3773   18.7345   61.1650 N   0  0  0  0  0  0  0  0  0  0  0  0
   34.6467   19.9527   61.8548 C   0  0  0  0  0  0  0  0  0  0  0  0
   35.7781   20.4220   62.0353 O   0  0  0  0  0  0  0  0  0  0  0  0
   35.7189   18.6811   60.8877 H   0  0  0  0  0  0  0  0  0  0  0  0
   33.4592   20.6566   62.3468 C   0  0  0  0  0  0  0  0  0  0  0  0
   33.1895   21.8978   61.4513 C   0  0  0  0  0  0  0  0  0  0  0  0
   33.1405   21.1104   63.6185 N   0  0  0  0  0  0  0  0  0  0  0  0
   31.8069   20.8138   64.0995 C   0  0  0  0  0  0  0  0  0  0  0  0
   31.1025   20.0204   63.4904 O   0  0  0  0  0  0  0  0  0  0  0  0
   33.7976   21.6182   64.2161 H   0  0  0  0  0  0  0  0  0  0  0  0
   31.2868   21.5306   65.3383 C   0  0  0  0  0  0  0  0  0  0  0  0
   32.1310   22.4679   66.0211 C   0  0  0  0  0  0  0  0  0  0  0  0
   31.1470   20.2164   66.1662 N   0  0  0  0  0  0  0  0  0  0  0  0
   29.7806   20.0784   66.6652 C   0  0  0  0  0  0  0  0  0  0  0  0
   29.4131   18.8200   67.3447 C   0  0  0  0  0  0  0  0  0  0  0  0
   28.9894   20.9861   66.4990 O   0  0  0  0  0  0  0  0  0  0  0  0
   31.8469   19.5860   66.3253 H   0  0  0  0  0  0  0  0  0  0  0  0
   29.9173   15.3235   60.4811 C   0  0  0  0  0  0  0  0  0  0  0  0
   29.6120   16.6909   60.0948 C   0  0  0  0  0  0  0  0  0  0  0  0
   29.6955   17.1536   58.8187 C   0  0  0  0  0  0  0  0  0  0  0  0
   29.4628   18.4962   58.5077 C   0  0  0  0  0  0  0  0  0  0  0  0
   29.1450   19.3246   59.5411 C   0  0  0  0  0  0  0  0  0  0  0  0
   29.0511   18.9000   60.8421 C   0  0  0  0  0  0  0  0  0  0  0  0
   29.2830   17.5645   61.1106 C   0  0  0  0  0  0  0  0  0  0  0  0
   28.9559    6.7797   63.2018 N   0  0  0  0  0  0  0  0  0  0  0  0
   29.9382    7.4053   62.4222 C   0  0  0  0  0  0  0  0  0  0  0  0
   31.1339    7.1159   62.4705 O   0  0  0  0  0  0  0  0  0  0  0  0
   27.9489    7.1841   63.1740 H   0  0  0  0  0  0  0  0  0  0  0  0
   29.0930    5.6450   64.0447 C   0  0  0  0  0  0  0  0  0  0  0  0
   27.2612    3.7845   63.8881 N   0  0  0  0  0  0  0  0  0  0  0  0
   28.3103    4.5401   63.4783 C   0  0  0  0  0  0  0  0  0  0  0  0
   28.7767    4.1847   62.2494 O   0  0  0  0  0  0  0  0  0  0  0  0
   26.6356    3.9000   64.7052 H   0  0  0  0  0  0  0  0  0  0  0  0
   26.8231    2.5918   63.0446 C   0  0  0  0  0  0  0  0  0  0  0  0
   25.1833   -0.1204   64.4223 C   0  0  0  0  0  0  0  0  0  0  0  0
   24.2467   -0.2695   65.6222 C   0  0  0  0  0  0  0  0  0  0  0  0
   23.4533    1.0346   65.6107 C   0  0  0  0  0  0  0  0  0  0  0  0
   23.3247    1.1695   64.0981 C   0  0  0  0  0  0  0  0  0  0  0  0
   24.8321    1.1251   63.8203 N   0  0  0  0  0  0  0  0  0  0  0  0
   25.4799    2.1943   63.2482 C   0  0  0  0  0  0  0  0  0  0  0  0
   24.6202    3.1295   62.7497 O   0  0  0  0  0  0  0  0  0  0  0  0
   24.1041   -2.3129   63.8160 N   0  0  0  0  0  0  0  0  0  0  0  0
   25.1202   -1.3416   63.6293 C   0  0  0  0  0  0  0  0  0  0  0  0
   26.0138   -1.5294   62.7265 O   0  0  0  0  0  0  0  0  0  0  0  0
   23.3925   -2.0602   64.5810 H   0  0  0  0  0  0  0  0  0  0  0  0
   24.2123   -4.7894   63.9151 C   0  0  0  0  0  0  0  0  0  0  0  0
   23.8851   -3.5639   63.1570 C   0  0  0  0  0  0  0  0  0  0  0  0
   22.6791   -3.6995   62.3064 C   0  0  0  0  0  0  0  0  0  0  0  0
   21.6140   -4.5777   63.0607 C   0  0  0  0  0  0  0  0  0  0  0  0
   22.3312   -3.3290   61.2890 O   0  0  0  0  0  0  0  0  0  0  0  0
   27.8966    1.5571   63.4005 C   0  0  0  0  0  0  0  0  0  0  0  0
   28.7583    1.8328   64.5536 C   0  0  0  0  0  0  0  0  0  0  0  0
   28.1119    2.0571   65.7718 C   0  0  0  0  0  0  0  0  0  0  0  0
   28.7513    2.3081   66.9298 C   0  0  0  0  0  0  0  0  0  0  0  0
   30.0989    2.3628   66.9381 C   0  0  0  0  0  0  0  0  0  0  0  0
   30.7892    2.1599   65.7706 C   0  0  0  0  0  0  0  0  0  0  0  0
   30.0985    1.8920   64.5688 C   0  0  0  0  0  0  0  0  0  0  0  0
   29.0985    5.8527   65.5150 C   0  0  0  0  0  0  0  0  0  0  0  0
   30.5528    5.8897   66.0041 C   0  0  0  0  0  0  0  0  0  0  0  0
   31.4844    6.4428   65.1020 O   0  0  0  0  0  0  0  0  0  0  0  0
   30.8847    5.4797   67.0859 O   0  0  0  0  0  0  0  0  0  0  0  0
   31.1167    7.1482   64.4680 H   0  0  0  0  0  0  0  0  0  0  0  0
   29.2880    7.8542   60.1081 C   0  0  0  0  0  0  0  0  0  0  0  0
   28.7909    8.8034   59.1203 C   0  0  0  0  0  0  0  0  0  0  0  0
   28.9517   10.1532   59.3002 C   0  0  0  0  0  0  0  0  0  0  0  0
   28.5611   11.1469   58.3939 C   0  0  0  0  0  0  0  0  0  0  0  0
   27.9525   10.6903   57.2170 C   0  0  0  0  0  0  0  0  0  0  0  0
   27.7677    9.3584   56.9984 C   0  0  0  0  0  0  0  0  0  0  0  0
   28.1785    8.4181   57.9338 C   0  0  0  0  0  0  0  0  0  0  0  0
 64 65  1  0  0  0
 65 60  1  0  0  0
 60 61  1  0  0  0
 61 62  2  0  0  0
 61 53  1  0  0  0
 53 54  1  0  0  0
 54 55  1  0  0  0
 55 56  1  0  0  0
 56 57  1  0  0  0
 57 58  1  0  0  0
 58 59  2  0  0  0
 58 52  1  0  0  0
 52 69  1  0  0  0
 69 70  1  0  0  0
 70 71  2  0  0  0
 71 72  1  0  0  0
 72 73  2  0  0  0
 73 74  1  0  0  0
 74 75  2  0  0  0
 52 48  1  0  0  0
 48 49  1  0  0  0
 49 50  2  0  0  0
 49 47  1  0  0  0
 47 76  1  0  0  0
 76 77  1  0  0  0
 77 78  1  0  0  0
 77 79  2  0  0  0
 47 43  1  0  0  0
 43 44  1  0  0  0
 44 45  2  0  0  0
 44  1  1  0  0  0
  1 81  1  0  0  0
 81 82  1  0  0  0
 82 83  2  0  0  0
 83 84  1  0  0  0
 84 85  2  0  0  0
 85 86  1  0  0  0
 86 87  2  0  0  0
  1  2  1  0  0  0
  2  3  1  0  0  0
  3  4  2  0  0  0
  3  6  1  0  0  0
  6  7  1  0  0  0
  6  8  1  0  0  0
  8  9  1  0  0  0
  9 10  2  0  0  0
  9 12  1  0  0  0
 12 36  1  0  0  0
 36 37  1  0  0  0
 37 38  2  0  0  0
 38 39  1  0  0  0
 39 40  2  0  0  0
 40 41  1  0  0  0
 41 42  2  0  0  0
 12 13  1  0  0  0
 13 14  1  0  0  0
 14 15  2  0  0  0
 14 17  1  0  0  0
 17 18  1  0  0  0
 17 19  1  0  0  0
 19 20  1  0  0  0
 20 21  2  0  0  0
 20 23  1  0  0  0
 23 24  1  0  0  0
 23 25  1  0  0  0
 25 26  1  0  0  0
 26 27  2  0  0  0
 26 29  1  0  0  0
 29 30  1  0  0  0
 29 31  1  0  0  0
 31 32  1  0  0  0
 32 33  1  0  0  0
 32 34  2  0  0  0
 65 66  1  0  0  0
 66 67  1  0  0  0
 66 68  2  0  0  0
 57 53  1  0  0  0
 75 70  1  0  0  0
 87 82  1  0  0  0
 42 37  1  0  0  0
 60 63  1  0  0  0
 48 51  1  0  0  0
 78 80  1  0  0  0
 43 46  1  0  0  0
  2  5  1  0  0  0
  8 11  1  0  0  0
 13 16  1  0  0  0
 19 22  1  0  0  0
 25 28  1  0  0  0
 31 35  1  0  0  0
M  END
> <minimizedAffinity>
-2.40564

> <CNNscore>
0.3957905173

> <CNNaffinity>
6.6309762001

> <CNN_VS>
2.6244773865

> <CNNaffinity_variance>
0.3593741655

$$$$
[H]c1c([H])c([C@]([H])(N([H])[C@]([H])(C(=O)N([H])C2(C#N)C([H])([H])C2([H])[H])C([H])([H])C(F)(C([H])([H])[H])C([H])([H])[H])C(F)(F)F)c([H])c([H])c1-c1c([H])c([H])c(S(=O)(=O)C([H])([H])[H])c([H])c1[H]


 38 40  0  0  0  0  0  0  0  0999 V2000
   23.8893    7.5130   53.1382 C   0  0  0  0  0  0  0  0  0  0  0  0
   24.8048    8.1054   54.1435 C   0  0  0  0  0  0  0  0  0  0  0  0
   24.3694    8.7564   55.2740 C   0  0  0  0  0  0  0  0  0  0  0  0
   25.2635    9.2150   56.2274 C   0  0  0  0  0  0  0  0  0  0  0  0
   26.6285    9.0430   56.0759 C   0  0  0  0  0  0  0  0  0  0  0  0
   27.0979    8.4093   54.9594 C   0  0  0  0  0  0  0  0  0  0  0  0
   26.1926    7.9488   54.0161 C   0  0  0  0  0  0  0  0  0  0  0  0
   27.5203    9.3857   57.1722 C   0  0  0  0  0  0  0  0  0  0  0  0
   28.0338    8.5475   58.1147 C   0  0  0  0  0  0  0  0  0  0  0  0
   28.8038    9.0494   59.1543 C   0  0  0  0  0  0  0  0  0  0  0  0
   29.0717   10.4015   59.2671 C   0  0  0  0  0  0  0  0  0  0  0  0
   28.5483   11.2586   58.3043 C   0  0  0  0  0  0  0  0  0  0  0  0
   27.7967   10.7541   57.2930 C   0  0  0  0  0  0  0  0  0  0  0  0
   30.0354   11.0611   60.5750 S   0  0  0  0  0  0  0  0  0  0  0  0
   30.7714    9.7139   61.4679 C   0  0  0  0  0  0  0  0  0  0  0  0
   29.0697   11.7801   61.5158 O   0  0  0  0  0  0  0  0  0  0  0  0
   31.0665   12.0293   60.1090 O   0  0  0  0  0  0  0  0  0  0  0  0
   23.8748    6.0114   53.3342 C   0  0  0  0  0  0  0  0  0  0  0  0
   23.9404    5.7104   54.7149 F   0  0  0  0  0  0  0  0  0  0  0  0
   25.1236    5.4968   52.8758 F   0  0  0  0  0  0  0  0  0  0  0  0
   22.8861    5.2770   52.8388 F   0  0  0  0  0  0  0  0  0  0  0  0
   22.5992    8.0195   53.0289 N   0  0  0  0  0  0  0  0  0  0  0  0
   22.1451    7.5856   52.1692 H   0  0  0  0  0  0  0  0  0  0  0  0
   21.6412    7.7160   54.0954 C   0  0  0  0  0  0  0  0  0  0  0  0
   20.7300    6.8134   53.1655 C   0  0  0  0  0  0  0  0  0  0  0  0
   20.4284    7.3140   52.0969 O   0  0  0  0  0  0  0  0  0  0  0  0
   20.3330    5.5927   53.6430 N   0  0  0  0  0  0  0  0  0  0  0  0
   20.8273    5.3766   54.6468 H   0  0  0  0  0  0  0  0  0  0  0  0
   19.5384    4.5068   53.3096 C   0  0  0  0  0  0  0  0  0  0  0  0
   19.6195    3.6480   52.0707 C   0  0  0  0  0  0  0  0  0  0  0  0
   20.0822    3.1103   53.3876 C   0  0  0  0  0  0  0  0  0  0  0  0
   18.1342    4.6126   53.8495 C   0  0  0  0  0  0  0  0  0  0  0  0
   17.0652    4.6850   54.2888 N   0  0  0  0  0  0  0  0  0  0  0  0
   20.8509    8.7707   54.6953 C   0  0  0  0  0  0  0  0  0  0  0  0
   20.5203   11.1091   55.1682 C   0  0  0  0  0  0  0  0  0  0  0  0
   21.5204   10.1575   54.5248 C   0  0  0  0  0  0  0  0  0  0  0  0
   21.5335   10.4944   53.0440 C   0  0  0  0  0  0  0  0  0  0  0  0
   22.7061   10.2825   55.1473 F   0  0  0  0  0  0  0  0  0  0  0  0
 35 36  1  0  0  0
 36 37  1  0  0  0
 36 38  1  0  0  0
 36 34  1  0  0  0
 34 24  1  0  0  0
 24 22  1  0  0  0
 22  1  1  0  0  0
  1  2  1  0  0  0
  2  3  2  0  0  0
  3  4  1  0  0  0
  4  5  2  0  0  0
  5  6  1  0  0  0
  6  7  2  0  0  0
  5  8  1  0  0  0
  8  9  2  0  0  0
  9 10  1  0  0  0
 10 11  2  0  0  0
 11 12  1  0  0  0
 12 13  2  0  0  0
 11 14  1  0  0  0
 14 15  1  0  0  0
 14 16  2  0  0  0
 14 17  2  0  0  0
  1 18  1  0  0  0
 18 19  1  0  0  0
 18 20  1  0  0  0
 18 21  1  0  0  0
 24 25  1  0  0  0
 25 26  2  0  0  0
 25 27  1  0  0  0
 27 29  1  0  0  0
 29 30  1  0  0  0
 30 31  1  0  0  0
 29 32  1  0  0  0
 32 33  3  0  0  0
  7  2  1  0  0  0
 13  8  1  0  0  0
 31 29  1  0  0  0
 22 23  1  0  0  0
 27 28  1  0  0  0
M  END
> <minimizedAffinity>
11.02421

> <CNNscore>
0.5435754061

> <CNNaffinity>
6.9771337509

> <CNN_VS>
3.7925982475

> <CNNaffinity_variance>
0.4179979265

$$$$
[H]c1c([H])c([C@]([H])(N([H])[C@]([H])(C(=O)N([H])C2(C#N)C([H])([H])C2([H])[H])C([H])([H])C(F)(C([H])([H])[H])C([H])([H])[H])C(F)(F)F)c([H])c([H])c1-c1c([H])c([H])c(S(=O)(=O)C([H])([H])[H])c([H])c1[H]


 38 40  0  0  0  0  0  0  0  0999 V2000
   24.6501    7.6438   52.9016 C   0  0  0  0  0  0  0  0  0  0  0  0
   25.4742    8.0714   54.0582 C   0  0  0  0  0  0  0  0  0  0  0  0
   26.8319    8.2780   53.9858 C   0  0  0  0  0  0  0  0  0  0  0  0
   27.5431    8.7625   55.0711 C   0  0  0  0  0  0  0  0  0  0  0  0
   26.9171    9.0498   56.2717 C   0  0  0  0  0  0  0  0  0  0  0  0
   25.5699    8.8469   56.3832 C   0  0  0  0  0  0  0  0  0  0  0  0
   24.8685    8.3683   55.2876 C   0  0  0  0  0  0  0  0  0  0  0  0
   27.6638    9.7128   57.3290 C   0  0  0  0  0  0  0  0  0  0  0  0
   28.3474    9.1283   58.3514 C   0  0  0  0  0  0  0  0  0  0  0  0
   28.9375    9.9080   59.3361 C   0  0  0  0  0  0  0  0  0  0  0  0
   28.8514   11.2881   59.3126 C   0  0  0  0  0  0  0  0  0  0  0  0
   28.1539   11.8863   58.2681 C   0  0  0  0  0  0  0  0  0  0  0  0
   27.5815   11.1116   57.3118 C   0  0  0  0  0  0  0  0  0  0  0  0
   29.5817   12.2948   60.5486 S   0  0  0  0  0  0  0  0  0  0  0  0
   30.7713   11.3214   61.4383 C   0  0  0  0  0  0  0  0  0  0  0  0
   28.4666   12.6814   61.5190 O   0  0  0  0  0  0  0  0  0  0  0  0
   30.1978   13.5354   60.0017 O   0  0  0  0  0  0  0  0  0  0  0  0
   24.1816    6.2251   53.1497 C   0  0  0  0  0  0  0  0  0  0  0  0
   25.2277    5.3196   52.8550 F   0  0  0  0  0  0  0  0  0  0  0  0
   23.2312    5.8937   52.1391 F   0  0  0  0  0  0  0  0  0  0  0  0
   23.7051    5.8711   54.3370 F   0  0  0  0  0  0  0  0  0  0  0  0
   23.5995    8.4573   52.4926 N   0  0  0  0  0  0  0  0  0  0  0  0
   23.0961    7.9696   51.6911 H   0  0  0  0  0  0  0  0  0  0  0  0
   22.5185    8.7269   53.4444 C   0  0  0  0  0  0  0  0  0  0  0  0
   21.4827    7.7903   52.6964 C   0  0  0  0  0  0  0  0  0  0  0  0
   21.3059    8.0532   51.5204 O   0  0  0  0  0  0  0  0  0  0  0  0
   20.8569    6.8129   53.4236 N   0  0  0  0  0  0  0  0  0  0  0  0
   21.2768    6.7723   54.4823 H   0  0  0  0  0  0  0  0  0  0  0  0
   19.8865    5.8301   53.3053 C   0  0  0  0  0  0  0  0  0  0  0  0
   19.9420    4.5719   52.4729 C   0  0  0  0  0  0  0  0  0  0  0  0
   20.0703    4.4928   53.9610 C   0  0  0  0  0  0  0  0  0  0  0  0
   18.4835    6.3619   53.4574 C   0  0  0  0  0  0  0  0  0  0  0  0
   17.4167    6.7948   53.5825 N   0  0  0  0  0  0  0  0  0  0  0  0
   21.9753   10.0622   53.5806 C   0  0  0  0  0  0  0  0  0  0  0  0
   22.6789   10.3710   55.8633 C   0  0  0  0  0  0  0  0  0  0  0  0
   21.4216   10.3142   55.0055 C   0  0  0  0  0  0  0  0  0  0  0  0
   20.6661    9.0714   55.4429 C   0  0  0  0  0  0  0  0  0  0  0  0
   20.7456   11.4688   55.1429 F   0  0  0  0  0  0  0  0  0  0  0  0
 35 36  1  0  0  0
 36 37  1  0  0  0
 36 38  1  0  0  0
 36 34  1  0  0  0
 34 24  1  0  0  0
 24 22  1  0  0  0
 22  1  1  0  0  0
  1  2  1  0  0  0
  2  3  2  0  0  0
  3  4  1  0  0  0
  4  5  2  0  0  0
  5  6  1  0  0  0
  6  7  2  0  0  0
  5  8  1  0  0  0
  8  9  2  0  0  0
  9 10  1  0  0  0
 10 11  2  0  0  0
 11 12  1  0  0  0
 12 13  2  0  0  0
 11 14  1  0  0  0
 14 15  1  0  0  0
 14 16  2  0  0  0
 14 17  2  0  0  0
  1 18  1  0  0  0
 18 19  1  0  0  0
 18 20  1  0  0  0
 18 21  1  0  0  0
 24 25  1  0  0  0
 25 26  2  0  0  0
 25 27  1  0  0  0
 27 29  1  0  0  0
 29 30  1  0  0  0
 30 31  1  0  0  0
 29 32  1  0  0  0
 32 33  3  0  0  0
  7  2  1  0  0  0
 13  8  1  0  0  0
 31 29  1  0  0  0
 22 23  1  0  0  0
 27 28  1  0  0  0
M  END
> <minimizedAffinity>
15.23223

> <CNNscore>
0.4434017241

> <CNNaffinity>
6.6705007553

> <CNN_VS>
2.9577114582

> <CNNaffinity_variance>
0.7068153620

$$$$
[H]c1c([H])c([C@]([H])(N([H])[C@]([H])(C(=O)N([H])C2(C#N)C([H])([H])C2([H])[H])C([H])([H])C(F)(C([H])([H])[H])C([H])([H])[H])C(F)(F)F)c([H])c([H])c1-c1c([H])c([H])c(S(=O)(=O)C([H])([H])[H])c([H])c1[H]


 38 40  0  0  0  0  0  0  0  0999 V2000
   28.6123   10.2274   57.5275 C   0  0  0  0  0  0  0  0  0  0  0  0
   27.4834    9.6306   56.7732 C   0  0  0  0  0  0  0  0  0  0  0  0
   26.1633    9.8222   57.1078 C   0  0  0  0  0  0  0  0  0  0  0  0
   25.1425    9.3164   56.3200 C   0  0  0  0  0  0  0  0  0  0  0  0
   25.4110    8.5927   55.1711 C   0  0  0  0  0  0  0  0  0  0  0  0
   26.7119    8.3738   54.8132 C   0  0  0  0  0  0  0  0  0  0  0  0
   27.7243    8.8913   55.6061 C   0  0  0  0  0  0  0  0  0  0  0  0
   24.3189    8.2245   54.2841 C   0  0  0  0  0  0  0  0  0  0  0  0
   24.2834    7.1893   53.4001 C   0  0  0  0  0  0  0  0  0  0  0  0
   23.1939    7.0250   52.5566 C   0  0  0  0  0  0  0  0  0  0  0  0
   22.1208    7.8970   52.5847 C   0  0  0  0  0  0  0  0  0  0  0  0
   22.1557    8.9545   53.4880 C   0  0  0  0  0  0  0  0  0  0  0  0
   23.2277    9.1034   54.3070 C   0  0  0  0  0  0  0  0  0  0  0  0
   20.7362    7.7153   51.5244 S   0  0  0  0  0  0  0  0  0  0  0  0
   19.6885    9.1364   51.7168 C   0  0  0  0  0  0  0  0  0  0  0  0
   19.9646    6.4898   52.0119 O   0  0  0  0  0  0  0  0  0  0  0  0
   21.1158    7.5116   50.0989 O   0  0  0  0  0  0  0  0  0  0  0  0
   29.1757   11.3735   56.7135 C   0  0  0  0  0  0  0  0  0  0  0  0
   30.2659   11.9559   57.4016 F   0  0  0  0  0  0  0  0  0  0  0  0
   28.2270   12.4383   56.7395 F   0  0  0  0  0  0  0  0  0  0  0  0
   29.5843   11.1766   55.4659 F   0  0  0  0  0  0  0  0  0  0  0  0
   28.4080   10.6017   58.8508 N   0  0  0  0  0  0  0  0  0  0  0  0
   27.3875   10.4184   59.0928 H   0  0  0  0  0  0  0  0  0  0  0  0
   29.1301    9.8740   59.8978 C   0  0  0  0  0  0  0  0  0  0  0  0
   29.9094   11.1582   60.4011 C   0  0  0  0  0  0  0  0  0  0  0  0
   31.0580   10.9588   60.7538 O   0  0  0  0  0  0  0  0  0  0  0  0
   29.2333   12.3488   60.4358 N   0  0  0  0  0  0  0  0  0  0  0  0
   28.1937   12.2309   59.9842 H   0  0  0  0  0  0  0  0  0  0  0  0
   29.3899   13.6711   60.8213 C   0  0  0  0  0  0  0  0  0  0  0  0
   30.5861   14.3029   61.4914 C   0  0  0  0  0  0  0  0  0  0  0  0
   30.2950   14.5884   60.0523 C   0  0  0  0  0  0  0  0  0  0  0  0
   28.0918   14.3317   61.2120 C   0  0  0  0  0  0  0  0  0  0  0  0
   27.0855   14.8352   61.4860 N   0  0  0  0  0  0  0  0  0  0  0  0
   30.0673    8.8259   59.5516 C   0  0  0  0  0  0  0  0  0  0  0  0
   29.2816    6.5491   59.5454 C   0  0  0  0  0  0  0  0  0  0  0  0
   29.9074    7.5870   60.4679 C   0  0  0  0  0  0  0  0  0  0  0  0
   28.8571    7.9101   61.5163 C   0  0  0  0  0  0  0  0  0  0  0  0
   31.0641    7.1010   60.9524 F   0  0  0  0  0  0  0  0  0  0  0  0
 35 36  1  0  0  0
 36 37  1  0  0  0
 36 38  1  0  0  0
 36 34  1  0  0  0
 34 24  1  0  0  0
 24 22  1  0  0  0
 22  1  1  0  0  0
  1  2  1  0  0  0
  2  3  2  0  0  0
  3  4  1  0  0  0
  4  5  2  0  0  0
  5  6  1  0  0  0
  6  7  2  0  0  0
  5  8  1  0  0  0
  8  9  2  0  0  0
  9 10  1  0  0  0
 10 11  2  0  0  0
 11 12  1  0  0  0
 12 13  2  0  0  0
 11 14  1  0  0  0
 14 15  1  0  0  0
 14 16  2  0  0  0
 14 17  2  0  0  0
  1 18  1  0  0  0
 18 19  1  0  0  0
 18 20  1  0  0  0
 18 21  1  0  0  0
 24 25  1  0  0  0
 25 26  2  0  0  0
 25 27  1  0  0  0
 27 29  1  0  0  0
 29 30  1  0  0  0
 30 31  1  0  0  0
 29 32  1  0  0  0
 32 33  3  0  0  0
  7  2  1  0  0  0
 13  8  1  0  0  0
 31 29  1  0  0  0
 22 23  1  0  0  0
 27 28  1  0  0  0
M  END
> <minimizedAffinity>
21.49833

> <CNNscore>
0.3339003921

> <CNNaffinity>
5.9779000282

> <CNN_VS>
1.9960231781

> <CNNaffinity_variance>
0.6434053183

$$$$
[H]c1nc(-c2c([H])c([H])c3nc(N([H])C(=O)c4c([H])c(OC([H])([H])[H])c([H])c([H])c4F)n([H])c3c2[H])c([H])c([H])c1[H]


 29 32  0  0  0  0  0  0  0  0999 V2000
   20.9015    6.3674   53.7152 C   0  0  0  0  0  0  0  0  0  0  0  0
   21.3007    7.2353   52.7330 N   0  0  0  0  0  0  0  0  0  0  0  0
   22.5379    7.6780   53.0021 C   0  0  0  0  0  0  0  0  0  0  0  0
   23.4133    8.5375   52.3872 C   0  0  0  0  0  0  0  0  0  0  0  0
   24.6738    8.8191   52.9112 C   0  0  0  0  0  0  0  0  0  0  0  0
   25.0595    8.2216   54.0792 C   0  0  0  0  0  0  0  0  0  0  0  0
   24.1635    7.3501   54.6966 C   0  0  0  0  0  0  0  0  0  0  0  0
   22.9182    7.0722   54.1784 C   0  0  0  0  0  0  0  0  0  0  0  0
   21.8865    6.2724   54.5889 N   0  0  0  0  0  0  0  0  0  0  0  0
   21.9576    5.7201   55.4560 H   0  0  0  0  0  0  0  0  0  0  0  0
   26.3766    8.4728   54.6901 C   0  0  0  0  0  0  0  0  0  0  0  0
   27.5490    8.1417   54.0751 C   0  0  0  0  0  0  0  0  0  0  0  0
   28.7599    8.3955   54.6846 C   0  0  0  0  0  0  0  0  0  0  0  0
   28.7971    8.9839   55.9162 C   0  0  0  0  0  0  0  0  0  0  0  0
   27.6010    9.3042   56.5070 C   0  0  0  0  0  0  0  0  0  0  0  0
   26.4376    9.0546   55.9095 N   0  0  0  0  0  0  0  0  0  0  0  0
   19.4277    4.3436   53.5829 C   0  0  0  0  0  0  0  0  0  0  0  0
   20.4441    3.5621   53.4256 O   0  0  0  0  0  0  0  0  0  0  0  0
   19.6380    5.7197   53.7283 N   0  0  0  0  0  0  0  0  0  0  0  0
   18.7817    6.3467   53.8610 H   0  0  0  0  0  0  0  0  0  0  0  0
   16.0709    3.3258   54.7845 C   0  0  0  0  0  0  0  0  0  0  0  0
   15.5902    2.5361   53.7722 C   0  0  0  0  0  0  0  0  0  0  0  0
   16.3653    2.3066   52.6687 C   0  0  0  0  0  0  0  0  0  0  0  0
   17.6257    2.8899   52.6153 C   0  0  0  0  0  0  0  0  0  0  0  0
   18.3411    2.5930   51.5064 F   0  0  0  0  0  0  0  0  0  0  0  0
   18.1496    3.6832   53.5937 C   0  0  0  0  0  0  0  0  0  0  0  0
   17.3196    3.8893   54.7043 C   0  0  0  0  0  0  0  0  0  0  0  0
   15.7475    3.3240   57.1996 C   0  0  0  0  0  0  0  0  0  0  0  0
   15.2399    3.5324   55.8967 O   0  0  0  0  0  0  0  0  0  0  0  0
 28 29  1  0  0  0
 29 21  1  0  0  0
 21 22  2  0  0  0
 22 23  1  0  0  0
 23 24  2  0  0  0
 24 25  1  0  0  0
 24 26  1  0  0  0
 26 27  2  0  0  0
 26 17  1  0  0  0
 17 18  2  0  0  0
 17 19  1  0  0  0
 19  1  1  0  0  0
  1  2  2  0  0  0
  2  3  1  0  0  0
  3  4  2  0  0  0
  4  5  1  0  0  0
  5  6  2  0  0  0
  6  7  1  0  0  0
  7  8  2  0  0  0
  8  9  1  0  0  0
  6 11  1  0  0  0
 11 12  2  0  0  0
 12 13  1  0  0  0
 13 14  2  0  0  0
 14 15  1  0  0  0
 15 16  2  0  0  0
 27 21  1  0  0  0
  9  1  1  0  0  0
 16 11  1  0  0  0
  8  3  1  0  0  0
 19 20  1  0  0  0
  9 10  1  0  0  0
M  END
> <minimizedAffinity>
24.18105

> <CNNscore>
0.5446942449

> <CNNaffinity>
6.2607984543

> <CNN_VS>
3.4102208614

> <CNNaffinity_variance>
0.3450460732

$$$$
[H]c1nc(-c2c([H])c([H])c3nc(N([H])C(=O)c4c([H])c(OC([H])([H])[H])c([H])c([H])c4F)n([H])c3c2[H])c([H])c([H])c1[H]


 29 32  0  0  0  0  0  0  0  0999 V2000
   21.2559    6.4690   53.6920 C   0  0  0  0  0  0  0  0  0  0  0  0
   21.1256    7.7043   54.2703 N   0  0  0  0  0  0  0  0  0  0  0  0
   22.3401    8.1906   54.5665 C   0  0  0  0  0  0  0  0  0  0  0  0
   22.8059    9.3471   55.1399 C   0  0  0  0  0  0  0  0  0  0  0  0
   24.1653    9.5905   55.3289 C   0  0  0  0  0  0  0  0  0  0  0  0
   25.0733    8.6484   54.9317 C   0  0  0  0  0  0  0  0  0  0  0  0
   24.5907    7.4768   54.3504 C   0  0  0  0  0  0  0  0  0  0  0  0
   23.2475    7.2368   54.1638 C   0  0  0  0  0  0  0  0  0  0  0  0
   22.5449    6.1909   53.6301 N   0  0  0  0  0  0  0  0  0  0  0  0
   23.0306    5.3597   53.2625 H   0  0  0  0  0  0  0  0  0  0  0  0
   26.5247    8.8388   55.1006 C   0  0  0  0  0  0  0  0  0  0  0  0
   27.4299    8.4907   54.1406 C   0  0  0  0  0  0  0  0  0  0  0  0
   28.7802    8.6872   54.3418 C   0  0  0  0  0  0  0  0  0  0  0  0
   29.2263    9.2350   55.5102 C   0  0  0  0  0  0  0  0  0  0  0  0
   28.2905    9.5738   56.4546 C   0  0  0  0  0  0  0  0  0  0  0  0
   26.9892    9.3797   56.2499 N   0  0  0  0  0  0  0  0  0  0  0  0
   19.8496    4.3937   53.7123 C   0  0  0  0  0  0  0  0  0  0  0  0
   20.6042    3.8407   54.6031 O   0  0  0  0  0  0  0  0  0  0  0  0
   20.1563    5.6819   53.2591 N   0  0  0  0  0  0  0  0  0  0  0  0
   19.5152    6.1209   52.5242 H   0  0  0  0  0  0  0  0  0  0  0  0
   16.3479    3.2169   53.3943 C   0  0  0  0  0  0  0  0  0  0  0  0
   16.4327    2.1875   52.4929 C   0  0  0  0  0  0  0  0  0  0  0  0
   17.6504    1.8439   51.9730 C   0  0  0  0  0  0  0  0  0  0  0  0
   18.7685    2.5601   52.3834 C   0  0  0  0  0  0  0  0  0  0  0  0
   19.9377    2.1423   51.8465 F   0  0  0  0  0  0  0  0  0  0  0  0
   18.7379    3.5917   53.2755 C   0  0  0  0  0  0  0  0  0  0  0  0
   17.4691    3.9070   53.7811 C   0  0  0  0  0  0  0  0  0  0  0  0
   14.9425    4.5557   54.8673 C   0  0  0  0  0  0  0  0  0  0  0  0
   15.0775    3.5329   53.9008 O   0  0  0  0  0  0  0  0  0  0  0  0
 28 29  1  0  0  0
 29 21  1  0  0  0
 21 22  2  0  0  0
 22 23  1  0  0  0
 23 24  2  0  0  0
 24 25  1  0  0  0
 24 26  1  0  0  0
 26 27  2  0  0  0
 26 17  1  0  0  0
 17 18  2  0  0  0
 17 19  1  0  0  0
 19  1  1  0  0  0
  1  2  2  0  0  0
  2  3  1  0  0  0
  3  4  2  0  0  0
  4  5  1  0  0  0
  5  6  2  0  0  0
  6  7  1  0  0  0
  7  8  2  0  0  0
  8  9  1  0  0  0
  6 11  1  0  0  0
 11 12  2  0  0  0
 12 13  1  0  0  0
 13 14  2  0  0  0
 14 15  1  0  0  0
 15 16  2  0  0  0
 27 21  1  0  0  0
  9  1  1  0  0  0
 16 11  1  0  0  0
  8  3  1  0  0  0
 19 20  1  0  0  0
  9 10  1  0  0  0
M  END
> <minimizedAffinity>
28.42771

> <CNNscore>
0.5410206914

> <CNNaffinity>
6.3796892166

> <CNN_VS>
3.4515438080

> <CNNaffinity_variance>
0.2491480410

$$$$
[H]c1nc(-c2c([H])c([H])c3nc(N([H])C(=O)c4c([H])c(OC([H])([H])[H])c([H])c([H])c4F)n([H])c3c2[H])c([H])c([H])c1[H]


 29 32  0  0  0  0  0  0  0  0999 V2000
   23.4550    7.0220   54.0451 C   0  0  0  0  0  0  0  0  0  0  0  0
   22.5509    7.8565   53.4420 N   0  0  0  0  0  0  0  0  0  0  0  0
   21.3684    7.2325   53.3337 C   0  0  0  0  0  0  0  0  0  0  0  0
   20.1381    7.5715   52.8290 C   0  0  0  0  0  0  0  0  0  0  0  0
   19.0555    6.6939   52.8514 C   0  0  0  0  0  0  0  0  0  0  0  0
   19.2169    5.4490   53.3939 C   0  0  0  0  0  0  0  0  0  0  0  0
   20.4702    5.1138   53.9040 C   0  0  0  0  0  0  0  0  0  0  0  0
   21.5395    5.9813   53.8816 C   0  0  0  0  0  0  0  0  0  0  0  0
   22.8359    5.8863   54.3094 N   0  0  0  0  0  0  0  0  0  0  0  0
   23.1843    5.0254   54.7558 H   0  0  0  0  0  0  0  0  0  0  0  0
   18.1166    4.4706   53.4511 C   0  0  0  0  0  0  0  0  0  0  0  0
   18.2193    3.2151   52.9262 C   0  0  0  0  0  0  0  0  0  0  0  0
   17.1631    2.3315   53.0026 C   0  0  0  0  0  0  0  0  0  0  0  0
   15.9980    2.7070   53.6075 C   0  0  0  0  0  0  0  0  0  0  0  0
   15.9274    3.9757   54.1248 C   0  0  0  0  0  0  0  0  0  0  0  0
   16.9533    4.8207   54.0456 N   0  0  0  0  0  0  0  0  0  0  0  0
   25.2203    8.5083   55.0246 C   0  0  0  0  0  0  0  0  0  0  0  0
   24.3334    9.3148   55.5060 O   0  0  0  0  0  0  0  0  0  0  0  0
   24.8034    7.3801   54.3090 N   0  0  0  0  0  0  0  0  0  0  0  0
   25.5554    6.7247   53.9231 H   0  0  0  0  0  0  0  0  0  0  0  0
   28.1689    9.7074   56.9260 C   0  0  0  0  0  0  0  0  0  0  0  0
   29.2019    9.5844   56.0333 C   0  0  0  0  0  0  0  0  0  0  0  0
   28.9531    9.1134   54.7733 C   0  0  0  0  0  0  0  0  0  0  0  0
   27.6467    8.7735   54.4425 C   0  0  0  0  0  0  0  0  0  0  0  0
   27.4776    8.3432   53.1714 F   0  0  0  0  0  0  0  0  0  0  0  0
   26.5849    8.8762   55.2930 C   0  0  0  0  0  0  0  0  0  0  0  0
   26.8886    9.3636   56.5717 C   0  0  0  0  0  0  0  0  0  0  0  0
   28.7545    9.2887   59.2539 C   0  0  0  0  0  0  0  0  0  0  0  0
   28.4726   10.1954   58.2067 O   0  0  0  0  0  0  0  0  0  0  0  0
 28 29  1  0  0  0
 29 21  1  0  0  0
 21 22  2  0  0  0
 22 23  1  0  0  0
 23 24  2  0  0  0
 24 25  1  0  0  0
 24 26  1  0  0  0
 26 27  2  0  0  0
 26 17  1  0  0  0
 17 18  2  0  0  0
 17 19  1  0  0  0
 19  1  1  0  0  0
  1  2  2  0  0  0
  2  3  1  0  0  0
  3  4  2  0  0  0
  4  5  1  0  0  0
  5  6  2  0  0  0
  6  7  1  0  0  0
  7  8  2  0  0  0
  8  9  1  0  0  0
  6 11  1  0  0  0
 11 12  2  0  0  0
 12 13  1  0  0  0
 13 14  2  0  0  0
 14 15  1  0  0  0
 15 16  2  0  0  0
 27 21  1  0  0  0
  9  1  1  0  0  0
 16 11  1  0  0  0
  8  3  1  0  0  0
 19 20  1  0  0  0
  9 10  1  0  0  0
M  END
> <minimizedAffinity>
21.38788

> <CNNscore>
0.4552787840

> <CNNaffinity>
6.1178932190

> <CNN_VS>
2.7853469849

> <CNNaffinity_variance>
0.2472966015

$$$$
[H]c1nc(-c2c([H])c([H])c3nc(N([H])C(=O)c4c([H])c(OC([H])([H])[H])c([H])c([H])c4F)n([H])c3c2[H])c([H])c([H])c1[H]


 29 32  0  0  0  0  0  0  0  0999 V2000
   22.5252    5.5754   53.8333 C   0  0  0  0  0  0  0  0  0  0  0  0
   23.0660    6.3064   52.8083 N   0  0  0  0  0  0  0  0  0  0  0  0
   24.0643    7.0683   53.2796 C   0  0  0  0  0  0  0  0  0  0  0  0
   24.9354    7.9730   52.7263 C   0  0  0  0  0  0  0  0  0  0  0  0
   25.9013    8.6358   53.4815 C   0  0  0  0  0  0  0  0  0  0  0  0
   25.9907    8.3811   54.8221 C   0  0  0  0  0  0  0  0  0  0  0  0
   25.1017    7.4607   55.3752 C   0  0  0  0  0  0  0  0  0  0  0  0
   24.1474    6.8060   54.6285 C   0  0  0  0  0  0  0  0  0  0  0  0
   23.1851    5.8826   54.9346 N   0  0  0  0  0  0  0  0  0  0  0  0
   23.0683    5.5397   55.8993 H   0  0  0  0  0  0  0  0  0  0  0  0
   26.9872    9.0449   55.6810 C   0  0  0  0  0  0  0  0  0  0  0  0
   28.1524    9.5615   55.1936 C   0  0  0  0  0  0  0  0  0  0  0  0
   29.0569   10.1748   56.0349 C   0  0  0  0  0  0  0  0  0  0  0  0
   28.7934   10.2713   57.3712 C   0  0  0  0  0  0  0  0  0  0  0  0
   27.6134    9.7418   57.8290 C   0  0  0  0  0  0  0  0  0  0  0  0
   26.7472    9.1518   57.0077 N   0  0  0  0  0  0  0  0  0  0  0  0
   20.1046    5.0203   53.4905 C   0  0  0  0  0  0  0  0  0  0  0  0
   19.7788    6.2700   53.4627 O   0  0  0  0  0  0  0  0  0  0  0  0
   21.4469    4.6664   53.6691 N   0  0  0  0  0  0  0  0  0  0  0  0
   21.6934    3.6258   53.6851 H   0  0  0  0  0  0  0  0  0  0  0  0
   16.6442    3.6999   53.6628 C   0  0  0  0  0  0  0  0  0  0  0  0
   16.7307    2.4822   53.0391 C   0  0  0  0  0  0  0  0  0  0  0  0
   17.9367    2.0561   52.5542 C   0  0  0  0  0  0  0  0  0  0  0  0
   19.0415    2.8839   52.7143 C   0  0  0  0  0  0  0  0  0  0  0  0
   20.2014    2.3804   52.2339 F   0  0  0  0  0  0  0  0  0  0  0  0
   19.0086    4.1031   53.3256 C   0  0  0  0  0  0  0  0  0  0  0  0
   17.7521    4.4967   53.8064 C   0  0  0  0  0  0  0  0  0  0  0  0
   14.9426    5.4214   53.9428 C   0  0  0  0  0  0  0  0  0  0  0  0
   15.3861    4.0943   54.1444 O   0  0  0  0  0  0  0  0  0  0  0  0
 28 29  1  0  0  0
 29 21  1  0  0  0
 21 22  2  0  0  0
 22 23  1  0  0  0
 23 24  2  0  0  0
 24 25  1  0  0  0
 24 26  1  0  0  0
 26 27  2  0  0  0
 26 17  1  0  0  0
 17 18  2  0  0  0
 17 19  1  0  0  0
 19  1  1  0  0  0
  1  2  2  0  0  0
  2  3  1  0  0  0
  3  4  2  0  0  0
  4  5  1  0  0  0
  5  6  2  0  0  0
  6  7  1  0  0  0
  7  8  2  0  0  0
  8  9  1  0  0  0
  6 11  1  0  0  0
 11 12  2  0  0  0
 12 13  1  0  0  0
 13 14  2  0  0  0
 14 15  1  0  0  0
 15 16  2  0  0  0
 27 21  1  0  0  0
  9  1  1  0  0  0
 16 11  1  0  0  0
  8  3  1  0  0  0
 19 20  1  0  0  0
  9 10  1  0  0  0
M  END
> <minimizedAffinity>
30.50508

> <CNNscore>
0.4442583621

> <CNNaffinity>
5.9981575012

> <CNN_VS>
2.6647317410

> <CNNaffinity_variance>
0.2874611020

$$$$
[H]c1nc(-c2c([H])c([H])c3nc(N([H])C(=O)c4c([H])c(OC([H])([H])[H])c([H])c([H])c4F)n([H])c3c2[H])c([H])c([H])c1[H]


 29 32  0  0  0  0  0  0  0  0999 V2000
   23.4392    6.7609   53.8171 C   0  0  0  0  0  0  0  0  0  0  0  0
   22.5498    7.6848   53.3345 N   0  0  0  0  0  0  0  0  0  0  0  0
   21.3226    7.1449   53.2910 C   0  0  0  0  0  0  0  0  0  0  0  0
   20.0826    7.5903   52.9071 C   0  0  0  0  0  0  0  0  0  0  0  0
   18.9477    6.7838   52.9722 C   0  0  0  0  0  0  0  0  0  0  0  0
   19.0657    5.5020   53.4339 C   0  0  0  0  0  0  0  0  0  0  0  0
   20.3292    5.0586   53.8214 C   0  0  0  0  0  0  0  0  0  0  0  0
   21.4503    5.8558   53.7569 C   0  0  0  0  0  0  0  0  0  0  0  0
   22.7666    5.6538   54.0715 N   0  0  0  0  0  0  0  0  0  0  0  0
   23.0892    4.7481   54.4424 H   0  0  0  0  0  0  0  0  0  0  0  0
   17.9090    4.5942   53.5297 C   0  0  0  0  0  0  0  0  0  0  0  0
   17.9501    3.3006   53.0972 C   0  0  0  0  0  0  0  0  0  0  0  0
   16.8424    2.4861   53.2068 C   0  0  0  0  0  0  0  0  0  0  0  0
   15.6878    2.9694   53.7522 C   0  0  0  0  0  0  0  0  0  0  0  0
   15.6796    4.2738   54.1771 C   0  0  0  0  0  0  0  0  0  0  0  0
   16.7548    5.0514   54.0665 N   0  0  0  0  0  0  0  0  0  0  0  0
   25.3731    8.0683   54.7314 C   0  0  0  0  0  0  0  0  0  0  0  0
   24.5838    8.8962   55.3315 O   0  0  0  0  0  0  0  0  0  0  0  0
   24.8254    7.0164   53.9881 N   0  0  0  0  0  0  0  0  0  0  0  0
   25.4984    6.3413   53.5030 H   0  0  0  0  0  0  0  0  0  0  0  0
   29.0355    7.7747   54.2328 C   0  0  0  0  0  0  0  0  0  0  0  0
   29.5529    8.7416   55.0554 C   0  0  0  0  0  0  0  0  0  0  0  0
   28.7083    9.5106   55.8080 C   0  0  0  0  0  0  0  0  0  0  0  0
   27.3415    9.2795   55.7087 C   0  0  0  0  0  0  0  0  0  0  0  0
   26.5753   10.0605   56.5042 F   0  0  0  0  0  0  0  0  0  0  0  0
   26.7765    8.3321   54.9060 C   0  0  0  0  0  0  0  0  0  0  0  0
   27.6810    7.5690   54.1546 C   0  0  0  0  0  0  0  0  0  0  0  0
   29.4969    5.8356   52.8312 C   0  0  0  0  0  0  0  0  0  0  0  0
   29.9409    7.0104   53.4802 O   0  0  0  0  0  0  0  0  0  0  0  0
 28 29  1  0  0  0
 29 21  1  0  0  0
 21 22  2  0  0  0
 22 23  1  0  0  0
 23 24  2  0  0  0
 24 25  1  0  0  0
 24 26  1  0  0  0
 26 27  2  0  0  0
 26 17  1  0  0  0
 17 18  2  0  0  0
 17 19  1  0  0  0
 19  1  1  0  0  0
  1  2  2  0  0  0
  2  3  1  0  0  0
  3  4  2  0  0  0
  4  5  1  0  0  0
  5  6  2  0  0  0
  6  7  1  0  0  0
  7  8  2  0  0  0
  8  9  1  0  0  0
  6 11  1  0  0  0
 11 12  2  0  0  0
 12 13  1  0  0  0
 13 14  2  0  0  0
 14 15  1  0  0  0
 15 16  2  0  0  0
 27 21  1  0  0  0
  9  1  1  0  0  0
 16 11  1  0  0  0
  8  3  1  0  0  0
 19 20  1  0  0  0
  9 10  1  0  0  0
M  END
> <minimizedAffinity>
31.12905

> <CNNscore>
0.4225943685

> <CNNaffinity>
5.8912229538

> <CNN_VS>
2.4895975590

> <CNNaffinity_variance>
0.2431989163

$$$$
[H]c1nc(-c2c([H])c([H])c3nc(N([H])C(=O)c4c([H])c(OC([H])([H])[H])c([H])c([H])c4F)n([H])c3c2[H])c([H])c([H])c1[H]


 29 32  0  0  0  0  0  0  0  0999 V2000
   22.5467    7.4901   53.6447 C   0  0  0  0  0  0  0  0  0  0  0  0
   23.7496    6.8607   53.4595 N   0  0  0  0  0  0  0  0  0  0  0  0
   23.9706    6.0098   54.4727 C   0  0  0  0  0  0  0  0  0  0  0  0
   24.9795    5.1405   54.8037 C   0  0  0  0  0  0  0  0  0  0  0  0
   24.9402    4.3567   55.9556 C   0  0  0  0  0  0  0  0  0  0  0  0
   23.8615    4.4514   56.7906 C   0  0  0  0  0  0  0  0  0  0  0  0
   22.8416    5.3372   56.4461 C   0  0  0  0  0  0  0  0  0  0  0  0
   22.8809    6.1114   55.3079 C   0  0  0  0  0  0  0  0  0  0  0  0
   22.0246    7.0317   54.7672 N   0  0  0  0  0  0  0  0  0  0  0  0
   21.1358    7.2656   55.2333 H   0  0  0  0  0  0  0  0  0  0  0  0
   23.7534    3.6533   58.0246 C   0  0  0  0  0  0  0  0  0  0  0  0
   23.1091    2.4512   58.0702 C   0  0  0  0  0  0  0  0  0  0  0  0
   23.0324    1.7378   59.2481 C   0  0  0  0  0  0  0  0  0  0  0  0
   23.6036    2.2307   60.3861 C   0  0  0  0  0  0  0  0  0  0  0  0
   24.2436    3.4416   60.3064 C   0  0  0  0  0  0  0  0  0  0  0  0
   24.3117    4.1220   59.1638 N   0  0  0  0  0  0  0  0  0  0  0  0
   21.9881    9.8372   52.9632 C   0  0  0  0  0  0  0  0  0  0  0  0
   22.4813   10.3166   54.0567 O   0  0  0  0  0  0  0  0  0  0  0  0
   22.0160    8.4545   52.7479 N   0  0  0  0  0  0  0  0  0  0  0  0
   21.6053    8.0810   51.8337 H   0  0  0  0  0  0  0  0  0  0  0  0
   21.3691   13.1552   51.4286 C   0  0  0  0  0  0  0  0  0  0  0  0
   20.5577   12.8718   50.3606 C   0  0  0  0  0  0  0  0  0  0  0  0
   20.1813   11.5783   50.1230 C   0  0  0  0  0  0  0  0  0  0  0  0
   20.6414   10.5891   50.9839 C   0  0  0  0  0  0  0  0  0  0  0  0
   20.2032    9.3414   50.6993 F   0  0  0  0  0  0  0  0  0  0  0  0
   21.4500   10.8178   52.0586 C   0  0  0  0  0  0  0  0  0  0  0  0
   21.8087   12.1576   52.2620 C   0  0  0  0  0  0  0  0  0  0  0  0
   22.4697   15.1823   50.6432 C   0  0  0  0  0  0  0  0  0  0  0  0
   21.7284   14.4967   51.6326 O   0  0  0  0  0  0  0  0  0  0  0  0
 28 29  1  0  0  0
 29 21  1  0  0  0
 21 22  2  0  0  0
 22 23  1  0  0  0
 23 24  2  0  0  0
 24 25  1  0  0  0
 24 26  1  0  0  0
 26 27  2  0  0  0
 26 17  1  0  0  0
 17 18  2  0  0  0
 17 19  1  0  0  0
 19  1  1  0  0  0
  1  2  2  0  0  0
  2  3  1  0  0  0
  3  4  2  0  0  0
  4  5  1  0  0  0
  5  6  2  0  0  0
  6  7  1  0  0  0
  7  8  2  0  0  0
  8  9  1  0  0  0
  6 11  1  0  0  0
 11 12  2  0  0  0
 12 13  1  0  0  0
 13 14  2  0  0  0
 14 15  1  0  0  0
 15 16  2  0  0  0
 27 21  1  0  0  0
  9  1  1  0  0  0
 16 11  1  0  0  0
  8  3  1  0  0  0
 19 20  1  0  0  0
  9 10  1  0  0  0
M  END
> <minimizedAffinity>
52.82730

> <CNNscore>
0.4193287492

> <CNNaffinity>
5.4691286087

> <CNN_VS>
2.2933628559

> <CNNaffinity_variance>
0.5946727991

$$$$
[H]c1nc(-c2c([H])c([H])c3nc(N([H])C(=O)c4c([H])c(OC([H])([H])[H])c([H])c([H])c4F)n([H])c3c2[H])c([H])c([H])c1[H]


 29 32  0  0  0  0  0  0  0  0999 V2000
   21.0965    9.6824   51.3116 C   0  0  0  0  0  0  0  0  0  0  0  0
   20.6846    8.8529   52.3215 N   0  0  0  0  0  0  0  0  0  0  0  0
   21.6672    8.7261   53.2258 C   0  0  0  0  0  0  0  0  0  0  0  0
   21.8133    8.0422   54.4066 C   0  0  0  0  0  0  0  0  0  0  0  0
   22.9846    8.0973   55.1600 C   0  0  0  0  0  0  0  0  0  0  0  0
   24.0300    8.8575   54.7136 C   0  0  0  0  0  0  0  0  0  0  0  0
   23.8723    9.5485   53.5132 C   0  0  0  0  0  0  0  0  0  0  0  0
   22.7147    9.4938   52.7691 C   0  0  0  0  0  0  0  0  0  0  0  0
   22.3283   10.0679   51.5886 N   0  0  0  0  0  0  0  0  0  0  0  0
   22.9653   10.6889   51.0685 H   0  0  0  0  0  0  0  0  0  0  0  0
   25.2971    8.9619   55.4584 C   0  0  0  0  0  0  0  0  0  0  0  0
   26.4584    8.3955   55.0193 C   0  0  0  0  0  0  0  0  0  0  0  0
   27.6219    8.5187   55.7496 C   0  0  0  0  0  0  0  0  0  0  0  0
   27.6226    9.2125   56.9256 C   0  0  0  0  0  0  0  0  0  0  0  0
   26.4389    9.7695   57.3388 C   0  0  0  0  0  0  0  0  0  0  0  0
   25.3213    9.6444   56.6258 N   0  0  0  0  0  0  0  0  0  0  0  0
   20.2565   11.2753   49.5675 C   0  0  0  0  0  0  0  0  0  0  0  0
   21.0132   12.2242   50.0098 O   0  0  0  0  0  0  0  0  0  0  0  0
   20.2893   10.0245   50.1947 N   0  0  0  0  0  0  0  0  0  0  0  0
   19.6569    9.2532   49.8088 H   0  0  0  0  0  0  0  0  0  0  0  0
   17.9562   10.8367   46.6928 C   0  0  0  0  0  0  0  0  0  0  0  0
   17.7457   12.1162   46.2482 C   0  0  0  0  0  0  0  0  0  0  0  0
   18.3669   13.1603   46.8769 C   0  0  0  0  0  0  0  0  0  0  0  0
   19.1975   12.8805   47.9554 C   0  0  0  0  0  0  0  0  0  0  0  0
   19.7962   13.9618   48.5052 F   0  0  0  0  0  0  0  0  0  0  0  0
   19.4393   11.6272   48.4370 C   0  0  0  0  0  0  0  0  0  0  0  0
   18.7817   10.5902   47.7609 C   0  0  0  0  0  0  0  0  0  0  0  0
   18.0117    8.6318   45.6572 C   0  0  0  0  0  0  0  0  0  0  0  0
   17.2979    9.7980   46.0160 O   0  0  0  0  0  0  0  0  0  0  0  0
 28 29  1  0  0  0
 29 21  1  0  0  0
 21 22  2  0  0  0
 22 23  1  0  0  0
 23 24  2  0  0  0
 24 25  1  0  0  0
 24 26  1  0  0  0
 26 27  2  0  0  0
 26 17  1  0  0  0
 17 18  2  0  0  0
 17 19  1  0  0  0
 19  1  1  0  0  0
  1  2  2  0  0  0
  2  3  1  0  0  0
  3  4  2  0  0  0
  4  5  1  0  0  0
  5  6  2  0  0  0
  6  7  1  0  0  0
  7  8  2  0  0  0
  8  9  1  0  0  0
  6 11  1  0  0  0
 11 12  2  0  0  0
 12 13  1  0  0  0
 13 14  2  0  0  0
 14 15  1  0  0  0
 15 16  2  0  0  0
 27 21  1  0  0  0
  9  1  1  0  0  0
 16 11  1  0  0  0
  8  3  1  0  0  0
 19 20  1  0  0  0
  9 10  1  0  0  0
M  END
> <minimizedAffinity>
69.57010

> <CNNscore>
0.4178842008

> <CNNaffinity>
5.2959141731

> <CNN_VS>
2.2130789757

> <CNNaffinity_variance>
0.4696979523

$$$$
[H]c1nc(-c2c([H])c([H])c3nc(N([H])C(=O)c4c([H])c(OC([H])([H])[H])c([H])c([H])c4F)n([H])c3c2[H])c([H])c([H])c1[H]


 29 32  0  0  0  0  0  0  0  0999 V2000
   23.1274    7.0237   53.3914 C   0  0  0  0  0  0  0  0  0  0  0  0
   23.1392    5.6674   53.1963 N   0  0  0  0  0  0  0  0  0  0  0  0
   21.8895    5.1900   53.2938 C   0  0  0  0  0  0  0  0  0  0  0  0
   21.3180    3.9465   53.1922 C   0  0  0  0  0  0  0  0  0  0  0  0
   19.9479    3.7410   53.3444 C   0  0  0  0  0  0  0  0  0  0  0  0
   19.1375    4.8113   53.6045 C   0  0  0  0  0  0  0  0  0  0  0  0
   19.7271    6.0705   53.7060 C   0  0  0  0  0  0  0  0  0  0  0  0
   21.0809    6.2730   53.5555 C   0  0  0  0  0  0  0  0  0  0  0  0
   21.8765    7.3851   53.6087 N   0  0  0  0  0  0  0  0  0  0  0  0
   21.4741    8.3154   53.7947 H   0  0  0  0  0  0  0  0  0  0  0  0
   17.6812    4.6678   53.7769 C   0  0  0  0  0  0  0  0  0  0  0  0
   17.0716    3.4546   53.9137 C   0  0  0  0  0  0  0  0  0  0  0  0
   15.7044    3.3675   54.0730 C   0  0  0  0  0  0  0  0  0  0  0  0
   14.9436    4.5011   54.0953 C   0  0  0  0  0  0  0  0  0  0  0  0
   15.5871    5.7046   53.9552 C   0  0  0  0  0  0  0  0  0  0  0  0
   16.9078    5.7771   53.8020 N   0  0  0  0  0  0  0  0  0  0  0  0
   25.4607    7.6168   54.0910 C   0  0  0  0  0  0  0  0  0  0  0  0
   25.5268    6.5985   54.8831 O   0  0  0  0  0  0  0  0  0  0  0  0
   24.2919    7.8353   53.3527 N   0  0  0  0  0  0  0  0  0  0  0  0
   24.2615    8.6825   52.7007 H   0  0  0  0  0  0  0  0  0  0  0  0
   28.1815    9.7042   52.6813 C   0  0  0  0  0  0  0  0  0  0  0  0
   28.8886   10.1037   53.7857 C   0  0  0  0  0  0  0  0  0  0  0  0
   28.4950    9.6855   55.0272 C   0  0  0  0  0  0  0  0  0  0  0  0
   27.3797    8.8617   55.1226 C   0  0  0  0  0  0  0  0  0  0  0  0
   27.0712    8.4687   56.3796 F   0  0  0  0  0  0  0  0  0  0  0  0
   26.6420    8.4371   54.0565 C   0  0  0  0  0  0  0  0  0  0  0  0
   27.0835    8.8905   52.8057 C   0  0  0  0  0  0  0  0  0  0  0  0
   27.9623    9.7303   50.2547 C   0  0  0  0  0  0  0  0  0  0  0  0
   28.6234   10.1581   51.4287 O   0  0  0  0  0  0  0  0  0  0  0  0
 28 29  1  0  0  0
 29 21  1  0  0  0
 21 22  2  0  0  0
 22 23  1  0  0  0
 23 24  2  0  0  0
 24 25  1  0  0  0
 24 26  1  0  0  0
 26 27  2  0  0  0
 26 17  1  0  0  0
 17 18  2  0  0  0
 17 19  1  0  0  0
 19  1  1  0  0  0
  1  2  2  0  0  0
  2  3  1  0  0  0
  3  4  2  0  0  0
  4  5  1  0  0  0
  5  6  2  0  0  0
  6  7  1  0  0  0
  7  8  2  0  0  0
  8  9  1  0  0  0
  6 11  1  0  0  0
 11 12  2  0  0  0
 12 13  1  0  0  0
 13 14  2  0  0  0
 14 15  1  0  0  0
 15 16  2  0  0  0
 27 21  1  0  0  0
  9  1  1  0  0  0
 16 11  1  0  0  0
  8  3  1  0  0  0
 19 20  1  0  0  0
  9 10  1  0  0  0
M  END
> <minimizedAffinity>
37.86987

> <CNNscore>
0.4093308747

> <CNNaffinity>
5.9619436264

> <CNN_VS>
2.4404075146

> <CNNaffinity_variance>
0.7388375401

$$$$
[H]c1nc(-c2c([H])c([H])c3nc(N([H])C(=O)c4c([H])c(OC([H])([H])[H])c([H])c([H])c4F)n([H])c3c2[H])c([H])c([H])c1[H]


 29 32  0  0  0  0  0  0  0  0999 V2000
   25.6035    8.5158   55.4522 C   0  0  0  0  0  0  0  0  0  0  0  0
   25.2113    8.9481   54.2125 N   0  0  0  0  0  0  0  0  0  0  0  0
   24.1450    8.2416   53.8084 C   0  0  0  0  0  0  0  0  0  0  0  0
   23.3544    8.2392   52.6868 C   0  0  0  0  0  0  0  0  0  0  0  0
   22.2793    7.3652   52.5343 C   0  0  0  0  0  0  0  0  0  0  0  0
   21.9958    6.4756   53.5334 C   0  0  0  0  0  0  0  0  0  0  0  0
   22.8045    6.4855   54.6689 C   0  0  0  0  0  0  0  0  0  0  0  0
   23.8666    7.3492   54.8190 C   0  0  0  0  0  0  0  0  0  0  0  0
   24.7843    7.5462   55.8148 N   0  0  0  0  0  0  0  0  0  0  0  0
   24.7614    6.9798   56.6753 H   0  0  0  0  0  0  0  0  0  0  0  0
   20.8752    5.5233   53.4399 C   0  0  0  0  0  0  0  0  0  0  0  0
   21.0608    4.1813   53.2763 C   0  0  0  0  0  0  0  0  0  0  0  0
   19.9818    3.3263   53.1936 C   0  0  0  0  0  0  0  0  0  0  0  0
   18.7104    3.8176   53.2751 C   0  0  0  0  0  0  0  0  0  0  0  0
   18.5584    5.1711   53.4395 C   0  0  0  0  0  0  0  0  0  0  0  0
   19.6073    5.9876   53.5181 N   0  0  0  0  0  0  0  0  0  0  0  0
   26.7350    9.3253   57.5377 C   0  0  0  0  0  0  0  0  0  0  0  0
   25.6930    9.0636   58.2548 O   0  0  0  0  0  0  0  0  0  0  0  0
   26.7053    9.0595   56.1639 N   0  0  0  0  0  0  0  0  0  0  0  0
   27.5810    9.2808   55.5911 H   0  0  0  0  0  0  0  0  0  0  0  0
   28.9358   11.8851   59.0712 C   0  0  0  0  0  0  0  0  0  0  0  0
   29.9076   11.1456   59.6942 C   0  0  0  0  0  0  0  0  0  0  0  0
   29.8715    9.7804   59.6159 C   0  0  0  0  0  0  0  0  0  0  0  0
   28.8385    9.1881   58.8991 C   0  0  0  0  0  0  0  0  0  0  0  0
   28.8881    7.8375   58.8446 F   0  0  0  0  0  0  0  0  0  0  0  0
   27.8481    9.8776   58.2627 C   0  0  0  0  0  0  0  0  0  0  0  0
   27.9272   11.2729   58.3705 C   0  0  0  0  0  0  0  0  0  0  0  0
   28.6506   13.9140   60.3900 C   0  0  0  0  0  0  0  0  0  0  0  0
   29.0147   13.2824   59.1789 O   0  0  0  0  0  0  0  0  0  0  0  0
 28 29  1  0  0  0
 29 21  1  0  0  0
 21 22  2  0  0  0
 22 23  1  0  0  0
 23 24  2  0  0  0
 24 25  1  0  0  0
 24 26  1  0  0  0
 26 27  2  0  0  0
 26 17  1  0  0  0
 17 18  2  0  0  0
 17 19  1  0  0  0
 19  1  1  0  0  0
  1  2  2  0  0  0
  2  3  1  0  0  0
  3  4  2  0  0  0
  4  5  1  0  0  0
  5  6  2  0  0  0
  6  7  1  0  0  0
  7  8  2  0  0  0
  8  9  1  0  0  0
  6 11  1  0  0  0
 11 12  2  0  0  0
 12 13  1  0  0  0
 13 14  2  0  0  0
 14 15  1  0  0  0
 15 16  2  0  0  0
 27 21  1  0  0  0
  9  1  1  0  0  0
 16 11  1  0  0  0
  8  3  1  0  0  0
 19 20  1  0  0  0
  9 10  1  0  0  0
M  END
> <minimizedAffinity>
27.09572

> <CNNscore>
0.4048850536

> <CNNaffinity>
5.5341930389

> <CNN_VS>
2.2407119274

> <CNNaffinity_variance>
0.1822057813

$$$$
[H]O[C@]1([H])[C@@]([H])(C([H])([H])OS(=O)(=O)N([H])C(=O)[C@@]([H])(N([H])[H])C([H])(C([H])([H])[H])C([H])([H])C([H])([H])[H])O[C@@]([H])(n2c([H])nc3c(N([H])[H])nc([H])nc32)[C@]1([H])O[H]


 38 40  0  0  0  0  0  0  0  0999 V2000
   24.5787    7.5658   54.7890 C   0  0  0  0  0  0  0  0  0  0  0  0
   24.2080    8.3088   53.6550 O   0  0  0  0  0  0  0  0  0  0  0  0
   22.8256    8.0049   53.6710 C   0  0  0  0  0  0  0  0  0  0  0  0
   22.8260    6.5190   53.6155 C   0  0  0  0  0  0  0  0  0  0  0  0
   21.6977    5.9598   54.2390 O   0  0  0  0  0  0  0  0  0  0  0  0
   24.0360    6.1660   54.4976 C   0  0  0  0  0  0  0  0  0  0  0  0
   23.5907    5.6530   55.7212 O   0  0  0  0  0  0  0  0  0  0  0  0
   21.5745    5.0590   53.8249 H   0  0  0  0  0  0  0  0  0  0  0  0
   23.1468    6.4040   56.1866 H   0  0  0  0  0  0  0  0  0  0  0  0
   22.0718    8.6742   52.6770 N   0  0  0  0  0  0  0  0  0  0  0  0
   21.3487    8.0389   51.7350 C   0  0  0  0  0  0  0  0  0  0  0  0
   20.7527    8.9212   50.9270 N   0  0  0  0  0  0  0  0  0  0  0  0
   21.0906   10.1508   51.3460 C   0  0  0  0  0  0  0  0  0  0  0  0
   20.7621   11.4115   50.8773 C   0  0  0  0  0  0  0  0  0  0  0  0
   19.9280   11.5768   49.7557 N   0  0  0  0  0  0  0  0  0  0  0  0
   21.2807   12.4642   51.5329 N   0  0  0  0  0  0  0  0  0  0  0  0
   22.0861   12.2674   52.6032 C   0  0  0  0  0  0  0  0  0  0  0  0
   22.4068   11.0565   53.0608 N   0  0  0  0  0  0  0  0  0  0  0  0
   21.9032    9.9804   52.4249 C   0  0  0  0  0  0  0  0  0  0  0  0
   18.9377   11.2632   49.8180 H   0  0  0  0  0  0  0  0  0  0  0  0
   20.2355   11.9966   48.8508 H   0  0  0  0  0  0  0  0  0  0  0  0
   26.0197    7.5934   55.1287 C   0  0  0  0  0  0  0  0  0  0  0  0
   26.3178    8.8233   55.7044 O   0  0  0  0  0  0  0  0  0  0  0  0
   27.9651    9.1678   55.4409 S   0  0  0  0  0  0  0  0  0  0  0  0
   28.7660    7.9246   55.5800 O   0  0  0  0  0  0  0  0  0  0  0  0
   28.1317    9.6587   54.0005 O   0  0  0  0  0  0  0  0  0  0  0  0
   28.4407   10.1675   57.9152 C   0  0  0  0  0  0  0  0  0  0  0  0
   28.0964    9.0391   58.3386 O   0  0  0  0  0  0  0  0  0  0  0  0
   28.4322   10.4137   56.5312 N   0  0  0  0  0  0  0  0  0  0  0  0
   28.7064   11.3337   56.1583 H   0  0  0  0  0  0  0  0  0  0  0  0
   28.8479   11.2015   58.8589 C   0  0  0  0  0  0  0  0  0  0  0  0
   27.9705   12.3208   58.9552 N   0  0  0  0  0  0  0  0  0  0  0  0
   26.9799   12.0801   59.0742 H   0  0  0  0  0  0  0  0  0  0  0  0
   28.3230   13.1155   59.4949 H   0  0  0  0  0  0  0  0  0  0  0  0
   29.3755   10.6491   60.1334 C   0  0  0  0  0  0  0  0  0  0  0  0
   28.4538   10.9118   61.3145 C   0  0  0  0  0  0  0  0  0  0  0  0
   30.1929    8.6906   61.4649 C   0  0  0  0  0  0  0  0  0  0  0  0
   29.9001    9.2582   60.1020 C   0  0  0  0  0  0  0  0  0  0  0  0
 37 38  1  0  0  0
 38 35  1  0  0  0
 35 36  1  0  0  0
 35 31  1  0  0  0
 31 32  1  0  0  0
 31 27  1  0  0  0
 27 28  2  0  0  0
 27 29  1  0  0  0
 29 24  1  0  0  0
 24 25  2  0  0  0
 24 26  2  0  0  0
 24 23  1  0  0  0
 23 22  1  0  0  0
 22  1  1  0  0  0
  1  2  1  0  0  0
  2  3  1  0  0  0
  3  4  1  0  0  0
  4  5  1  0  0  0
  4  6  1  0  0  0
  6  7  1  0  0  0
  3 10  1  0  0  0
 10 11  1  0  0  0
 11 12  2  0  0  0
 12 13  1  0  0  0
 13 14  2  0  0  0
 14 15  1  0  0  0
 14 16  1  0  0  0
 16 17  2  0  0  0
 17 18  1  0  0  0
 18 19  2  0  0  0
  6  1  1  0  0  0
 19 10  1  0  0  0
 19 13  1  0  0  0
 32 33  1  0  0  0
 32 34  1  0  0  0
 29 30  1  0  0  0
  5  8  1  0  0  0
  7  9  1  0  0  0
 15 20  1  0  0  0
 15 21  1  0  0  0
M  END
> <minimizedAffinity>
10.04549

> <CNNscore>
0.6216196418

> <CNNaffinity>
6.3602514267

> <CNN_VS>
3.9536571503

> <CNNaffinity_variance>
0.5443761349

$$$$
[H]O[C@]1([H])[C@@]([H])(C([H])([H])OS(=O)(=O)N([H])C(=O)[C@@]([H])(N([H])[H])C([H])(C([H])([H])[H])C([H])([H])C([H])([H])[H])O[C@@]([H])(n2c([H])nc3c(N([H])[H])nc([H])nc32)[C@]1([H])O[H]


 38 40  0  0  0  0  0  0  0  0999 V2000
   24.6463    7.7770   54.8106 C   0  0  0  0  0  0  0  0  0  0  0  0
   24.2410    8.5239   53.6910 O   0  0  0  0  0  0  0  0  0  0  0  0
   22.8914    8.0983   53.6558 C   0  0  0  0  0  0  0  0  0  0  0  0
   23.0264    6.6212   53.5518 C   0  0  0  0  0  0  0  0  0  0  0  0
   21.9364    5.9426   54.1227 O   0  0  0  0  0  0  0  0  0  0  0  0
   24.2391    6.3458   54.4575 C   0  0  0  0  0  0  0  0  0  0  0  0
   23.8089    5.7525   55.6498 O   0  0  0  0  0  0  0  0  0  0  0  0
   21.9056    5.0495   53.6759 H   0  0  0  0  0  0  0  0  0  0  0  0
   23.2873    6.4444   56.1261 H   0  0  0  0  0  0  0  0  0  0  0  0
   22.1076    8.7328   52.6623 N   0  0  0  0  0  0  0  0  0  0  0  0
   21.3853    8.0649   51.7426 C   0  0  0  0  0  0  0  0  0  0  0  0
   20.7570    8.9191   50.9288 N   0  0  0  0  0  0  0  0  0  0  0  0
   21.0727   10.1633   51.3215 C   0  0  0  0  0  0  0  0  0  0  0  0
   20.7082   11.4078   50.8366 C   0  0  0  0  0  0  0  0  0  0  0  0
   19.8538   11.5344   49.7252 N   0  0  0  0  0  0  0  0  0  0  0  0
   21.2121   12.4833   51.4660 N   0  0  0  0  0  0  0  0  0  0  0  0
   22.0379   12.3236   52.5270 C   0  0  0  0  0  0  0  0  0  0  0  0
   22.3932   11.1284   53.0002 N   0  0  0  0  0  0  0  0  0  0  0  0
   21.9052   10.0302   52.3906 C   0  0  0  0  0  0  0  0  0  0  0  0
   18.8721   11.1995   49.8081 H   0  0  0  0  0  0  0  0  0  0  0  0
   20.1379   11.9454   48.8087 H   0  0  0  0  0  0  0  0  0  0  0  0
   26.0694    7.9202   55.1938 C   0  0  0  0  0  0  0  0  0  0  0  0
   26.1755    8.9315   56.1421 O   0  0  0  0  0  0  0  0  0  0  0  0
   27.8236    9.2895   56.3806 S   0  0  0  0  0  0  0  0  0  0  0  0
   28.6387    8.6218   55.3335 O   0  0  0  0  0  0  0  0  0  0  0  0
   28.0189   10.7991   56.2168 O   0  0  0  0  0  0  0  0  0  0  0  0
   28.6575    9.7985   58.9091 C   0  0  0  0  0  0  0  0  0  0  0  0
   28.7210   10.9978   58.5501 O   0  0  0  0  0  0  0  0  0  0  0  0
   28.2456    8.8252   57.9823 N   0  0  0  0  0  0  0  0  0  0  0  0
   28.1893    7.8325   58.2511 H   0  0  0  0  0  0  0  0  0  0  0  0
   29.0051    9.4329   60.2770 C   0  0  0  0  0  0  0  0  0  0  0  0
   29.5676    8.1331   60.4380 N   0  0  0  0  0  0  0  0  0  0  0  0
   30.3329    7.9139   59.7902 H   0  0  0  0  0  0  0  0  0  0  0  0
   29.6704    7.8108   61.4038 H   0  0  0  0  0  0  0  0  0  0  0  0
   29.6480   10.5417   61.0288 C   0  0  0  0  0  0  0  0  0  0  0  0
   31.0640   10.8303   60.5546 C   0  0  0  0  0  0  0  0  0  0  0  0
   29.6487   13.0423   61.1818 C   0  0  0  0  0  0  0  0  0  0  0  0
   28.8417   11.7731   61.2389 C   0  0  0  0  0  0  0  0  0  0  0  0
 37 38  1  0  0  0
 38 35  1  0  0  0
 35 36  1  0  0  0
 35 31  1  0  0  0
 31 32  1  0  0  0
 31 27  1  0  0  0
 27 28  2  0  0  0
 27 29  1  0  0  0
 29 24  1  0  0  0
 24 25  2  0  0  0
 24 26  2  0  0  0
 24 23  1  0  0  0
 23 22  1  0  0  0
 22  1  1  0  0  0
  1  2  1  0  0  0
  2  3  1  0  0  0
  3  4  1  0  0  0
  4  5  1  0  0  0
  4  6  1  0  0  0
  6  7  1  0  0  0
  3 10  1  0  0  0
 10 11  1  0  0  0
 11 12  2  0  0  0
 12 13  1  0  0  0
 13 14  2  0  0  0
 14 15  1  0  0  0
 14 16  1  0  0  0
 16 17  2  0  0  0
 17 18  1  0  0  0
 18 19  2  0  0  0
  6  1  1  0  0  0
 19 10  1  0  0  0
 19 13  1  0  0  0
 32 33  1  0  0  0
 32 34  1  0  0  0
 29 30  1  0  0  0
  5  8  1  0  0  0
  7  9  1  0  0  0
 15 20  1  0  0  0
 15 21  1  0  0  0
M  END
> <minimizedAffinity>
7.91284

> <CNNscore>
0.6086251736

> <CNNaffinity>
6.2093734741

> <CNN_VS>
3.7791810036

> <CNNaffinity_variance>
0.3390818238

$$$$
[H]O[C@]1([H])[C@@]([H])(C([H])([H])OS(=O)(=O)N([H])C(=O)[C@@]([H])(N([H])[H])C([H])(C([H])([H])[H])C([H])([H])C([H])([H])[H])O[C@@]([H])(n2c([H])nc3c(N([H])[H])nc([H])nc32)[C@]1([H])O[H]


 38 40  0  0  0  0  0  0  0  0999 V2000
   27.1662    9.0135   55.9798 C   0  0  0  0  0  0  0  0  0  0  0  0
   25.8405    9.4674   55.8696 O   0  0  0  0  0  0  0  0  0  0  0  0
   25.3248    8.3741   55.1333 C   0  0  0  0  0  0  0  0  0  0  0  0
   26.2036    8.3553   53.9341 C   0  0  0  0  0  0  0  0  0  0  0  0
   26.3389    7.0670   53.3897 O   0  0  0  0  0  0  0  0  0  0  0  0
   27.5713    8.7253   54.5336 C   0  0  0  0  0  0  0  0  0  0  0  0
   28.3892    7.5902   54.5717 O   0  0  0  0  0  0  0  0  0  0  0  0
   26.5805    7.1997   52.4293 H   0  0  0  0  0  0  0  0  0  0  0  0
   27.9783    6.9799   55.2323 H   0  0  0  0  0  0  0  0  0  0  0  0
   23.9310    8.4400   54.8943 N   0  0  0  0  0  0  0  0  0  0  0  0
   23.1675    9.5006   55.2200 C   0  0  0  0  0  0  0  0  0  0  0  0
   21.8916    9.2795   54.8887 N   0  0  0  0  0  0  0  0  0  0  0  0
   21.8192    8.0572   54.3386 C   0  0  0  0  0  0  0  0  0  0  0  0
   20.7551    7.3328   53.8289 C   0  0  0  0  0  0  0  0  0  0  0  0
   19.4495    7.8585   53.8300 N   0  0  0  0  0  0  0  0  0  0  0  0
   21.0228    6.1079   53.3443 N   0  0  0  0  0  0  0  0  0  0  0  0
   22.2897    5.6311   53.3670 C   0  0  0  0  0  0  0  0  0  0  0  0
   23.3198    6.3228   53.8558 N   0  0  0  0  0  0  0  0  0  0  0  0
   23.0843    7.5542   54.3496 C   0  0  0  0  0  0  0  0  0  0  0  0
   19.2480    8.6990   53.2506 H   0  0  0  0  0  0  0  0  0  0  0  0
   18.6559    7.4611   54.3794 H   0  0  0  0  0  0  0  0  0  0  0  0
   28.0946    9.9181   56.6955 C   0  0  0  0  0  0  0  0  0  0  0  0
   27.6529   10.0633   58.0059 O   0  0  0  0  0  0  0  0  0  0  0  0
   28.6640    9.1521   59.0301 S   0  0  0  0  0  0  0  0  0  0  0  0
   27.8382    8.2744   59.8986 O   0  0  0  0  0  0  0  0  0  0  0  0
   29.5378    8.2428   58.1622 O   0  0  0  0  0  0  0  0  0  0  0  0
   29.2120   10.7852   61.1230 C   0  0  0  0  0  0  0  0  0  0  0  0
   28.0772   10.4684   61.5507 O   0  0  0  0  0  0  0  0  0  0  0  0
   29.6628   10.2449   59.9061 N   0  0  0  0  0  0  0  0  0  0  0  0
   30.5893   10.4928   59.5310 H   0  0  0  0  0  0  0  0  0  0  0  0
   30.0459   11.7008   61.8923 C   0  0  0  0  0  0  0  0  0  0  0  0
   31.4405   11.4062   61.8894 N   0  0  0  0  0  0  0  0  0  0  0  0
   31.8403   11.2333   60.9600 H   0  0  0  0  0  0  0  0  0  0  0  0
   32.0095   11.9469   62.5460 H   0  0  0  0  0  0  0  0  0  0  0  0
   29.6590   13.1247   61.7173 C   0  0  0  0  0  0  0  0  0  0  0  0
   30.7591   13.9587   61.0787 C   0  0  0  0  0  0  0  0  0  0  0  0
   28.2956   13.4261   59.6372 C   0  0  0  0  0  0  0  0  0  0  0  0
   28.3149   13.3946   61.1419 C   0  0  0  0  0  0  0  0  0  0  0  0
 37 38  1  0  0  0
 38 35  1  0  0  0
 35 36  1  0  0  0
 35 31  1  0  0  0
 31 32  1  0  0  0
 31 27  1  0  0  0
 27 28  2  0  0  0
 27 29  1  0  0  0
 29 24  1  0  0  0
 24 25  2  0  0  0
 24 26  2  0  0  0
 24 23  1  0  0  0
 23 22  1  0  0  0
 22  1  1  0  0  0
  1  2  1  0  0  0
  2  3  1  0  0  0
  3  4  1  0  0  0
  4  5  1  0  0  0
  4  6  1  0  0  0
  6  7  1  0  0  0
  3 10  1  0  0  0
 10 11  1  0  0  0
 11 12  2  0  0  0
 12 13  1  0  0  0
 13 14  2  0  0  0
 14 15  1  0  0  0
 14 16  1  0  0  0
 16 17  2  0  0  0
 17 18  1  0  0  0
 18 19  2  0  0  0
  6  1  1  0  0  0
 19 10  1  0  0  0
 19 13  1  0  0  0
 32 33  1  0  0  0
 32 34  1  0  0  0
 29 30  1  0  0  0
  5  8  1  0  0  0
  7  9  1  0  0  0
 15 20  1  0  0  0
 15 21  1  0  0  0
M  END
> <minimizedAffinity>
3.00415

> <CNNscore>
0.5844940543

> <CNNaffinity>
6.2195773125

> <CNN_VS>
3.6353058815

> <CNNaffinity_variance>
0.3326186538

$$$$
[H]O[C@]1([H])[C@@]([H])(C([H])([H])OS(=O)(=O)N([H])C(=O)[C@@]([H])(N([H])[H])C([H])(C([H])([H])[H])C([H])([H])C([H])([H])[H])O[C@@]([H])(n2c([H])nc3c(N([H])[H])nc([H])nc32)[C@]1([H])O[H]


 38 40  0  0  0  0  0  0  0  0999 V2000
   22.3844    9.3940   54.4701 C   0  0  0  0  0  0  0  0  0  0  0  0
   22.6573   10.6300   53.8593 O   0  0  0  0  0  0  0  0  0  0  0  0
   21.5293   10.6743   53.0053 C   0  0  0  0  0  0  0  0  0  0  0  0
   21.6706    9.4157   52.2264 C   0  0  0  0  0  0  0  0  0  0  0  0
   20.4317    8.9085   51.7994 O   0  0  0  0  0  0  0  0  0  0  0  0
   22.2028    8.4391   53.2894 C   0  0  0  0  0  0  0  0  0  0  0  0
   21.1889    7.5468   53.6560 O   0  0  0  0  0  0  0  0  0  0  0  0
   20.6281    8.3445   50.9984 H   0  0  0  0  0  0  0  0  0  0  0  0
   20.5065    8.0870   54.1253 H   0  0  0  0  0  0  0  0  0  0  0  0
   21.4131   11.8706   52.2575 N   0  0  0  0  0  0  0  0  0  0  0  0
   22.0077   12.0659   51.0650 C   0  0  0  0  0  0  0  0  0  0  0  0
   21.7329   13.2879   50.5983 N   0  0  0  0  0  0  0  0  0  0  0  0
   20.9475   13.9008   51.4979 C   0  0  0  0  0  0  0  0  0  0  0  0
   20.3784   15.1626   51.5229 C   0  0  0  0  0  0  0  0  0  0  0  0
   20.5854   16.0756   50.4718 N   0  0  0  0  0  0  0  0  0  0  0  0
   19.6313   15.4776   52.5949 N   0  0  0  0  0  0  0  0  0  0  0  0
   19.4605   14.5771   53.5914 C   0  0  0  0  0  0  0  0  0  0  0  0
   20.0049   13.3598   53.5744 N   0  0  0  0  0  0  0  0  0  0  0  0
   20.7602   13.0136   52.5135 C   0  0  0  0  0  0  0  0  0  0  0  0
   20.2100   15.8464   49.5288 H   0  0  0  0  0  0  0  0  0  0  0  0
   21.0972   16.9799   50.5705 H   0  0  0  0  0  0  0  0  0  0  0  0
   23.3824    8.9377   55.4644 C   0  0  0  0  0  0  0  0  0  0  0  0
   24.0272    7.8123   54.9637 O   0  0  0  0  0  0  0  0  0  0  0  0
   25.6644    8.1942   54.6896 S   0  0  0  0  0  0  0  0  0  0  0  0
   26.4565    6.9440   54.5620 O   0  0  0  0  0  0  0  0  0  0  0  0
   25.7702    8.9390   53.3563 O   0  0  0  0  0  0  0  0  0  0  0  0
   27.5684    9.4645   56.1418 C   0  0  0  0  0  0  0  0  0  0  0  0
   28.3920    8.9220   55.3682 O   0  0  0  0  0  0  0  0  0  0  0  0
   26.1956    9.2190   55.9650 N   0  0  0  0  0  0  0  0  0  0  0  0
   25.4990    9.6491   56.5898 H   0  0  0  0  0  0  0  0  0  0  0  0
   28.0431   10.3418   57.2050 C   0  0  0  0  0  0  0  0  0  0  0  0
   27.4841   11.6530   57.2107 N   0  0  0  0  0  0  0  0  0  0  0  0
   26.4609   11.6832   57.1348 H   0  0  0  0  0  0  0  0  0  0  0  0
   27.9216   12.3190   57.8528 H   0  0  0  0  0  0  0  0  0  0  0  0
   28.1581    9.6541   58.5172 C   0  0  0  0  0  0  0  0  0  0  0  0
   28.6250    8.2125   58.3867 C   0  0  0  0  0  0  0  0  0  0  0  0
   29.4989    9.4968   60.6277 C   0  0  0  0  0  0  0  0  0  0  0  0
   28.8453   10.3923   59.6097 C   0  0  0  0  0  0  0  0  0  0  0  0
 37 38  1  0  0  0
 38 35  1  0  0  0
 35 36  1  0  0  0
 35 31  1  0  0  0
 31 32  1  0  0  0
 31 27  1  0  0  0
 27 28  2  0  0  0
 27 29  1  0  0  0
 29 24  1  0  0  0
 24 25  2  0  0  0
 24 26  2  0  0  0
 24 23  1  0  0  0
 23 22  1  0  0  0
 22  1  1  0  0  0
  1  2  1  0  0  0
  2  3  1  0  0  0
  3  4  1  0  0  0
  4  5  1  0  0  0
  4  6  1  0  0  0
  6  7  1  0  0  0
  3 10  1  0  0  0
 10 11  1  0  0  0
 11 12  2  0  0  0
 12 13  1  0  0  0
 13 14  2  0  0  0
 14 15  1  0  0  0
 14 16  1  0  0  0
 16 17  2  0  0  0
 17 18  1  0  0  0
 18 19  2  0  0  0
  6  1  1  0  0  0
 19 10  1  0  0  0
 19 13  1  0  0  0
 32 33  1  0  0  0
 32 34  1  0  0  0
 29 30  1  0  0  0
  5  8  1  0  0  0
  7  9  1  0  0  0
 15 20  1  0  0  0
 15 21  1  0  0  0
M  END
> <minimizedAffinity>
17.34107

> <CNNscore>
0.5736354589

> <CNNaffinity>
5.5624313354

> <CNN_VS>
3.1908078194

> <CNNaffinity_variance>
0.5959678888

$$$$
[H]O[C@]1([H])[C@@]([H])(C([H])([H])OS(=O)(=O)N([H])C(=O)[C@@]([H])(N([H])[H])C([H])(C([H])([H])[H])C([H])([H])C([H])([H])[H])O[C@@]([H])(n2c([H])nc3c(N([H])[H])nc([H])nc32)[C@]1([H])O[H]


 38 40  0  0  0  0  0  0  0  0999 V2000
   27.3093    8.9391   56.3629 C   0  0  0  0  0  0  0  0  0  0  0  0
   25.9787    9.0540   55.9249 O   0  0  0  0  0  0  0  0  0  0  0  0
   26.0105    8.0313   54.9468 C   0  0  0  0  0  0  0  0  0  0  0  0
   27.1221    8.4713   54.0627 C   0  0  0  0  0  0  0  0  0  0  0  0
   27.7651    7.3918   53.4338 O   0  0  0  0  0  0  0  0  0  0  0  0
   28.1253    9.0519   55.0744 C   0  0  0  0  0  0  0  0  0  0  0  0
   29.2085    8.1769   55.2156 O   0  0  0  0  0  0  0  0  0  0  0  0
   28.1851    7.7666   52.6083 H   0  0  0  0  0  0  0  0  0  0  0  0
   28.8486    7.3653   55.6509 H   0  0  0  0  0  0  0  0  0  0  0  0
   24.7645    7.7865   54.3211 N   0  0  0  0  0  0  0  0  0  0  0  0
   24.5674    6.8207   53.4034 C   0  0  0  0  0  0  0  0  0  0  0  0
   23.3002    6.8290   52.9784 N   0  0  0  0  0  0  0  0  0  0  0  0
   22.6591    7.8140   53.6270 C   0  0  0  0  0  0  0  0  0  0  0  0
   21.3502    8.2615   53.5699 C   0  0  0  0  0  0  0  0  0  0  0  0
   20.4124    7.6611   52.7089 N   0  0  0  0  0  0  0  0  0  0  0  0
   21.0202    9.2957   54.3626 N   0  0  0  0  0  0  0  0  0  0  0  0
   21.9506    9.8540   55.1723 C   0  0  0  0  0  0  0  0  0  0  0  0
   23.2130    9.4284   55.2332 N   0  0  0  0  0  0  0  0  0  0  0  0
   23.5757    8.3934   54.4503 C   0  0  0  0  0  0  0  0  0  0  0  0
   20.1421    6.6703   52.8764 H   0  0  0  0  0  0  0  0  0  0  0  0
   19.9618    8.1446   51.9010 H   0  0  0  0  0  0  0  0  0  0  0  0
   27.7193    9.8918   57.4196 C   0  0  0  0  0  0  0  0  0  0  0  0
   27.4978    9.3035   58.6598 O   0  0  0  0  0  0  0  0  0  0  0  0
   29.0020    8.9876   59.3940 S   0  0  0  0  0  0  0  0  0  0  0  0
   28.8058    8.1292   60.5904 O   0  0  0  0  0  0  0  0  0  0  0  0
   29.8666    8.2010   58.4054 O   0  0  0  0  0  0  0  0  0  0  0  0
   29.3563   11.2315   60.8729 C   0  0  0  0  0  0  0  0  0  0  0  0
   28.4470   10.7812   61.6087 O   0  0  0  0  0  0  0  0  0  0  0  0
   29.7538   10.4948   59.7436 N   0  0  0  0  0  0  0  0  0  0  0  0
   30.4954   10.8451   59.1206 H   0  0  0  0  0  0  0  0  0  0  0  0
   29.9888   12.5037   61.1999 C   0  0  0  0  0  0  0  0  0  0  0  0
   31.4015   12.5492   61.0151 N   0  0  0  0  0  0  0  0  0  0  0  0
   31.7268   12.1962   60.1079 H   0  0  0  0  0  0  0  0  0  0  0  0
   31.8708   13.3799   61.3851 H   0  0  0  0  0  0  0  0  0  0  0  0
   29.2106   13.6777   60.7265 C   0  0  0  0  0  0  0  0  0  0  0  0
   27.8023   13.7195   61.2994 C   0  0  0  0  0  0  0  0  0  0  0  0
   28.9491   16.1633   60.8988 C   0  0  0  0  0  0  0  0  0  0  0  0
   29.8922   14.9987   60.7591 C   0  0  0  0  0  0  0  0  0  0  0  0
 37 38  1  0  0  0
 38 35  1  0  0  0
 35 36  1  0  0  0
 35 31  1  0  0  0
 31 32  1  0  0  0
 31 27  1  0  0  0
 27 28  2  0  0  0
 27 29  1  0  0  0
 29 24  1  0  0  0
 24 25  2  0  0  0
 24 26  2  0  0  0
 24 23  1  0  0  0
 23 22  1  0  0  0
 22  1  1  0  0  0
  1  2  1  0  0  0
  2  3  1  0  0  0
  3  4  1  0  0  0
  4  5  1  0  0  0
  4  6  1  0  0  0
  6  7  1  0  0  0
  3 10  1  0  0  0
 10 11  1  0  0  0
 11 12  2  0  0  0
 12 13  1  0  0  0
 13 14  2  0  0  0
 14 15  1  0  0  0
 14 16  1  0  0  0
 16 17  2  0  0  0
 17 18  1  0  0  0
 18 19  2  0  0  0
  6  1  1  0  0  0
 19 10  1  0  0  0
 19 13  1  0  0  0
 32 33  1  0  0  0
 32 34  1  0  0  0
 29 30  1  0  0  0
  5  8  1  0  0  0
  7  9  1  0  0  0
 15 20  1  0  0  0
 15 21  1  0  0  0
M  END
> <minimizedAffinity>
-1.88148

> <CNNscore>
0.5712667704

> <CNNaffinity>
6.2989711761

> <CNN_VS>
3.5983929634

> <CNNaffinity_variance>
0.3187353611

$$$$
[H]O[C@]1([H])[C@@]([H])(C([H])([H])OS(=O)(=O)N([H])C(=O)[C@@]([H])(N([H])[H])C([H])(C([H])([H])[H])C([H])([H])C([H])([H])[H])O[C@@]([H])(n2c([H])nc3c(N([H])[H])nc([H])nc32)[C@]1([H])O[H]


 38 40  0  0  0  0  0  0  0  0999 V2000
   22.1112    8.1959   54.0674 C   0  0  0  0  0  0  0  0  0  0  0  0
   23.3565    8.7747   54.3673 O   0  0  0  0  0  0  0  0  0  0  0  0
   24.1744    7.7061   53.9284 C   0  0  0  0  0  0  0  0  0  0  0  0
   23.6721    6.5665   54.7408 C   0  0  0  0  0  0  0  0  0  0  0  0
   23.8370    5.3318   54.0906 O   0  0  0  0  0  0  0  0  0  0  0  0
   22.1594    6.8440   54.7807 C   0  0  0  0  0  0  0  0  0  0  0  0
   21.4939    5.9356   53.9497 O   0  0  0  0  0  0  0  0  0  0  0  0
   23.8593    4.6426   54.8136 H   0  0  0  0  0  0  0  0  0  0  0  0
   21.7693    6.1580   53.0265 H   0  0  0  0  0  0  0  0  0  0  0  0
   25.5634    7.9697   54.0005 N   0  0  0  0  0  0  0  0  0  0  0  0
   26.4355    7.6479   53.0260 C   0  0  0  0  0  0  0  0  0  0  0  0
   27.6767    8.0046   53.3708 N   0  0  0  0  0  0  0  0  0  0  0  0
   27.6159    8.5676   54.5878 C   0  0  0  0  0  0  0  0  0  0  0  0
   28.5925    9.1035   55.4098 C   0  0  0  0  0  0  0  0  0  0  0  0
   29.9444    9.1212   55.0184 N   0  0  0  0  0  0  0  0  0  0  0  0
   28.1944    9.5948   56.5960 N   0  0  0  0  0  0  0  0  0  0  0  0
   26.8863    9.5536   56.9430 C   0  0  0  0  0  0  0  0  0  0  0  0
   25.9399    9.0395   56.1566 N   0  0  0  0  0  0  0  0  0  0  0  0
   26.3069    8.5383   54.9608 C   0  0  0  0  0  0  0  0  0  0  0  0
   30.2197    9.6961   54.1960 H   0  0  0  0  0  0  0  0  0  0  0  0
   30.7032    8.5902   55.5001 H   0  0  0  0  0  0  0  0  0  0  0  0
   20.9261    9.0148   54.4103 C   0  0  0  0  0  0  0  0  0  0  0  0
   20.9543   10.1787   53.6502 O   0  0  0  0  0  0  0  0  0  0  0  0
   21.3268    9.7728   52.0384 S   0  0  0  0  0  0  0  0  0  0  0  0
   22.7301    9.2931   51.9535 O   0  0  0  0  0  0  0  0  0  0  0  0
   20.4223    8.6143   51.6103 O   0  0  0  0  0  0  0  0  0  0  0  0
   21.4414   12.4193   51.4632 C   0  0  0  0  0  0  0  0  0  0  0  0
   22.0501   12.5374   52.5526 O   0  0  0  0  0  0  0  0  0  0  0  0
   21.0078   11.1465   51.0533 N   0  0  0  0  0  0  0  0  0  0  0  0
   20.5018   11.0235   50.1648 H   0  0  0  0  0  0  0  0  0  0  0  0
   21.1976   13.5968   50.6388 C   0  0  0  0  0  0  0  0  0  0  0  0
   20.3148   13.3994   49.5373 N   0  0  0  0  0  0  0  0  0  0  0  0
   19.4363   12.9232   49.7718 H   0  0  0  0  0  0  0  0  0  0  0  0
   20.2595   14.1725   48.8691 H   0  0  0  0  0  0  0  0  0  0  0  0
   21.0101   14.8358   51.4372 C   0  0  0  0  0  0  0  0  0  0  0  0
   21.7853   16.0188   50.8778 C   0  0  0  0  0  0  0  0  0  0  0  0
   19.3802   15.1457   53.3145 C   0  0  0  0  0  0  0  0  0  0  0  0
   19.6186   15.1839   51.8289 C   0  0  0  0  0  0  0  0  0  0  0  0
 37 38  1  0  0  0
 38 35  1  0  0  0
 35 36  1  0  0  0
 35 31  1  0  0  0
 31 32  1  0  0  0
 31 27  1  0  0  0
 27 28  2  0  0  0
 27 29  1  0  0  0
 29 24  1  0  0  0
 24 25  2  0  0  0
 24 26  2  0  0  0
 24 23  1  0  0  0
 23 22  1  0  0  0
 22  1  1  0  0  0
  1  2  1  0  0  0
  2  3  1  0  0  0
  3  4  1  0  0  0
  4  5  1  0  0  0
  4  6  1  0  0  0
  6  7  1  0  0  0
  3 10  1  0  0  0
 10 11  1  0  0  0
 11 12  2  0  0  0
 12 13  1  0  0  0
 13 14  2  0  0  0
 14 15  1  0  0  0
 14 16  1  0  0  0
 16 17  2  0  0  0
 17 18  1  0  0  0
 18 19  2  0  0  0
  6  1  1  0  0  0
 19 10  1  0  0  0
 19 13  1  0  0  0
 32 33  1  0  0  0
 32 34  1  0  0  0
 29 30  1  0  0  0
  5  8  1  0  0  0
  7  9  1  0  0  0
 15 20  1  0  0  0
 15 21  1  0  0  0
M  END
> <minimizedAffinity>
13.78029

> <CNNscore>
0.5621758103

> <CNNaffinity>
6.3278121948

> <CNN_VS>
3.5573430061

> <CNNaffinity_variance>
0.4117698669

$$$$
[H]O[C@]1([H])[C@@]([H])(C([H])([H])OS(=O)(=O)N([H])C(=O)[C@@]([H])(N([H])[H])C([H])(C([H])([H])[H])C([H])([H])C([H])([H])[H])O[C@@]([H])(n2c([H])nc3c(N([H])[H])nc([H])nc32)[C@]1([H])O[H]


 38 40  0  0  0  0  0  0  0  0999 V2000
   21.4259   10.2466   54.7462 C   0  0  0  0  0  0  0  0  0  0  0  0
   22.7432   10.5558   55.1266 O   0  0  0  0  0  0  0  0  0  0  0  0
   23.2417    9.2322   55.1819 C   0  0  0  0  0  0  0  0  0  0  0  0
   22.3218    8.5863   56.1552 C   0  0  0  0  0  0  0  0  0  0  0  0
   22.1779    7.2080   55.9223 O   0  0  0  0  0  0  0  0  0  0  0  0
   20.9729    9.2354   55.8003 C   0  0  0  0  0  0  0  0  0  0  0  0
   20.1660    8.3059   55.1341 O   0  0  0  0  0  0  0  0  0  0  0  0
   21.9019    6.8101   56.7962 H   0  0  0  0  0  0  0  0  0  0  0  0
   20.6046    8.1380   54.2640 H   0  0  0  0  0  0  0  0  0  0  0  0
   24.6257    9.1438   55.4660 N   0  0  0  0  0  0  0  0  0  0  0  0
   25.1722    9.5190   56.6383 C   0  0  0  0  0  0  0  0  0  0  0  0
   26.4959    9.3345   56.6192 N   0  0  0  0  0  0  0  0  0  0  0  0
   26.8201    8.8315   55.4177 C   0  0  0  0  0  0  0  0  0  0  0  0
   28.0348    8.4615   54.8660 C   0  0  0  0  0  0  0  0  0  0  0  0
   29.2334    8.5887   55.5927 N   0  0  0  0  0  0  0  0  0  0  0  0
   28.0184    7.9869   53.6085 N   0  0  0  0  0  0  0  0  0  0  0  0
   26.8475    7.8862   52.9363 C   0  0  0  0  0  0  0  0  0  0  0  0
   25.6736    8.2401   53.4610 N   0  0  0  0  0  0  0  0  0  0  0  0
   25.6564    8.7202   54.7199 C   0  0  0  0  0  0  0  0  0  0  0  0
   29.3640    8.0101   56.4477 H   0  0  0  0  0  0  0  0  0  0  0  0
   30.0132    9.2322   55.3332 H   0  0  0  0  0  0  0  0  0  0  0  0
   20.5157   11.4046   54.5935 C   0  0  0  0  0  0  0  0  0  0  0  0
   21.1973   12.4229   53.9366 O   0  0  0  0  0  0  0  0  0  0  0  0
   21.6816   11.8594   52.4038 S   0  0  0  0  0  0  0  0  0  0  0  0
   20.8137   12.4523   51.3541 O   0  0  0  0  0  0  0  0  0  0  0  0
   23.1102   12.3424   52.1405 O   0  0  0  0  0  0  0  0  0  0  0  0
   20.8753    9.4365   51.4943 C   0  0  0  0  0  0  0  0  0  0  0  0
   20.2043   10.0770   50.6514 O   0  0  0  0  0  0  0  0  0  0  0  0
   21.6515   10.1397   52.4320 N   0  0  0  0  0  0  0  0  0  0  0  0
   22.2083    9.6369   53.1376 H   0  0  0  0  0  0  0  0  0  0  0  0
   20.8455    7.9789   51.4870 C   0  0  0  0  0  0  0  0  0  0  0  0
   21.1275    7.3681   50.2303 N   0  0  0  0  0  0  0  0  0  0  0  0
   21.9674    7.7238   49.7596 H   0  0  0  0  0  0  0  0  0  0  0  0
   20.9585    6.3602   50.1791 H   0  0  0  0  0  0  0  0  0  0  0  0
   21.4874    7.3790   52.6853 C   0  0  0  0  0  0  0  0  0  0  0  0
   20.7024    6.2034   53.2465 C   0  0  0  0  0  0  0  0  0  0  0  0
   23.3876    5.8964   53.3694 C   0  0  0  0  0  0  0  0  0  0  0  0
   22.9498    7.1207   52.6112 C   0  0  0  0  0  0  0  0  0  0  0  0
 37 38  1  0  0  0
 38 35  1  0  0  0
 35 36  1  0  0  0
 35 31  1  0  0  0
 31 32  1  0  0  0
 31 27  1  0  0  0
 27 28  2  0  0  0
 27 29  1  0  0  0
 29 24  1  0  0  0
 24 25  2  0  0  0
 24 26  2  0  0  0
 24 23  1  0  0  0
 23 22  1  0  0  0
 22  1  1  0  0  0
  1  2  1  0  0  0
  2  3  1  0  0  0
  3  4  1  0  0  0
  4  5  1  0  0  0
  4  6  1  0  0  0
  6  7  1  0  0  0
  3 10  1  0  0  0
 10 11  1  0  0  0
 11 12  2  0  0  0
 12 13  1  0  0  0
 13 14  2  0  0  0
 14 15  1  0  0  0
 14 16  1  0  0  0
 16 17  2  0  0  0
 17 18  1  0  0  0
 18 19  2  0  0  0
  6  1  1  0  0  0
 19 10  1  0  0  0
 19 13  1  0  0  0
 32 33  1  0  0  0
 32 34  1  0  0  0
 29 30  1  0  0  0
  5  8  1  0  0  0
  7  9  1  0  0  0
 15 20  1  0  0  0
 15 21  1  0  0  0
M  END
> <minimizedAffinity>
18.74776

> <CNNscore>
0.5507134795

> <CNNaffinity>
5.9157757759

> <CNN_VS>
3.2578973770

> <CNNaffinity_variance>
0.7240101099

$$$$
[H]O[C@]1([H])[C@@]([H])(C([H])([H])OS(=O)(=O)N([H])C(=O)[C@@]([H])(N([H])[H])C([H])(C([H])([H])[H])C([H])([H])C([H])([H])[H])O[C@@]([H])(n2c([H])nc3c(N([H])[H])nc([H])nc32)[C@]1([H])O[H]


 38 40  0  0  0  0  0  0  0  0999 V2000
   27.4189    8.3712   55.9246 C   0  0  0  0  0  0  0  0  0  0  0  0
   26.0156    8.3394   55.8526 O   0  0  0  0  0  0  0  0  0  0  0  0
   25.9033    7.8376   54.5338 C   0  0  0  0  0  0  0  0  0  0  0  0
   26.6631    8.8433   53.7450 C   0  0  0  0  0  0  0  0  0  0  0  0
   27.2368    8.2927   52.5865 O   0  0  0  0  0  0  0  0  0  0  0  0
   27.8261    9.1820   54.6935 C   0  0  0  0  0  0  0  0  0  0  0  0
   29.0066    8.6037   54.2131 O   0  0  0  0  0  0  0  0  0  0  0  0
   27.3618    9.0557   51.9538 H   0  0  0  0  0  0  0  0  0  0  0  0
   28.8855    7.6260   54.2975 H   0  0  0  0  0  0  0  0  0  0  0  0
   24.5736    7.5833   54.1200 N   0  0  0  0  0  0  0  0  0  0  0  0
   24.2182    6.5337   53.3547 C   0  0  0  0  0  0  0  0  0  0  0  0
   22.9038    6.5535   53.1125 N   0  0  0  0  0  0  0  0  0  0  0  0
   22.3921    7.6311   53.7278 C   0  0  0  0  0  0  0  0  0  0  0  0
   21.1024    8.1289   53.8033 C   0  0  0  0  0  0  0  0  0  0  0  0
   20.0332    7.4820   53.1555 N   0  0  0  0  0  0  0  0  0  0  0  0
   20.9205    9.2569   54.5114 N   0  0  0  0  0  0  0  0  0  0  0  0
   21.9737    9.8568   55.1145 C   0  0  0  0  0  0  0  0  0  0  0  0
   23.2186    9.3833   55.0468 N   0  0  0  0  0  0  0  0  0  0  0  0
   23.4342    8.2541   54.3438 C   0  0  0  0  0  0  0  0  0  0  0  0
   19.7605    6.5286   53.4707 H   0  0  0  0  0  0  0  0  0  0  0  0
   19.4857    7.8951   52.3686 H   0  0  0  0  0  0  0  0  0  0  0  0
   27.9828    8.8824   57.1947 C   0  0  0  0  0  0  0  0  0  0  0  0
   27.2245    9.9703   57.6125 O   0  0  0  0  0  0  0  0  0  0  0  0
   28.2205   11.3516   57.6500 S   0  0  0  0  0  0  0  0  0  0  0  0
   29.1226   11.3518   56.4698 O   0  0  0  0  0  0  0  0  0  0  0  0
   27.3302   12.5924   57.5435 O   0  0  0  0  0  0  0  0  0  0  0  0
   28.6300   12.2298   60.1816 C   0  0  0  0  0  0  0  0  0  0  0  0
   27.6490   12.9841   59.9821 O   0  0  0  0  0  0  0  0  0  0  0  0
   29.0546   11.3691   59.1544 N   0  0  0  0  0  0  0  0  0  0  0  0
   29.8605   10.7428   59.2917 H   0  0  0  0  0  0  0  0  0  0  0  0
   29.3098   12.2520   61.4711 C   0  0  0  0  0  0  0  0  0  0  0  0
   29.9964   11.0528   61.8208 N   0  0  0  0  0  0  0  0  0  0  0  0
   30.6079   10.6790   61.0861 H   0  0  0  0  0  0  0  0  0  0  0  0
   30.3432   11.0045   62.7823 H   0  0  0  0  0  0  0  0  0  0  0  0
   30.0171   13.5324   61.7325 C   0  0  0  0  0  0  0  0  0  0  0  0
   31.4406   13.5379   61.1968 C   0  0  0  0  0  0  0  0  0  0  0  0
   29.9202   15.6288   60.3642 C   0  0  0  0  0  0  0  0  0  0  0  0
   29.2774   14.7870   61.4336 C   0  0  0  0  0  0  0  0  0  0  0  0
 37 38  1  0  0  0
 38 35  1  0  0  0
 35 36  1  0  0  0
 35 31  1  0  0  0
 31 32  1  0  0  0
 31 27  1  0  0  0
 27 28  2  0  0  0
 27 29  1  0  0  0
 29 24  1  0  0  0
 24 25  2  0  0  0
 24 26  2  0  0  0
 24 23  1  0  0  0
 23 22  1  0  0  0
 22  1  1  0  0  0
  1  2  1  0  0  0
  2  3  1  0  0  0
  3  4  1  0  0  0
  4  5  1  0  0  0
  4  6  1  0  0  0
  6  7  1  0  0  0
  3 10  1  0  0  0
 10 11  1  0  0  0
 11 12  2  0  0  0
 12 13  1  0  0  0
 13 14  2  0  0  0
 14 15  1  0  0  0
 14 16  1  0  0  0
 16 17  2  0  0  0
 17 18  1  0  0  0
 18 19  2  0  0  0
  6  1  1  0  0  0
 19 10  1  0  0  0
 19 13  1  0  0  0
 32 33  1  0  0  0
 32 34  1  0  0  0
 29 30  1  0  0  0
  5  8  1  0  0  0
  7  9  1  0  0  0
 15 20  1  0  0  0
 15 21  1  0  0  0
M  END
> <minimizedAffinity>
1.71066

> <CNNscore>
0.5393291712

> <CNNaffinity>
6.1986417770

> <CNN_VS>
3.3431084156

> <CNNaffinity_variance>
0.3261849582

$$$$
[H]O[C@]1([H])[C@@]([H])(C([H])([H])OS(=O)(=O)N([H])C(=O)[C@@]([H])(N([H])[H])C([H])(C([H])([H])[H])C([H])([H])C([H])([H])[H])O[C@@]([H])(n2c([H])nc3c(N([H])[H])nc([H])nc32)[C@]1([H])O[H]


 38 40  0  0  0  0  0  0  0  0999 V2000
   25.7752    8.8166   55.3370 C   0  0  0  0  0  0  0  0  0  0  0  0
   24.3787    8.7746   55.1836 O   0  0  0  0  0  0  0  0  0  0  0  0
   24.2965    7.5252   54.5235 C   0  0  0  0  0  0  0  0  0  0  0  0
   25.1663    7.7351   53.3359 C   0  0  0  0  0  0  0  0  0  0  0  0
   25.7558    6.5413   52.8865 O   0  0  0  0  0  0  0  0  0  0  0  0
   26.3018    8.5942   53.9185 C   0  0  0  0  0  0  0  0  0  0  0  0
   27.4596    7.8181   54.0448 O   0  0  0  0  0  0  0  0  0  0  0  0
   25.9679    6.6873   51.9212 H   0  0  0  0  0  0  0  0  0  0  0  0
   27.2634    7.1471   54.7440 H   0  0  0  0  0  0  0  0  0  0  0  0
   22.9742    7.0882   54.2690 N   0  0  0  0  0  0  0  0  0  0  0  0
   22.3675    6.1044   54.9603 C   0  0  0  0  0  0  0  0  0  0  0  0
   21.1313    5.8983   54.4958 N   0  0  0  0  0  0  0  0  0  0  0  0
   20.9262    6.7591   53.4865 C   0  0  0  0  0  0  0  0  0  0  0  0
   19.8369    6.9736   52.6594 C   0  0  0  0  0  0  0  0  0  0  0  0
   18.6606    6.2121   52.7924 N   0  0  0  0  0  0  0  0  0  0  0  0
   19.9565    7.9303   51.7227 N   0  0  0  0  0  0  0  0  0  0  0  0
   21.1062    8.6377   51.6183 C   0  0  0  0  0  0  0  0  0  0  0  0
   22.1595    8.4373   52.4113 N   0  0  0  0  0  0  0  0  0  0  0  0
   22.0713    7.4847   53.3603 C   0  0  0  0  0  0  0  0  0  0  0  0
   18.1044    6.2994   53.6675 H   0  0  0  0  0  0  0  0  0  0  0  0
   18.3003    5.5547   52.0661 H   0  0  0  0  0  0  0  0  0  0  0  0
   26.3103   10.0312   55.9935 C   0  0  0  0  0  0  0  0  0  0  0  0
   26.6634    9.7122   57.2999 O   0  0  0  0  0  0  0  0  0  0  0  0
   28.3611    9.6173   57.4021 S   0  0  0  0  0  0  0  0  0  0  0  0
   28.8595    8.5525   56.4941 O   0  0  0  0  0  0  0  0  0  0  0  0
   28.9495   10.9440   56.9151 O   0  0  0  0  0  0  0  0  0  0  0  0
   29.1131   10.4701   59.8627 C   0  0  0  0  0  0  0  0  0  0  0  0
   29.1014   11.6217   59.3679 O   0  0  0  0  0  0  0  0  0  0  0  0
   28.7849    9.3704   59.0509 N   0  0  0  0  0  0  0  0  0  0  0  0
   28.7913    8.4138   59.4323 H   0  0  0  0  0  0  0  0  0  0  0  0
   29.4601   10.2891   61.2672 C   0  0  0  0  0  0  0  0  0  0  0  0
   30.1078    9.0593   61.5831 N   0  0  0  0  0  0  0  0  0  0  0  0
   30.8980    8.8218   60.9728 H   0  0  0  0  0  0  0  0  0  0  0  0
   30.2150    8.8579   62.5806 H   0  0  0  0  0  0  0  0  0  0  0  0
   30.0112   11.5193   61.8922 C   0  0  0  0  0  0  0  0  0  0  0  0
   31.4383   11.8122   61.4553 C   0  0  0  0  0  0  0  0  0  0  0  0
   29.8167   13.9571   61.3482 C   0  0  0  0  0  0  0  0  0  0  0  0
   29.1425   12.7259   61.8914 C   0  0  0  0  0  0  0  0  0  0  0  0
 37 38  1  0  0  0
 38 35  1  0  0  0
 35 36  1  0  0  0
 35 31  1  0  0  0
 31 32  1  0  0  0
 31 27  1  0  0  0
 27 28  2  0  0  0
 27 29  1  0  0  0
 29 24  1  0  0  0
 24 25  2  0  0  0
 24 26  2  0  0  0
 24 23  1  0  0  0
 23 22  1  0  0  0
 22  1  1  0  0  0
  1  2  1  0  0  0
  2  3  1  0  0  0
  3  4  1  0  0  0
  4  5  1  0  0  0
  4  6  1  0  0  0
  6  7  1  0  0  0
  3 10  1  0  0  0
 10 11  1  0  0  0
 11 12  2  0  0  0
 12 13  1  0  0  0
 13 14  2  0  0  0
 14 15  1  0  0  0
 14 16  1  0  0  0
 16 17  2  0  0  0
 17 18  1  0  0  0
 18 19  2  0  0  0
  6  1  1  0  0  0
 19 10  1  0  0  0
 19 13  1  0  0  0
 32 33  1  0  0  0
 32 34  1  0  0  0
 29 30  1  0  0  0
  5  8  1  0  0  0
  7  9  1  0  0  0
 15 20  1  0  0  0
 15 21  1  0  0  0
M  END
> <minimizedAffinity>
5.88967

> <CNNscore>
0.5241287947

> <CNNaffinity>
5.9460096359

> <CNN_VS>
3.1164748669

> <CNNaffinity_variance>
0.9430525899

$$$$
[H]O[C@]1([H])[C@]([H])(C([H])([H])OP(=O)(O[H])OP(=O)(O[H])O[H])O[C@@]([H])(n2c([H])nc3c(N([H])[H])nc([H])nc32)[C@]1([H])O[H]


 34 36  0  0  0  0  0  0  0  0999 V2000
   23.3263    9.2734   55.8502 C   0  0  0  0  0  0  0  0  0  0  0  0
   22.2260    8.4598   55.6130 O   0  0  0  0  0  0  0  0  0  0  0  0
   21.7172    8.8690   54.4162 C   0  0  0  0  0  0  0  0  0  0  0  0
   22.0873   10.3031   54.1956 C   0  0  0  0  0  0  0  0  0  0  0  0
   21.0420   11.1480   53.8797 O   0  0  0  0  0  0  0  0  0  0  0  0
   22.7098   10.5969   55.5615 C   0  0  0  0  0  0  0  0  0  0  0  0
   21.6345   10.6769   56.5067 O   0  0  0  0  0  0  0  0  0  0  0  0
   21.2526   11.5502   52.9565 H   0  0  0  0  0  0  0  0  0  0  0  0
   21.2163   11.5420   56.4355 H   0  0  0  0  0  0  0  0  0  0  0  0
   28.8059    7.7290   53.8624 N   0  0  0  0  0  0  0  0  0  0  0  0
   27.9543    8.3890   54.8025 C   0  0  0  0  0  0  0  0  0  0  0  0
   28.4435    8.9792   55.9000 N   0  0  0  0  0  0  0  0  0  0  0  0
   27.6024    9.5711   56.8019 C   0  0  0  0  0  0  0  0  0  0  0  0
   26.2759    9.5614   56.5980 N   0  0  0  0  0  0  0  0  0  0  0  0
   25.7512    8.9939   55.5282 C   0  0  0  0  0  0  0  0  0  0  0  0
   24.4604    8.8544   55.0956 N   0  0  0  0  0  0  0  0  0  0  0  0
   24.5207    8.1906   53.9247 C   0  0  0  0  0  0  0  0  0  0  0  0
   25.8041    7.9275   53.6512 N   0  0  0  0  0  0  0  0  0  0  0  0
   26.6017    8.3939   54.5988 C   0  0  0  0  0  0  0  0  0  0  0  0
   28.9879    6.7036   54.1328 H   0  0  0  0  0  0  0  0  0  0  0  0
   29.2106    8.1448   53.0555 H   0  0  0  0  0  0  0  0  0  0  0  0
   20.2002    8.7026   54.2950 C   0  0  0  0  0  0  0  0  0  0  0  0
   20.0451    7.8765   53.1361 O   0  0  0  0  0  0  0  0  0  0  0  0
   21.4064    7.8282   52.2203 P   0  0  0  0  0  0  0  0  0  0  0  0
   20.9844    7.3115   50.6177 O   0  0  0  0  0  0  0  0  0  0  0  0
   21.7311    9.3468   51.9768 O   0  0  0  0  0  0  0  0  0  0  0  0
   20.5781    6.4190   50.6701 H   0  0  0  0  0  0  0  0  0  0  0  0
   22.7546    7.0812   52.6462 O   0  0  0  0  0  0  0  0  0  0  0  0
   22.6733    5.7120   53.5803 P   0  0  0  0  0  0  0  0  0  0  0  0
   22.8528    6.1831   55.1938 O   0  0  0  0  0  0  0  0  0  0  0  0
   21.1360    4.9737   53.4174 O   0  0  0  0  0  0  0  0  0  0  0  0
   23.7541    4.7358   53.2568 O   0  0  0  0  0  0  0  0  0  0  0  0
   23.0173    7.1717   55.2370 H   0  0  0  0  0  0  0  0  0  0  0  0
   21.2052    4.0865   53.8218 H   0  0  0  0  0  0  0  0  0  0  0  0
 10 11  1  0  0  0
 11 12  2  0  0  0
 12 13  1  0  0  0
 13 14  2  0  0  0
 14 15  1  0  0  0
 15 16  1  0  0  0
 16 17  1  0  0  0
 17 18  2  0  0  0
 18 19  1  0  0  0
 16  1  1  0  0  0
  1  2  1  0  0  0
  2  3  1  0  0  0
  3 22  1  0  0  0
 22 23  1  0  0  0
 23 24  1  0  0  0
 24 25  1  0  0  0
 24 26  2  0  0  0
 24 28  1  0  0  0
 28 29  1  0  0  0
 29 30  1  0  0  0
 29 31  1  0  0  0
 29 32  2  0  0  0
  3  4  1  0  0  0
  4  5  1  0  0  0
  4  6  1  0  0  0
  6  7  1  0  0  0
 19 11  1  0  0  0
  6  1  1  0  0  0
 19 15  2  0  0  0
 10 20  1  0  0  0
 10 21  1  0  0  0
 25 27  1  0  0  0
 30 33  1  0  0  0
 31 34  1  0  0  0
  5  8  1  0  0  0
  7  9  1  0  0  0
M  END
> <minimizedAffinity>
3.07697

> <CNNscore>
0.5071211457

> <CNNaffinity>
6.1016502380

> <CNN_VS>
3.0942759514

> <CNNaffinity_variance>
0.7586013079

$$$$
[H]O[C@]1([H])[C@]([H])(C([H])([H])OP(=O)(O[H])OP(=O)(O[H])O[H])O[C@@]([H])(n2c([H])nc3c(N([H])[H])nc([H])nc32)[C@]1([H])O[H]


 34 36  0  0  0  0  0  0  0  0999 V2000
   21.3974    8.2113   54.5988 C   0  0  0  0  0  0  0  0  0  0  0  0
   22.5097    7.7821   55.3112 O   0  0  0  0  0  0  0  0  0  0  0  0
   23.4920    7.5979   54.3838 C   0  0  0  0  0  0  0  0  0  0  0  0
   22.8600    7.3052   53.0582 C   0  0  0  0  0  0  0  0  0  0  0  0
   23.3186    6.1730   52.4148 O   0  0  0  0  0  0  0  0  0  0  0  0
   21.4037    7.1937   53.5127 C   0  0  0  0  0  0  0  0  0  0  0  0
   21.2761    5.9521   54.2187 O   0  0  0  0  0  0  0  0  0  0  0  0
   23.7085    6.4798   51.5136 H   0  0  0  0  0  0  0  0  0  0  0  0
   21.2033    5.2334   53.5811 H   0  0  0  0  0  0  0  0  0  0  0  0
   21.3514   13.6090   51.9108 N   0  0  0  0  0  0  0  0  0  0  0  0
   21.3630   12.1803   51.8522 C   0  0  0  0  0  0  0  0  0  0  0  0
   21.2673   11.5240   50.6894 N   0  0  0  0  0  0  0  0  0  0  0  0
   21.2432   10.1565   50.6653 C   0  0  0  0  0  0  0  0  0  0  0  0
   21.3100    9.4581   51.8095 N   0  0  0  0  0  0  0  0  0  0  0  0
   21.4084   10.0643   52.9777 C   0  0  0  0  0  0  0  0  0  0  0  0
   21.4933    9.5922   54.2593 N   0  0  0  0  0  0  0  0  0  0  0  0
   21.5831   10.6732   55.0584 C   0  0  0  0  0  0  0  0  0  0  0  0
   21.5493   11.7708   54.2934 N   0  0  0  0  0  0  0  0  0  0  0  0
   21.4410   11.4589   53.0117 C   0  0  0  0  0  0  0  0  0  0  0  0
   20.3515   14.0032   51.9593 H   0  0  0  0  0  0  0  0  0  0  0  0
   22.1531   14.1963   51.8936 H   0  0  0  0  0  0  0  0  0  0  0  0
   24.4837    6.4874   54.7395 C   0  0  0  0  0  0  0  0  0  0  0  0
   25.5629    6.6952   53.8222 O   0  0  0  0  0  0  0  0  0  0  0  0
   26.6084    7.8485   54.3431 P   0  0  0  0  0  0  0  0  0  0  0  0
   28.2146    7.1902   54.3393 O   0  0  0  0  0  0  0  0  0  0  0  0
   26.6823    8.8432   53.1283 O   0  0  0  0  0  0  0  0  0  0  0  0
   28.2391    6.4131   54.9393 H   0  0  0  0  0  0  0  0  0  0  0  0
   26.4205    8.6971   55.6853 O   0  0  0  0  0  0  0  0  0  0  0  0
   27.7017    9.5546   56.2992 P   0  0  0  0  0  0  0  0  0  0  0  0
   28.4177    8.6103   57.5046 O   0  0  0  0  0  0  0  0  0  0  0  0
   28.8736    9.8245   55.0790 O   0  0  0  0  0  0  0  0  0  0  0  0
   27.2813   10.8494   56.9097 O   0  0  0  0  0  0  0  0  0  0  0  0
   27.8915    7.7646   57.6234 H   0  0  0  0  0  0  0  0  0  0  0  0
   29.4996   10.4873   55.4313 H   0  0  0  0  0  0  0  0  0  0  0  0
 10 11  1  0  0  0
 11 12  2  0  0  0
 12 13  1  0  0  0
 13 14  2  0  0  0
 14 15  1  0  0  0
 15 16  1  0  0  0
 16 17  1  0  0  0
 17 18  2  0  0  0
 18 19  1  0  0  0
 16  1  1  0  0  0
  1  2  1  0  0  0
  2  3  1  0  0  0
  3 22  1  0  0  0
 22 23  1  0  0  0
 23 24  1  0  0  0
 24 25  1  0  0  0
 24 26  2  0  0  0
 24 28  1  0  0  0
 28 29  1  0  0  0
 29 30  1  0  0  0
 29 31  1  0  0  0
 29 32  2  0  0  0
  3  4  1  0  0  0
  4  5  1  0  0  0
  4  6  1  0  0  0
  6  7  1  0  0  0
 19 11  1  0  0  0
  6  1  1  0  0  0
 19 15  2  0  0  0
 10 20  1  0  0  0
 10 21  1  0  0  0
 25 27  1  0  0  0
 30 33  1  0  0  0
 31 34  1  0  0  0
  5  8  1  0  0  0
  7  9  1  0  0  0
M  END
> <minimizedAffinity>
6.96391

> <CNNscore>
0.4877673686

> <CNNaffinity>
5.7664871216

> <CNN_VS>
2.8127043247

> <CNNaffinity_variance>
0.1336082965

$$$$
[H]O[C@]1([H])[C@]([H])(C([H])([H])OP(=O)(O[H])OP(=O)(O[H])O[H])O[C@@]([H])(n2c([H])nc3c(N([H])[H])nc([H])nc32)[C@]1([H])O[H]


 34 36  0  0  0  0  0  0  0  0999 V2000
   22.0688    7.4551   54.2248 C   0  0  0  0  0  0  0  0  0  0  0  0
   23.2365    7.9700   54.7727 O   0  0  0  0  0  0  0  0  0  0  0  0
   24.2378    7.5884   53.9297 C   0  0  0  0  0  0  0  0  0  0  0  0
   23.8207    6.3417   53.2127 C   0  0  0  0  0  0  0  0  0  0  0  0
   24.7188    5.2943   53.2640 O   0  0  0  0  0  0  0  0  0  0  0  0
   22.5211    6.0605   53.9688 C   0  0  0  0  0  0  0  0  0  0  0  0
   22.8856    5.5841   55.2713 O   0  0  0  0  0  0  0  0  0  0  0  0
   24.9791    5.0773   52.2926 H   0  0  0  0  0  0  0  0  0  0  0  0
   23.1303    4.6543   55.2094 H   0  0  0  0  0  0  0  0  0  0  0  0
   20.7844   11.8412   50.2910 N   0  0  0  0  0  0  0  0  0  0  0  0
   21.1919   11.4029   51.5896 C   0  0  0  0  0  0  0  0  0  0  0  0
   21.5740   12.2694   52.5358 N   0  0  0  0  0  0  0  0  0  0  0  0
   21.9948   11.8204   53.7575 C   0  0  0  0  0  0  0  0  0  0  0  0
   22.0338   10.5045   54.0185 N   0  0  0  0  0  0  0  0  0  0  0  0
   21.6630    9.6156   53.1160 C   0  0  0  0  0  0  0  0  0  0  0  0
   21.6073    8.2484   53.1344 N   0  0  0  0  0  0  0  0  0  0  0  0
   21.1395    7.8699   51.9290 C   0  0  0  0  0  0  0  0  0  0  0  0
   20.9206    8.9672   51.1947 N   0  0  0  0  0  0  0  0  0  0  0  0
   21.2254   10.0644   51.8693 C   0  0  0  0  0  0  0  0  0  0  0  0
   21.6193   11.9510   49.6213 H   0  0  0  0  0  0  0  0  0  0  0  0
   19.8518   12.0447   50.0140 H   0  0  0  0  0  0  0  0  0  0  0  0
   25.5828    7.3595   54.6238 C   0  0  0  0  0  0  0  0  0  0  0  0
   26.2247    8.6364   54.5404 O   0  0  0  0  0  0  0  0  0  0  0  0
   27.8442    8.5355   54.7881 P   0  0  0  0  0  0  0  0  0  0  0  0
   28.4343    7.0822   54.0442 O   0  0  0  0  0  0  0  0  0  0  0  0
   28.4254    9.6313   53.8225 O   0  0  0  0  0  0  0  0  0  0  0  0
   27.9796    6.3123   54.4503 H   0  0  0  0  0  0  0  0  0  0  0  0
   28.5503    8.6876   56.2147 O   0  0  0  0  0  0  0  0  0  0  0  0
   27.8151    9.5842   57.4019 P   0  0  0  0  0  0  0  0  0  0  0  0
   26.1677    9.6680   57.0323 O   0  0  0  0  0  0  0  0  0  0  0  0
   27.9733    8.8032   58.9184 O   0  0  0  0  0  0  0  0  0  0  0  0
   28.3472   10.9759   57.4775 O   0  0  0  0  0  0  0  0  0  0  0  0
   25.9971    9.2050   56.1589 H   0  0  0  0  0  0  0  0  0  0  0  0
   27.7037    9.4513   59.5986 H   0  0  0  0  0  0  0  0  0  0  0  0
 10 11  1  0  0  0
 11 12  2  0  0  0
 12 13  1  0  0  0
 13 14  2  0  0  0
 14 15  1  0  0  0
 15 16  1  0  0  0
 16 17  1  0  0  0
 17 18  2  0  0  0
 18 19  1  0  0  0
 16  1  1  0  0  0
  1  2  1  0  0  0
  2  3  1  0  0  0
  3 22  1  0  0  0
 22 23  1  0  0  0
 23 24  1  0  0  0
 24 25  1  0  0  0
 24 26  2  0  0  0
 24 28  1  0  0  0
 28 29  1  0  0  0
 29 30  1  0  0  0
 29 31  1  0  0  0
 29 32  2  0  0  0
  3  4  1  0  0  0
  4  5  1  0  0  0
  4  6  1  0  0  0
  6  7  1  0  0  0
 19 11  1  0  0  0
  6  1  1  0  0  0
 19 15  2  0  0  0
 10 20  1  0  0  0
 10 21  1  0  0  0
 25 27  1  0  0  0
 30 33  1  0  0  0
 31 34  1  0  0  0
  5  8  1  0  0  0
  7  9  1  0  0  0
M  END
> <minimizedAffinity>
3.47014

> <CNNscore>
0.4686765671

> <CNNaffinity>
5.7790451050

> <CNN_VS>
2.7085030079

> <CNNaffinity_variance>
0.1238878146

$$$$
[H]O[C@]1([H])[C@]([H])(C([H])([H])OP(=O)(O[H])OP(=O)(O[H])O[H])O[C@@]([H])(n2c([H])nc3c(N([H])[H])nc([H])nc32)[C@]1([H])O[H]


 34 36  0  0  0  0  0  0  0  0999 V2000
   22.7932    7.9268   55.1311 C   0  0  0  0  0  0  0  0  0  0  0  0
   24.1227    7.9735   55.5301 O   0  0  0  0  0  0  0  0  0  0  0  0
   24.8485    7.6098   54.4348 C   0  0  0  0  0  0  0  0  0  0  0  0
   23.9988    6.7478   53.5531 C   0  0  0  0  0  0  0  0  0  0  0  0
   24.5583    5.5428   53.1776 O   0  0  0  0  0  0  0  0  0  0  0  0
   22.7887    6.5907   54.4754 C   0  0  0  0  0  0  0  0  0  0  0  0
   23.1756    5.7004   55.5309 O   0  0  0  0  0  0  0  0  0  0  0  0
   24.6108    5.5460   52.1502 H   0  0  0  0  0  0  0  0  0  0  0  0
   23.1336    4.7933   55.2089 H   0  0  0  0  0  0  0  0  0  0  0  0
   20.6238   11.8500   51.0982 N   0  0  0  0  0  0  0  0  0  0  0  0
   20.9854   10.5217   51.4847 C   0  0  0  0  0  0  0  0  0  0  0  0
   20.7453    9.4695   50.6926 N   0  0  0  0  0  0  0  0  0  0  0  0
   21.0676    8.2051   51.1031 C   0  0  0  0  0  0  0  0  0  0  0  0
   21.6239    8.0059   52.3081 N   0  0  0  0  0  0  0  0  0  0  0  0
   21.8810    9.0146   53.1195 C   0  0  0  0  0  0  0  0  0  0  0  0
   22.4338    9.0769   54.3698 N   0  0  0  0  0  0  0  0  0  0  0  0
   22.4593   10.3800   54.7107 C   0  0  0  0  0  0  0  0  0  0  0  0
   21.9354   11.0922   53.7059 N   0  0  0  0  0  0  0  0  0  0  0  0
   21.5623   10.3088   52.7064 C   0  0  0  0  0  0  0  0  0  0  0  0
   19.6095   12.0872   51.3677 H   0  0  0  0  0  0  0  0  0  0  0  0
   21.2108   12.4951   50.6215 H   0  0  0  0  0  0  0  0  0  0  0  0
   26.1534    6.8814   54.7664 C   0  0  0  0  0  0  0  0  0  0  0  0
   27.1593    7.7075   54.1704 O   0  0  0  0  0  0  0  0  0  0  0  0
   27.7822    8.7928   55.2327 P   0  0  0  0  0  0  0  0  0  0  0  0
   28.7300    9.9531   54.3558 O   0  0  0  0  0  0  0  0  0  0  0  0
   26.5342    9.6592   55.6362 O   0  0  0  0  0  0  0  0  0  0  0  0
   29.4534    9.4815   53.8881 H   0  0  0  0  0  0  0  0  0  0  0  0
   28.5800    8.3993   56.5615 O   0  0  0  0  0  0  0  0  0  0  0  0
   28.2244    9.1673   57.9889 P   0  0  0  0  0  0  0  0  0  0  0  0
   26.5835    8.9172   58.3085 O   0  0  0  0  0  0  0  0  0  0  0  0
   29.1206    8.4745   59.2741 O   0  0  0  0  0  0  0  0  0  0  0  0
   28.4672   10.6378   57.9213 O   0  0  0  0  0  0  0  0  0  0  0  0
   26.1696    8.4058   57.5512 H   0  0  0  0  0  0  0  0  0  0  0  0
   29.0274    9.0760   60.0390 H   0  0  0  0  0  0  0  0  0  0  0  0
 10 11  1  0  0  0
 11 12  2  0  0  0
 12 13  1  0  0  0
 13 14  2  0  0  0
 14 15  1  0  0  0
 15 16  1  0  0  0
 16 17  1  0  0  0
 17 18  2  0  0  0
 18 19  1  0  0  0
 16  1  1  0  0  0
  1  2  1  0  0  0
  2  3  1  0  0  0
  3 22  1  0  0  0
 22 23  1  0  0  0
 23 24  1  0  0  0
 24 25  1  0  0  0
 24 26  2  0  0  0
 24 28  1  0  0  0
 28 29  1  0  0  0
 29 30  1  0  0  0
 29 31  1  0  0  0
 29 32  2  0  0  0
  3  4  1  0  0  0
  4  5  1  0  0  0
  4  6  1  0  0  0
  6  7  1  0  0  0
 19 11  1  0  0  0
  6  1  1  0  0  0
 19 15  2  0  0  0
 10 20  1  0  0  0
 10 21  1  0  0  0
 25 27  1  0  0  0
 30 33  1  0  0  0
 31 34  1  0  0  0
  5  8  1  0  0  0
  7  9  1  0  0  0
M  END
> <minimizedAffinity>
7.48415

> <CNNscore>
0.4584194422

> <CNNaffinity>
5.7313890457

> <CNN_VS>
2.6273801327

> <CNNaffinity_variance>
0.0890847594

$$$$
[H]O[C@]1([H])[C@]([H])(C([H])([H])OP(=O)(O[H])OP(=O)(O[H])O[H])O[C@@]([H])(n2c([H])nc3c(N([H])[H])nc([H])nc32)[C@]1([H])O[H]


 34 36  0  0  0  0  0  0  0  0999 V2000
   24.5378    7.4790   53.4403 C   0  0  0  0  0  0  0  0  0  0  0  0
   23.3471    8.1081   53.1007 O   0  0  0  0  0  0  0  0  0  0  0  0
   22.4492    7.7371   54.0573 C   0  0  0  0  0  0  0  0  0  0  0  0
   22.8670    6.4183   54.6305 C   0  0  0  0  0  0  0  0  0  0  0  0
   21.8931    5.4398   54.6496 O   0  0  0  0  0  0  0  0  0  0  0  0
   24.0208    6.1036   53.6770 C   0  0  0  0  0  0  0  0  0  0  0  0
   23.4399    5.7444   52.4160 O   0  0  0  0  0  0  0  0  0  0  0  0
   21.7573    5.1739   55.6341 H   0  0  0  0  0  0  0  0  0  0  0  0
   23.1359    4.8311   52.4582 H   0  0  0  0  0  0  0  0  0  0  0  0
   28.5109   10.1364   57.1165 N   0  0  0  0  0  0  0  0  0  0  0  0
   28.1995    9.2469   56.0411 C   0  0  0  0  0  0  0  0  0  0  0  0
   29.1585    8.6395   55.3315 N   0  0  0  0  0  0  0  0  0  0  0  0
   28.8332    7.8225   54.2837 C   0  0  0  0  0  0  0  0  0  0  0  0
   27.5475    7.6256   53.9527 N   0  0  0  0  0  0  0  0  0  0  0  0
   26.5702    8.2018   54.6271 C   0  0  0  0  0  0  0  0  0  0  0  0
   25.2086    8.1617   54.4963 N   0  0  0  0  0  0  0  0  0  0  0  0
   24.7088    8.9430   55.4735 C   0  0  0  0  0  0  0  0  0  0  0  0
   25.7291    9.4489   56.1764 N   0  0  0  0  0  0  0  0  0  0  0  0
   26.8920    9.0312   55.7022 C   0  0  0  0  0  0  0  0  0  0  0  0
   28.6675   11.1444   56.7745 H   0  0  0  0  0  0  0  0  0  0  0  0
   28.5964    9.8814   58.0733 H   0  0  0  0  0  0  0  0  0  0  0  0
   21.0058    7.6480   53.5553 C   0  0  0  0  0  0  0  0  0  0  0  0
   20.2778    8.4611   54.4818 O   0  0  0  0  0  0  0  0  0  0  0  0
   20.9751    9.9309   54.7003 P   0  0  0  0  0  0  0  0  0  0  0  0
   20.2566   10.6903   56.0862 O   0  0  0  0  0  0  0  0  0  0  0  0
   22.4028    9.5740   55.2527 O   0  0  0  0  0  0  0  0  0  0  0  0
   19.2928   10.7915   55.9269 H   0  0  0  0  0  0  0  0  0  0  0  0
   21.1339   11.0340   53.5536 O   0  0  0  0  0  0  0  0  0  0  0  0
   21.5003   10.5606   52.0059 P   0  0  0  0  0  0  0  0  0  0  0  0
   23.0132    9.8076   52.0468 O   0  0  0  0  0  0  0  0  0  0  0  0
   20.3573    9.4114   51.4510 O   0  0  0  0  0  0  0  0  0  0  0  0
   21.5783   11.7122   51.0606 O   0  0  0  0  0  0  0  0  0  0  0  0
   23.3832    9.8513   52.9781 H   0  0  0  0  0  0  0  0  0  0  0  0
   20.4988    9.3154   50.4887 H   0  0  0  0  0  0  0  0  0  0  0  0
 10 11  1  0  0  0
 11 12  2  0  0  0
 12 13  1  0  0  0
 13 14  2  0  0  0
 14 15  1  0  0  0
 15 16  1  0  0  0
 16 17  1  0  0  0
 17 18  2  0  0  0
 18 19  1  0  0  0
 16  1  1  0  0  0
  1  2  1  0  0  0
  2  3  1  0  0  0
  3 22  1  0  0  0
 22 23  1  0  0  0
 23 24  1  0  0  0
 24 25  1  0  0  0
 24 26  2  0  0  0
 24 28  1  0  0  0
 28 29  1  0  0  0
 29 30  1  0  0  0
 29 31  1  0  0  0
 29 32  2  0  0  0
  3  4  1  0  0  0
  4  5  1  0  0  0
  4  6  1  0  0  0
  6  7  1  0  0  0
 19 11  1  0  0  0
  6  1  1  0  0  0
 19 15  2  0  0  0
 10 20  1  0  0  0
 10 21  1  0  0  0
 25 27  1  0  0  0
 30 33  1  0  0  0
 31 34  1  0  0  0
  5  8  1  0  0  0
  7  9  1  0  0  0
M  END
> <minimizedAffinity>
5.25349

> <CNNscore>
0.4530965090

> <CNNaffinity>
5.6008181572

> <CNN_VS>
2.5377111435

> <CNNaffinity_variance>
0.2627108991

$$$$
[H]O[C@]1([H])[C@]([H])(C([H])([H])OP(=O)(O[H])OP(=O)(O[H])O[H])O[C@@]([H])(n2c([H])nc3c(N([H])[H])nc([H])nc32)[C@]1([H])O[H]


 34 36  0  0  0  0  0  0  0  0999 V2000
   21.7955    8.9929   54.9651 C   0  0  0  0  0  0  0  0  0  0  0  0
   22.6384    8.2311   54.1664 O   0  0  0  0  0  0  0  0  0  0  0  0
   21.8871    7.8551   53.0926 C   0  0  0  0  0  0  0  0  0  0  0  0
   20.4439    7.8375   53.4915 C   0  0  0  0  0  0  0  0  0  0  0  0
   19.7602    6.6718   53.2087 O   0  0  0  0  0  0  0  0  0  0  0  0
   20.6124    8.0903   54.9906 C   0  0  0  0  0  0  0  0  0  0  0  0
   21.1272    6.8823   55.5669 O   0  0  0  0  0  0  0  0  0  0  0  0
   18.9879    6.9251   52.5779 H   0  0  0  0  0  0  0  0  0  0  0  0
   20.4042    6.2566   55.6846 H   0  0  0  0  0  0  0  0  0  0  0  0
   20.9128   13.9311   51.6190 N   0  0  0  0  0  0  0  0  0  0  0  0
   21.2017   12.5361   51.7417 C   0  0  0  0  0  0  0  0  0  0  0  0
   21.3181   11.7456   50.6676 N   0  0  0  0  0  0  0  0  0  0  0  0
   21.5578   10.4070   50.8150 C   0  0  0  0  0  0  0  0  0  0  0  0
   21.6738    9.8709   52.0399 N   0  0  0  0  0  0  0  0  0  0  0  0
   21.5694   10.6138   53.1258 C   0  0  0  0  0  0  0  0  0  0  0  0
   21.6498   10.3173   54.4593 N   0  0  0  0  0  0  0  0  0  0  0  0
   21.4729   11.4786   55.1192 C   0  0  0  0  0  0  0  0  0  0  0  0
   21.2853   12.4530   54.2212 N   0  0  0  0  0  0  0  0  0  0  0  0
   21.3320   11.9817   52.9853 C   0  0  0  0  0  0  0  0  0  0  0  0
   19.8551   14.1217   51.5685 H   0  0  0  0  0  0  0  0  0  0  0  0
   21.5864   14.6602   51.5670 H   0  0  0  0  0  0  0  0  0  0  0  0
   22.2771    6.4964   52.5050 C   0  0  0  0  0  0  0  0  0  0  0  0
   23.7084    6.5284   52.5074 O   0  0  0  0  0  0  0  0  0  0  0  0
   24.3415    5.9154   53.8922 P   0  0  0  0  0  0  0  0  0  0  0  0
   23.0411    5.4588   54.9477 O   0  0  0  0  0  0  0  0  0  0  0  0
   24.8840    4.5084   53.4485 O   0  0  0  0  0  0  0  0  0  0  0  0
   22.4996    6.2541   55.1443 H   0  0  0  0  0  0  0  0  0  0  0  0
   25.4646    6.6406   54.7695 O   0  0  0  0  0  0  0  0  0  0  0  0
   26.0111    8.1425   54.3227 P   0  0  0  0  0  0  0  0  0  0  0  0
   25.3079    9.2726   55.3647 O   0  0  0  0  0  0  0  0  0  0  0  0
   27.7106    8.2368   54.5165 O   0  0  0  0  0  0  0  0  0  0  0  0
   25.6283    8.4960   52.9248 O   0  0  0  0  0  0  0  0  0  0  0  0
   24.6801    8.8042   55.9913 H   0  0  0  0  0  0  0  0  0  0  0  0
   28.0009    9.0531   54.0640 H   0  0  0  0  0  0  0  0  0  0  0  0
 10 11  1  0  0  0
 11 12  2  0  0  0
 12 13  1  0  0  0
 13 14  2  0  0  0
 14 15  1  0  0  0
 15 16  1  0  0  0
 16 17  1  0  0  0
 17 18  2  0  0  0
 18 19  1  0  0  0
 16  1  1  0  0  0
  1  2  1  0  0  0
  2  3  1  0  0  0
  3 22  1  0  0  0
 22 23  1  0  0  0
 23 24  1  0  0  0
 24 25  1  0  0  0
 24 26  2  0  0  0
 24 28  1  0  0  0
 28 29  1  0  0  0
 29 30  1  0  0  0
 29 31  1  0  0  0
 29 32  2  0  0  0
  3  4  1  0  0  0
  4  5  1  0  0  0
  4  6  1  0  0  0
  6  7  1  0  0  0
 19 11  1  0  0  0
  6  1  1  0  0  0
 19 15  2  0  0  0
 10 20  1  0  0  0
 10 21  1  0  0  0
 25 27  1  0  0  0
 30 33  1  0  0  0
 31 34  1  0  0  0
  5  8  1  0  0  0
  7  9  1  0  0  0
M  END
> <minimizedAffinity>
12.88178

> <CNNscore>
0.4527673125

> <CNNaffinity>
5.6658282280

> <CNN_VS>
2.5653018951

> <CNNaffinity_variance>
0.1117094308

$$$$
[H]O[C@]1([H])[C@]([H])(C([H])([H])OP(=O)(O[H])OP(=O)(O[H])O[H])O[C@@]([H])(n2c([H])nc3c(N([H])[H])nc([H])nc32)[C@]1([H])O[H]


 34 36  0  0  0  0  0  0  0  0999 V2000
   20.5025    6.9519   53.2907 C   0  0  0  0  0  0  0  0  0  0  0  0
   21.1371    7.0371   54.5231 O   0  0  0  0  0  0  0  0  0  0  0  0
   22.4588    6.8153   54.2724 C   0  0  0  0  0  0  0  0  0  0  0  0
   22.5857    5.9900   53.0294 C   0  0  0  0  0  0  0  0  0  0  0  0
   23.3670    4.8572   53.1416 O   0  0  0  0  0  0  0  0  0  0  0  0
   21.1050    5.6824   52.8004 C   0  0  0  0  0  0  0  0  0  0  0  0
   20.7151    4.7235   53.7929 O   0  0  0  0  0  0  0  0  0  0  0  0
   24.1344    4.9563   52.4637 H   0  0  0  0  0  0  0  0  0  0  0  0
   21.0094    3.8483   53.5178 H   0  0  0  0  0  0  0  0  0  0  0  0
   21.8014   12.4776   51.2556 N   0  0  0  0  0  0  0  0  0  0  0  0
   21.5793   11.5573   52.3273 C   0  0  0  0  0  0  0  0  0  0  0  0
   21.7545   11.9125   53.6060 N   0  0  0  0  0  0  0  0  0  0  0  0
   21.5713   11.0013   54.6097 C   0  0  0  0  0  0  0  0  0  0  0  0
   21.2186    9.7388   54.3217 N   0  0  0  0  0  0  0  0  0  0  0  0
   21.0321    9.3467   53.0754 C   0  0  0  0  0  0  0  0  0  0  0  0
   20.6750    8.1439   52.5288 N   0  0  0  0  0  0  0  0  0  0  0  0
   20.6282    8.3303   51.1953 C   0  0  0  0  0  0  0  0  0  0  0  0
   20.9505    9.6025   50.9327 N   0  0  0  0  0  0  0  0  0  0  0  0
   21.2097   10.2710   52.0451 C   0  0  0  0  0  0  0  0  0  0  0  0
   22.8298   12.4894   50.9398 H   0  0  0  0  0  0  0  0  0  0  0  0
   21.1125   13.0625   50.8418 H   0  0  0  0  0  0  0  0  0  0  0  0
   23.2050    6.1345   55.4227 C   0  0  0  0  0  0  0  0  0  0  0  0
   24.5791    6.2262   55.0317 O   0  0  0  0  0  0  0  0  0  0  0  0
   25.0140    7.7607   54.6435 P   0  0  0  0  0  0  0  0  0  0  0  0
   24.9177    7.9504   52.9206 O   0  0  0  0  0  0  0  0  0  0  0  0
   23.7814    8.6147   55.1148 O   0  0  0  0  0  0  0  0  0  0  0  0
   25.5270    7.3070   52.4973 H   0  0  0  0  0  0  0  0  0  0  0  0
   26.3519    8.4750   55.1498 O   0  0  0  0  0  0  0  0  0  0  0  0
   27.6883    8.5043   54.1664 P   0  0  0  0  0  0  0  0  0  0  0  0
   28.7793    9.6177   54.8201 O   0  0  0  0  0  0  0  0  0  0  0  0
   28.4492    6.9695   54.1543 O   0  0  0  0  0  0  0  0  0  0  0  0
   27.3630    8.9326   52.7748 O   0  0  0  0  0  0  0  0  0  0  0  0
   28.3699   10.0533   55.6257 H   0  0  0  0  0  0  0  0  0  0  0  0
   29.0992    6.9830   53.4244 H   0  0  0  0  0  0  0  0  0  0  0  0
 10 11  1  0  0  0
 11 12  2  0  0  0
 12 13  1  0  0  0
 13 14  2  0  0  0
 14 15  1  0  0  0
 15 16  1  0  0  0
 16 17  1  0  0  0
 17 18  2  0  0  0
 18 19  1  0  0  0
 16  1  1  0  0  0
  1  2  1  0  0  0
  2  3  1  0  0  0
  3 22  1  0  0  0
 22 23  1  0  0  0
 23 24  1  0  0  0
 24 25  1  0  0  0
 24 26  2  0  0  0
 24 28  1  0  0  0
 28 29  1  0  0  0
 29 30  1  0  0  0
 29 31  1  0  0  0
 29 32  2  0  0  0
  3  4  1  0  0  0
  4  5  1  0  0  0
  4  6  1  0  0  0
  6  7  1  0  0  0
 19 11  1  0  0  0
  6  1  1  0  0  0
 19 15  2  0  0  0
 10 20  1  0  0  0
 10 21  1  0  0  0
 25 27  1  0  0  0
 30 33  1  0  0  0
 31 34  1  0  0  0
  5  8  1  0  0  0
  7  9  1  0  0  0
M  END
> <minimizedAffinity>
3.75998

> <CNNscore>
0.4467567503

> <CNNaffinity>
5.6675729752

> <CNN_VS>
2.5320265293

> <CNNaffinity_variance>
0.0886638016

$$$$
[H]O[C@]1([H])[C@]([H])(C([H])([H])OP(=O)(O[H])OP(=O)(O[H])O[H])O[C@@]([H])(n2c([H])nc3c(N([H])[H])nc([H])nc32)[C@]1([H])O[H]


 34 36  0  0  0  0  0  0  0  0999 V2000
   22.9554    8.7004   55.3772 C   0  0  0  0  0  0  0  0  0  0  0  0
   22.7044    8.6182   54.0137 O   0  0  0  0  0  0  0  0  0  0  0  0
   22.6348    9.9069   53.5741 C   0  0  0  0  0  0  0  0  0  0  0  0
   22.2220   10.7871   54.7130 C   0  0  0  0  0  0  0  0  0  0  0  0
   21.1483   11.6192   54.4662 O   0  0  0  0  0  0  0  0  0  0  0  0
   21.9204    9.7032   55.7492 C   0  0  0  0  0  0  0  0  0  0  0  0
   20.6921    9.0753   55.3575 O   0  0  0  0  0  0  0  0  0  0  0  0
   21.4827   12.5835   54.5959 H   0  0  0  0  0  0  0  0  0  0  0  0
   19.9538    9.6330   55.6261 H   0  0  0  0  0  0  0  0  0  0  0  0
   28.9527    9.3128   55.2376 N   0  0  0  0  0  0  0  0  0  0  0  0
   27.7448    8.7009   54.7780 C   0  0  0  0  0  0  0  0  0  0  0  0
   27.7417    7.8269   53.7640 N   0  0  0  0  0  0  0  0  0  0  0  0
   26.5670    7.2847   53.3200 C   0  0  0  0  0  0  0  0  0  0  0  0
   25.4033    7.6281   53.8938 N   0  0  0  0  0  0  0  0  0  0  0  0
   25.3606    8.4834   54.8982 C   0  0  0  0  0  0  0  0  0  0  0  0
   24.3267    8.9847   55.6415 N   0  0  0  0  0  0  0  0  0  0  0  0
   24.8766    9.8194   56.5448 C   0  0  0  0  0  0  0  0  0  0  0  0
   26.2018    9.8335   56.3586 N   0  0  0  0  0  0  0  0  0  0  0  0
   26.5547    9.0362   55.3628 C   0  0  0  0  0  0  0  0  0  0  0  0
   29.1895   10.2048   54.6845 H   0  0  0  0  0  0  0  0  0  0  0  0
   29.5348    8.9706   55.9669 H   0  0  0  0  0  0  0  0  0  0  0  0
   21.6832   10.1111   52.3925 C   0  0  0  0  0  0  0  0  0  0  0  0
   20.5597    9.2867   52.7205 O   0  0  0  0  0  0  0  0  0  0  0  0
   20.8164    7.7089   52.3476 P   0  0  0  0  0  0  0  0  0  0  0  0
   19.5372    6.7568   53.0336 O   0  0  0  0  0  0  0  0  0  0  0  0
   20.4639    7.6382   50.8174 O   0  0  0  0  0  0  0  0  0  0  0  0
   19.5387    6.8805   54.0078 H   0  0  0  0  0  0  0  0  0  0  0  0
   22.1963    6.9376   52.5884 O   0  0  0  0  0  0  0  0  0  0  0  0
   22.2782    5.7432   53.7376 P   0  0  0  0  0  0  0  0  0  0  0  0
   21.9732    6.4574   55.2391 O   0  0  0  0  0  0  0  0  0  0  0  0
   21.0629    4.5682   53.4591 O   0  0  0  0  0  0  0  0  0  0  0  0
   23.6215    5.0966   53.7934 O   0  0  0  0  0  0  0  0  0  0  0  0
   21.8580    7.4469   55.1213 H   0  0  0  0  0  0  0  0  0  0  0  0
   21.2742    3.8037   54.0303 H   0  0  0  0  0  0  0  0  0  0  0  0
 10 11  1  0  0  0
 11 12  2  0  0  0
 12 13  1  0  0  0
 13 14  2  0  0  0
 14 15  1  0  0  0
 15 16  1  0  0  0
 16 17  1  0  0  0
 17 18  2  0  0  0
 18 19  1  0  0  0
 16  1  1  0  0  0
  1  2  1  0  0  0
  2  3  1  0  0  0
  3 22  1  0  0  0
 22 23  1  0  0  0
 23 24  1  0  0  0
 24 25  1  0  0  0
 24 26  2  0  0  0
 24 28  1  0  0  0
 28 29  1  0  0  0
 29 30  1  0  0  0
 29 31  1  0  0  0
 29 32  2  0  0  0
  3  4  1  0  0  0
  4  5  1  0  0  0
  4  6  1  0  0  0
  6  7  1  0  0  0
 19 11  1  0  0  0
  6  1  1  0  0  0
 19 15  2  0  0  0
 10 20  1  0  0  0
 10 21  1  0  0  0
 25 27  1  0  0  0
 30 33  1  0  0  0
 31 34  1  0  0  0
  5  8  1  0  0  0
  7  9  1  0  0  0
M  END
> <minimizedAffinity>
7.84709

> <CNNscore>
0.4172375500

> <CNNaffinity>
5.4511198997

> <CNN_VS>
2.2744119167

> <CNNaffinity_variance>
0.1840059161

$$$$
[H]O[C@]1([H])[C@]([H])(C([H])([H])OP(=O)(O[H])OP(=O)(O[H])O[H])O[C@@]([H])(n2c([H])nc3c(N([H])[H])nc([H])nc32)[C@]1([H])O[H]


 34 36  0  0  0  0  0  0  0  0999 V2000
   25.3418    7.2164   53.2924 C   0  0  0  0  0  0  0  0  0  0  0  0
   24.4367    8.1163   52.7447 O   0  0  0  0  0  0  0  0  0  0  0  0
   23.6981    8.5791   53.7931 C   0  0  0  0  0  0  0  0  0  0  0  0
   23.6974    7.5487   54.8795 C   0  0  0  0  0  0  0  0  0  0  0  0
   22.4544    7.1885   55.3605 O   0  0  0  0  0  0  0  0  0  0  0  0
   24.4060    6.4187   54.1308 C   0  0  0  0  0  0  0  0  0  0  0  0
   23.4716    5.8927   53.1786 O   0  0  0  0  0  0  0  0  0  0  0  0
   22.4466    7.4138   56.3642 H   0  0  0  0  0  0  0  0  0  0  0  0
   22.8603    5.3012   53.6311 H   0  0  0  0  0  0  0  0  0  0  0  0
   29.0375   10.2677   56.9522 N   0  0  0  0  0  0  0  0  0  0  0  0
   27.7252    9.8896   56.5284 C   0  0  0  0  0  0  0  0  0  0  0  0
   26.6324   10.2718   57.2006 N   0  0  0  0  0  0  0  0  0  0  0  0
   25.3912    9.8647   56.7944 C   0  0  0  0  0  0  0  0  0  0  0  0
   25.2568    9.0724   55.7194 N   0  0  0  0  0  0  0  0  0  0  0  0
   26.3068    8.6747   55.0257 C   0  0  0  0  0  0  0  0  0  0  0  0
   26.4353    7.8861   53.9147 N   0  0  0  0  0  0  0  0  0  0  0  0
   27.7528    7.8272   53.6395 C   0  0  0  0  0  0  0  0  0  0  0  0
   28.4103    8.5507   54.5536 N   0  0  0  0  0  0  0  0  0  0  0  0
   27.5765    9.0908   55.4281 C   0  0  0  0  0  0  0  0  0  0  0  0
   29.4423    9.5807   57.6746 H   0  0  0  0  0  0  0  0  0  0  0  0
   29.5358   11.0718   56.6474 H   0  0  0  0  0  0  0  0  0  0  0  0
   22.2573    8.9440   53.4265 C   0  0  0  0  0  0  0  0  0  0  0  0
   21.7851    7.7860   52.7297 O   0  0  0  0  0  0  0  0  0  0  0  0
   20.6185    6.9898   53.5661 P   0  0  0  0  0  0  0  0  0  0  0  0
   20.1748    7.9401   54.9494 O   0  0  0  0  0  0  0  0  0  0  0  0
   19.3462    7.1577   52.6585 O   0  0  0  0  0  0  0  0  0  0  0  0
   20.9691    8.0686   55.5125 H   0  0  0  0  0  0  0  0  0  0  0  0
   20.7198    5.4608   54.0231 O   0  0  0  0  0  0  0  0  0  0  0  0
   19.6107    4.3619   53.4608 P   0  0  0  0  0  0  0  0  0  0  0  0
   19.1860    4.8227   51.8909 O   0  0  0  0  0  0  0  0  0  0  0  0
   20.3123    2.8012   53.3776 O   0  0  0  0  0  0  0  0  0  0  0  0
   18.3700    4.3292   54.2887 O   0  0  0  0  0  0  0  0  0  0  0  0
   19.6525    5.6792   51.6561 H   0  0  0  0  0  0  0  0  0  0  0  0
   19.5797    2.1704   53.2333 H   0  0  0  0  0  0  0  0  0  0  0  0
 10 11  1  0  0  0
 11 12  2  0  0  0
 12 13  1  0  0  0
 13 14  2  0  0  0
 14 15  1  0  0  0
 15 16  1  0  0  0
 16 17  1  0  0  0
 17 18  2  0  0  0
 18 19  1  0  0  0
 16  1  1  0  0  0
  1  2  1  0  0  0
  2  3  1  0  0  0
  3 22  1  0  0  0
 22 23  1  0  0  0
 23 24  1  0  0  0
 24 25  1  0  0  0
 24 26  2  0  0  0
 24 28  1  0  0  0
 28 29  1  0  0  0
 29 30  1  0  0  0
 29 31  1  0  0  0
 29 32  2  0  0  0
  3  4  1  0  0  0
  4  5  1  0  0  0
  4  6  1  0  0  0
  6  7  1  0  0  0
 19 11  1  0  0  0
  6  1  1  0  0  0
 19 15  2  0  0  0
 10 20  1  0  0  0
 10 21  1  0  0  0
 25 27  1  0  0  0
 30 33  1  0  0  0
 31 34  1  0  0  0
  5  8  1  0  0  0
  7  9  1  0  0  0
M  END
> <minimizedAffinity>
17.13333

> <CNNscore>
0.4123155177

> <CNNaffinity>
5.3279485703

> <CNN_VS>
2.1967959404

> <CNNaffinity_variance>
0.7558105588

$$$$
[H]Oc1c([H])c([H])c(C(=O)O[C@@]2([H])[C@@]([H])(O[H])[C@]([H])(O[H])[C@]([H])(O[H])[C@]([H])(O[H])[C@@]2([H])O[H])c([H])c1O[H]


 29 30  0  0  0  0  0  0  0  0999 V2000
   20.5859    6.1677   53.1434 O   0  0  0  0  0  0  0  0  0  0  0  0
   21.5038    7.2444   53.1265 C   0  0  0  0  0  0  0  0  0  0  0  0
   22.7141    6.8095   53.8611 C   0  0  0  0  0  0  0  0  0  0  0  0
   23.5089    6.0587   52.9640 O   0  0  0  0  0  0  0  0  0  0  0  0
   23.5708    7.9073   54.3957 C   0  0  0  0  0  0  0  0  0  0  0  0
   22.7156    8.9251   55.1024 C   0  0  0  0  0  0  0  0  0  0  0  0
   23.4621    9.8785   55.7773 O   0  0  0  0  0  0  0  0  0  0  0  0
   21.7379    9.5273   54.1307 C   0  0  0  0  0  0  0  0  0  0  0  0
   20.9678   10.4906   54.7951 O   0  0  0  0  0  0  0  0  0  0  0  0
   20.7964    8.4257   53.7019 C   0  0  0  0  0  0  0  0  0  0  0  0
   20.0136    8.0919   54.8191 O   0  0  0  0  0  0  0  0  0  0  0  0
   19.8382    6.3455   53.7716 H   0  0  0  0  0  0  0  0  0  0  0  0
   22.8877    5.5450   52.3559 H   0  0  0  0  0  0  0  0  0  0  0  0
   23.9926    9.4033   56.4636 H   0  0  0  0  0  0  0  0  0  0  0  0
   20.7555   10.2182   55.7239 H   0  0  0  0  0  0  0  0  0  0  0  0
   19.0446    8.0827   54.6031 H   0  0  0  0  0  0  0  0  0  0  0  0
   24.3676    8.4891   53.3804 O   0  0  0  0  0  0  0  0  0  0  0  0
   25.7341    8.4864   53.3719 C   0  0  0  0  0  0  0  0  0  0  0  0
   26.3333    8.2867   52.2848 O   0  0  0  0  0  0  0  0  0  0  0  0
   26.5589    8.7028   54.5552 C   0  0  0  0  0  0  0  0  0  0  0  0
   26.0191    8.8302   55.8132 C   0  0  0  0  0  0  0  0  0  0  0  0
   26.7789    9.0348   56.9438 C   0  0  0  0  0  0  0  0  0  0  0  0
   26.2305    9.1631   58.2136 O   0  0  0  0  0  0  0  0  0  0  0  0
   28.1503    9.1169   56.8122 C   0  0  0  0  0  0  0  0  0  0  0  0
   28.9204    9.3235   57.9512 O   0  0  0  0  0  0  0  0  0  0  0  0
   28.7180    8.9925   55.5608 C   0  0  0  0  0  0  0  0  0  0  0  0
   27.9409    8.7882   54.4417 C   0  0  0  0  0  0  0  0  0  0  0  0
   25.2225    9.0979   58.2732 H   0  0  0  0  0  0  0  0  0  0  0  0
   29.9097    9.3964   57.9596 H   0  0  0  0  0  0  0  0  0  0  0  0
  1  2  1  0  0  0
  2  3  1  0  0  0
  3  4  1  0  0  0
  3  5  1  0  0  0
  5 17  1  0  0  0
 17 18  1  0  0  0
 18 19  2  0  0  0
 18 20  1  0  0  0
 20 21  2  0  0  0
 21 22  1  0  0  0
 22 23  1  0  0  0
 22 24  2  0  0  0
 24 25  1  0  0  0
 24 26  1  0  0  0
 26 27  2  0  0  0
  5  6  1  0  0  0
  6  7  1  0  0  0
  6  8  1  0  0  0
  8  9  1  0  0  0
  8 10  1  0  0  0
 10 11  1  0  0  0
 10  2  1  0  0  0
 27 20  1  0  0  0
  1 12  1  0  0  0
  4 13  1  0  0  0
 23 28  1  0  0  0
 25 29  1  0  0  0
  7 14  1  0  0  0
  9 15  1  0  0  0
 11 16  1  0  0  0
M  END
> <minimizedAffinity>
2.14806

> <CNNscore>
0.6529261470

> <CNNaffinity>
5.2269725800

> <CNN_VS>
3.4128270149

> <CNNaffinity_variance>
0.1642899364

$$$$
[H]Oc1c([H])c([H])c(C(=O)O[C@@]2([H])[C@@]([H])(O[H])[C@]([H])(O[H])[C@]([H])(O[H])[C@]([H])(O[H])[C@@]2([H])O[H])c([H])c1O[H]


 29 30  0  0  0  0  0  0  0  0999 V2000
   20.6975    5.3288   54.1948 O   0  0  0  0  0  0  0  0  0  0  0  0
   21.4404    6.2449   53.4132 C   0  0  0  0  0  0  0  0  0  0  0  0
   22.0388    7.2358   54.3372 C   0  0  0  0  0  0  0  0  0  0  0  0
   23.2179    6.6635   54.8685 O   0  0  0  0  0  0  0  0  0  0  0  0
   22.4208    8.5398   53.7219 C   0  0  0  0  0  0  0  0  0  0  0  0
   21.2924    9.0514   52.8665 C   0  0  0  0  0  0  0  0  0  0  0  0
   21.5079   10.3420   52.4087 O   0  0  0  0  0  0  0  0  0  0  0  0
   21.0156    8.0750   51.7563 C   0  0  0  0  0  0  0  0  0  0  0  0
   19.9826    8.5763   50.9538 O   0  0  0  0  0  0  0  0  0  0  0  0
   20.5041    6.8043   52.3946 C   0  0  0  0  0  0  0  0  0  0  0  0
   19.2370    7.0900   52.9287 O   0  0  0  0  0  0  0  0  0  0  0  0
   19.7221    5.4840   54.0964 H   0  0  0  0  0  0  0  0  0  0  0  0
   23.0581    5.6726   54.9792 H   0  0  0  0  0  0  0  0  0  0  0  0
   21.5723   10.9278   53.2030 H   0  0  0  0  0  0  0  0  0  0  0  0
   19.2916    9.0432   51.4891 H   0  0  0  0  0  0  0  0  0  0  0  0
   18.5574    6.4234   52.6472 H   0  0  0  0  0  0  0  0  0  0  0  0
   23.6363    8.4415   53.0027 O   0  0  0  0  0  0  0  0  0  0  0  0
   24.7387    7.7595   53.4353 C   0  0  0  0  0  0  0  0  0  0  0  0
   24.9416    6.5971   53.0010 O   0  0  0  0  0  0  0  0  0  0  0  0
   25.7118    8.2949   54.3806 C   0  0  0  0  0  0  0  0  0  0  0  0
   27.0675    8.1737   54.1866 C   0  0  0  0  0  0  0  0  0  0  0  0
   28.0036    8.6715   55.0660 C   0  0  0  0  0  0  0  0  0  0  0  0
   29.3728    8.5475   54.8671 O   0  0  0  0  0  0  0  0  0  0  0  0
   27.5637    9.3249   56.1992 C   0  0  0  0  0  0  0  0  0  0  0  0
   28.5058    9.8286   57.0891 O   0  0  0  0  0  0  0  0  0  0  0  0
   26.2083    9.4603   56.4183 C   0  0  0  0  0  0  0  0  0  0  0  0
   25.2872    8.9554   55.5267 C   0  0  0  0  0  0  0  0  0  0  0  0
   29.6597    8.0630   54.0263 H   0  0  0  0  0  0  0  0  0  0  0  0
   28.2898   10.3116   57.9282 H   0  0  0  0  0  0  0  0  0  0  0  0
  1  2  1  0  0  0
  2  3  1  0  0  0
  3  4  1  0  0  0
  3  5  1  0  0  0
  5 17  1  0  0  0
 17 18  1  0  0  0
 18 19  2  0  0  0
 18 20  1  0  0  0
 20 21  2  0  0  0
 21 22  1  0  0  0
 22 23  1  0  0  0
 22 24  2  0  0  0
 24 25  1  0  0  0
 24 26  1  0  0  0
 26 27  2  0  0  0
  5  6  1  0  0  0
  6  7  1  0  0  0
  6  8  1  0  0  0
  8  9  1  0  0  0
  8 10  1  0  0  0
 10 11  1  0  0  0
 10  2  1  0  0  0
 27 20  1  0  0  0
  1 12  1  0  0  0
  4 13  1  0  0  0
 23 28  1  0  0  0
 25 29  1  0  0  0
  7 14  1  0  0  0
  9 15  1  0  0  0
 11 16  1  0  0  0
M  END
> <minimizedAffinity>
-1.63788

> <CNNscore>
0.6426481605

> <CNNaffinity>
5.2068228722

> <CNN_VS>
3.3461551666

> <CNNaffinity_variance>
0.3340644538

$$$$
[H]Oc1c([H])c([H])c(C(=O)O[C@@]2([H])[C@@]([H])(O[H])[C@]([H])(O[H])[C@]([H])(O[H])[C@]([H])(O[H])[C@@]2([H])O[H])c([H])c1O[H]


 29 30  0  0  0  0  0  0  0  0999 V2000
   20.7050    9.7836   51.2141 O   0  0  0  0  0  0  0  0  0  0  0  0
   20.9574    9.0952   52.4242 C   0  0  0  0  0  0  0  0  0  0  0  0
   22.4192    8.8747   52.5146 C   0  0  0  0  0  0  0  0  0  0  0  0
   22.9980   10.0631   53.0174 O   0  0  0  0  0  0  0  0  0  0  0  0
   22.8473    7.7626   53.4118 C   0  0  0  0  0  0  0  0  0  0  0  0
   22.0235    6.5339   53.1319 C   0  0  0  0  0  0  0  0  0  0  0  0
   22.4865    5.4124   53.8023 O   0  0  0  0  0  0  0  0  0  0  0  0
   20.5732    6.8232   53.4067 C   0  0  0  0  0  0  0  0  0  0  0  0
   19.8229    5.6645   53.1678 O   0  0  0  0  0  0  0  0  0  0  0  0
   20.1242    7.8574   52.4004 C   0  0  0  0  0  0  0  0  0  0  0  0
   20.1209    7.2357   51.1411 O   0  0  0  0  0  0  0  0  0  0  0  0
   20.2996    9.1805   50.5379 H   0  0  0  0  0  0  0  0  0  0  0  0
   22.4712   10.8427   52.6509 H   0  0  0  0  0  0  0  0  0  0  0  0
   23.4055    5.2376   53.4812 H   0  0  0  0  0  0  0  0  0  0  0  0
   20.1662    5.1553   52.3902 H   0  0  0  0  0  0  0  0  0  0  0  0
   19.2639    7.3773   50.6603 H   0  0  0  0  0  0  0  0  0  0  0  0
   22.7967    8.1425   54.7747 O   0  0  0  0  0  0  0  0  0  0  0  0
   23.6903    8.9822   55.3779 C   0  0  0  0  0  0  0  0  0  0  0  0
   23.2536    9.9261   56.0845 O   0  0  0  0  0  0  0  0  0  0  0  0
   25.1384    8.8575   55.2572 C   0  0  0  0  0  0  0  0  0  0  0  0
   25.9979    9.3065   56.2319 C   0  0  0  0  0  0  0  0  0  0  0  0
   27.3680    9.1989   56.1387 C   0  0  0  0  0  0  0  0  0  0  0  0
   28.2337    9.6536   57.1253 O   0  0  0  0  0  0  0  0  0  0  0  0
   27.9094    8.6122   55.0129 C   0  0  0  0  0  0  0  0  0  0  0  0
   29.2919    8.5020   54.9152 O   0  0  0  0  0  0  0  0  0  0  0  0
   27.0694    8.1531   54.0194 C   0  0  0  0  0  0  0  0  0  0  0  0
   25.7011    8.2699   54.1312 C   0  0  0  0  0  0  0  0  0  0  0  0
   27.8026   10.0781   57.9364 H   0  0  0  0  0  0  0  0  0  0  0  0
   29.7744    8.0974   54.1487 H   0  0  0  0  0  0  0  0  0  0  0  0
  1  2  1  0  0  0
  2  3  1  0  0  0
  3  4  1  0  0  0
  3  5  1  0  0  0
  5 17  1  0  0  0
 17 18  1  0  0  0
 18 19  2  0  0  0
 18 20  1  0  0  0
 20 21  2  0  0  0
 21 22  1  0  0  0
 22 23  1  0  0  0
 22 24  2  0  0  0
 24 25  1  0  0  0
 24 26  1  0  0  0
 26 27  2  0  0  0
  5  6  1  0  0  0
  6  7  1  0  0  0
  6  8  1  0  0  0
  8  9  1  0  0  0
  8 10  1  0  0  0
 10 11  1  0  0  0
 10  2  1  0  0  0
 27 20  1  0  0  0
  1 12  1  0  0  0
  4 13  1  0  0  0
 23 28  1  0  0  0
 25 29  1  0  0  0
  7 14  1  0  0  0
  9 15  1  0  0  0
 11 16  1  0  0  0
M  END
> <minimizedAffinity>
-0.31226

> <CNNscore>
0.6024788618

> <CNNaffinity>
5.3022971153

> <CNN_VS>
3.1945219040

> <CNNaffinity_variance>
0.2268307954

$$$$
[H]Oc1c([H])c([H])c(C(=O)O[C@@]2([H])[C@@]([H])(O[H])[C@]([H])(O[H])[C@]([H])(O[H])[C@]([H])(O[H])[C@@]2([H])O[H])c([H])c1O[H]


 29 30  0  0  0  0  0  0  0  0999 V2000
   23.0988    5.7330   52.3229 O   0  0  0  0  0  0  0  0  0  0  0  0
   23.0413    6.8455   53.1954 C   0  0  0  0  0  0  0  0  0  0  0  0
   22.2965    6.4250   54.4046 C   0  0  0  0  0  0  0  0  0  0  0  0
   23.2067    5.7508   55.2514 O   0  0  0  0  0  0  0  0  0  0  0  0
   21.6889    7.5297   55.2018 C   0  0  0  0  0  0  0  0  0  0  0  0
   20.9579    8.4772   54.2883 C   0  0  0  0  0  0  0  0  0  0  0  0
   20.2198    9.4265   54.9780 O   0  0  0  0  0  0  0  0  0  0  0  0
   21.9256    9.0853   53.3102 C   0  0  0  0  0  0  0  0  0  0  0  0
   21.2371    9.9839   52.4849 O   0  0  0  0  0  0  0  0  0  0  0  0
   22.4299    7.9684   52.4259 C   0  0  0  0  0  0  0  0  0  0  0  0
   21.3504    7.5502   51.6308 O   0  0  0  0  0  0  0  0  0  0  0  0
   22.4827    5.8502   51.5535 H   0  0  0  0  0  0  0  0  0  0  0  0
   23.8542    5.2421   54.6669 H   0  0  0  0  0  0  0  0  0  0  0  0
   19.5429    8.9408   55.5111 H   0  0  0  0  0  0  0  0  0  0  0  0
   20.3279    9.6590   52.2617 H   0  0  0  0  0  0  0  0  0  0  0  0
   21.5918    7.5122   50.6685 H   0  0  0  0  0  0  0  0  0  0  0  0
   22.6547    8.1911   55.9981 O   0  0  0  0  0  0  0  0  0  0  0  0
   23.4937    9.1695   55.5440 C   0  0  0  0  0  0  0  0  0  0  0  0
   23.0146   10.2984   55.2666 O   0  0  0  0  0  0  0  0  0  0  0  0
   24.9292    8.9925   55.3561 C   0  0  0  0  0  0  0  0  0  0  0  0
   25.8488    9.4089   56.2895 C   0  0  0  0  0  0  0  0  0  0  0  0
   27.2082    9.2518   56.1325 C   0  0  0  0  0  0  0  0  0  0  0  0
   28.1349    9.6737   57.0775 O   0  0  0  0  0  0  0  0  0  0  0  0
   27.6750    8.6471   54.9832 C   0  0  0  0  0  0  0  0  0  0  0  0
   29.0465    8.4868   54.8213 O   0  0  0  0  0  0  0  0  0  0  0  0
   26.7735    8.2197   54.0301 C   0  0  0  0  0  0  0  0  0  0  0  0
   25.4171    8.3860   54.2054 C   0  0  0  0  0  0  0  0  0  0  0  0
   27.7578   10.1127   57.9076 H   0  0  0  0  0  0  0  0  0  0  0  0
   29.4778    8.0658   54.0333 H   0  0  0  0  0  0  0  0  0  0  0  0
  1  2  1  0  0  0
  2  3  1  0  0  0
  3  4  1  0  0  0
  3  5  1  0  0  0
  5 17  1  0  0  0
 17 18  1  0  0  0
 18 19  2  0  0  0
 18 20  1  0  0  0
 20 21  2  0  0  0
 21 22  1  0  0  0
 22 23  1  0  0  0
 22 24  2  0  0  0
 24 25  1  0  0  0
 24 26  1  0  0  0
 26 27  2  0  0  0
  5  6  1  0  0  0
  6  7  1  0  0  0
  6  8  1  0  0  0
  8  9  1  0  0  0
  8 10  1  0  0  0
 10 11  1  0  0  0
 10  2  1  0  0  0
 27 20  1  0  0  0
  1 12  1  0  0  0
  4 13  1  0  0  0
 23 28  1  0  0  0
 25 29  1  0  0  0
  7 14  1  0  0  0
  9 15  1  0  0  0
 11 16  1  0  0  0
M  END
> <minimizedAffinity>
-1.72805

> <CNNscore>
0.5781299472

> <CNNaffinity>
5.2662363052

> <CNN_VS>
3.0445690155

> <CNNaffinity_variance>
0.2850297093

$$$$
[H]Oc1c([H])c([H])c(C(=O)O[C@@]2([H])[C@@]([H])(O[H])[C@]([H])(O[H])[C@]([H])(O[H])[C@]([H])(O[H])[C@@]2([H])O[H])c([H])c1O[H]


 29 30  0  0  0  0  0  0  0  0999 V2000
   21.7383    6.4959   51.3263 O   0  0  0  0  0  0  0  0  0  0  0  0
   22.2243    6.9661   52.5692 C   0  0  0  0  0  0  0  0  0  0  0  0
   23.0027    5.8680   53.1872 C   0  0  0  0  0  0  0  0  0  0  0  0
   24.2979    5.8936   52.6199 O   0  0  0  0  0  0  0  0  0  0  0  0
   23.1685    5.9516   54.6673 C   0  0  0  0  0  0  0  0  0  0  0  0
   21.8419    6.2484   55.3144 C   0  0  0  0  0  0  0  0  0  0  0  0
   21.8874    6.1622   56.6972 O   0  0  0  0  0  0  0  0  0  0  0  0
   21.3263    7.5748   54.8271 C   0  0  0  0  0  0  0  0  0  0  0  0
   20.1057    7.8499   55.4570 O   0  0  0  0  0  0  0  0  0  0  0  0
   21.0400    7.4289   53.3504 C   0  0  0  0  0  0  0  0  0  0  0  0
   19.9415    6.5629   53.2251 O   0  0  0  0  0  0  0  0  0  0  0  0
   20.7650    6.3060   51.3720 H   0  0  0  0  0  0  0  0  0  0  0  0
   24.2070    6.1735   51.6540 H   0  0  0  0  0  0  0  0  0  0  0  0
   22.1312    5.2311   56.9249 H   0  0  0  0  0  0  0  0  0  0  0  0
   19.5578    7.0327   55.5751 H   0  0  0  0  0  0  0  0  0  0  0  0
   19.2367    6.9411   52.6369 H   0  0  0  0  0  0  0  0  0  0  0  0
   24.1633    6.8917   55.0288 O   0  0  0  0  0  0  0  0  0  0  0  0
   24.3952    8.0657   54.3690 C   0  0  0  0  0  0  0  0  0  0  0  0
   25.5220    8.2537   53.8437 O   0  0  0  0  0  0  0  0  0  0  0  0
   23.4108    9.1328   54.2294 C   0  0  0  0  0  0  0  0  0  0  0  0
   22.8998    9.5052   53.0086 C   0  0  0  0  0  0  0  0  0  0  0  0
   21.9698   10.5095   52.8538 C   0  0  0  0  0  0  0  0  0  0  0  0
   21.4553   10.8835   51.6189 O   0  0  0  0  0  0  0  0  0  0  0  0
   21.5262   11.1778   53.9769 C   0  0  0  0  0  0  0  0  0  0  0  0
   20.5875   12.1922   53.8245 O   0  0  0  0  0  0  0  0  0  0  0  0
   22.0229   10.8240   55.2145 C   0  0  0  0  0  0  0  0  0  0  0  0
   22.9529    9.8164   55.3487 C   0  0  0  0  0  0  0  0  0  0  0  0
   21.8025   10.3727   50.8174 H   0  0  0  0  0  0  0  0  0  0  0  0
   20.2088   12.7288   54.5679 H   0  0  0  0  0  0  0  0  0  0  0  0
  1  2  1  0  0  0
  2  3  1  0  0  0
  3  4  1  0  0  0
  3  5  1  0  0  0
  5 17  1  0  0  0
 17 18  1  0  0  0
 18 19  2  0  0  0
 18 20  1  0  0  0
 20 21  2  0  0  0
 21 22  1  0  0  0
 22 23  1  0  0  0
 22 24  2  0  0  0
 24 25  1  0  0  0
 24 26  1  0  0  0
 26 27  2  0  0  0
  5  6  1  0  0  0
  6  7  1  0  0  0
  6  8  1  0  0  0
  8  9  1  0  0  0
  8 10  1  0  0  0
 10 11  1  0  0  0
 10  2  1  0  0  0
 27 20  1  0  0  0
  1 12  1  0  0  0
  4 13  1  0  0  0
 23 28  1  0  0  0
 25 29  1  0  0  0
  7 14  1  0  0  0
  9 15  1  0  0  0
 11 16  1  0  0  0
M  END
> <minimizedAffinity>
2.98183

> <CNNscore>
0.5756708384

> <CNNaffinity>
5.6193394661

> <CNN_VS>
3.2348897457

> <CNNaffinity_variance>
0.5855704546

$$$$
[H]Oc1c([H])c([H])c(C(=O)O[C@@]2([H])[C@@]([H])(O[H])[C@]([H])(O[H])[C@]([H])(O[H])[C@]([H])(O[H])[C@@]2([H])O[H])c([H])c1O[H]


 29 30  0  0  0  0  0  0  0  0999 V2000
   21.4928   10.9057   51.1355 O   0  0  0  0  0  0  0  0  0  0  0  0
   21.8231   10.0187   52.1873 C   0  0  0  0  0  0  0  0  0  0  0  0
   20.9124    8.8547   52.0907 C   0  0  0  0  0  0  0  0  0  0  0  0
   21.4476    7.9755   51.1208 O   0  0  0  0  0  0  0  0  0  0  0  0
   20.7367    8.0700   53.3470 C   0  0  0  0  0  0  0  0  0  0  0  0
   20.4753    9.0024   54.4999 C   0  0  0  0  0  0  0  0  0  0  0  0
   20.1250    8.3341   55.6627 O   0  0  0  0  0  0  0  0  0  0  0  0
   21.6516    9.9216   54.6845 C   0  0  0  0  0  0  0  0  0  0  0  0
   21.4060   10.7646   55.7760 O   0  0  0  0  0  0  0  0  0  0  0  0
   21.7319   10.7985   53.4563 C   0  0  0  0  0  0  0  0  0  0  0  0
   20.6173   11.6525   53.4837 O   0  0  0  0  0  0  0  0  0  0  0  0
   21.0101   11.7024   51.4784 H   0  0  0  0  0  0  0  0  0  0  0  0
   21.8786    8.5359   50.3998 H   0  0  0  0  0  0  0  0  0  0  0  0
   19.2867    7.8431   55.4774 H   0  0  0  0  0  0  0  0  0  0  0  0
   20.4547   11.0376   55.8259 H   0  0  0  0  0  0  0  0  0  0  0  0
   20.8750   12.6022   53.3521 H   0  0  0  0  0  0  0  0  0  0  0  0
   21.8401    7.2164   53.5879 O   0  0  0  0  0  0  0  0  0  0  0  0
   23.0865    7.3936   53.0564 C   0  0  0  0  0  0  0  0  0  0  0  0
   23.2636    7.1576   51.8342 O   0  0  0  0  0  0  0  0  0  0  0  0
   24.2439    7.8450   53.8205 C   0  0  0  0  0  0  0  0  0  0  0  0
   25.5139    7.8522   53.2939 C   0  0  0  0  0  0  0  0  0  0  0  0
   26.6206    8.2741   53.9972 C   0  0  0  0  0  0  0  0  0  0  0  0
   27.9026    8.2802   53.4624 O   0  0  0  0  0  0  0  0  0  0  0  0
   26.4512    8.7119   55.2950 C   0  0  0  0  0  0  0  0  0  0  0  0
   27.5660    9.1384   56.0081 O   0  0  0  0  0  0  0  0  0  0  0  0
   25.1871    8.7149   55.8479 C   0  0  0  0  0  0  0  0  0  0  0  0
   24.0923    8.2889   55.1281 C   0  0  0  0  0  0  0  0  0  0  0  0
   27.9901    7.9528   52.5089 H   0  0  0  0  0  0  0  0  0  0  0  0
   27.5469    9.4696   56.9429 H   0  0  0  0  0  0  0  0  0  0  0  0
  1  2  1  0  0  0
  2  3  1  0  0  0
  3  4  1  0  0  0
  3  5  1  0  0  0
  5 17  1  0  0  0
 17 18  1  0  0  0
 18 19  2  0  0  0
 18 20  1  0  0  0
 20 21  2  0  0  0
 21 22  1  0  0  0
 22 23  1  0  0  0
 22 24  2  0  0  0
 24 25  1  0  0  0
 24 26  1  0  0  0
 26 27  2  0  0  0
  5  6  1  0  0  0
  6  7  1  0  0  0
  6  8  1  0  0  0
  8  9  1  0  0  0
  8 10  1  0  0  0
 10 11  1  0  0  0
 10  2  1  0  0  0
 27 20  1  0  0  0
  1 12  1  0  0  0
  4 13  1  0  0  0
 23 28  1  0  0  0
 25 29  1  0  0  0
  7 14  1  0  0  0
  9 15  1  0  0  0
 11 16  1  0  0  0
M  END
> <minimizedAffinity>
2.81508

> <CNNscore>
0.5627291203

> <CNNaffinity>
5.2230677605

> <CNN_VS>
2.9391722679

> <CNNaffinity_variance>
0.1652037501

$$$$
[H]Oc1c([H])c([H])c(C(=O)O[C@@]2([H])[C@@]([H])(O[H])[C@]([H])(O[H])[C@]([H])(O[H])[C@]([H])(O[H])[C@@]2([H])O[H])c([H])c1O[H]


 29 30  0  0  0  0  0  0  0  0999 V2000
   19.2124    7.1527   53.2342 O   0  0  0  0  0  0  0  0  0  0  0  0
   20.5863    7.4483   53.3989 C   0  0  0  0  0  0  0  0  0  0  0  0
   21.2532    7.2047   52.0990 C   0  0  0  0  0  0  0  0  0  0  0  0
   21.0557    8.3534   51.2981 O   0  0  0  0  0  0  0  0  0  0  0  0
   22.7234    6.9622   52.1662 C   0  0  0  0  0  0  0  0  0  0  0  0
   23.0273    5.9595   53.2475 C   0  0  0  0  0  0  0  0  0  0  0  0
   24.3525    5.5528   53.2461 O   0  0  0  0  0  0  0  0  0  0  0  0
   22.5821    6.5000   54.5788 C   0  0  0  0  0  0  0  0  0  0  0  0
   22.8950    5.5689   55.5777 O   0  0  0  0  0  0  0  0  0  0  0  0
   21.0758    6.6138   54.5351 C   0  0  0  0  0  0  0  0  0  0  0  0
   20.5626    5.3070   54.5025 O   0  0  0  0  0  0  0  0  0  0  0  0
   18.9763    6.2949   53.6745 H   0  0  0  0  0  0  0  0  0  0  0  0
   20.1405    8.7241   51.5093 H   0  0  0  0  0  0  0  0  0  0  0  0
   24.5242    5.1167   52.3751 H   0  0  0  0  0  0  0  0  0  0  0  0
   22.7660    4.6365   55.2679 H   0  0  0  0  0  0  0  0  0  0  0  0
   19.8583    5.1683   55.1884 H   0  0  0  0  0  0  0  0  0  0  0  0
   23.4442    8.1687   52.3365 O   0  0  0  0  0  0  0  0  0  0  0  0
   23.5431    8.8515   53.5161 C   0  0  0  0  0  0  0  0  0  0  0  0
   22.5401    9.4815   53.9380 O   0  0  0  0  0  0  0  0  0  0  0  0
   24.7505    8.9008   54.3328 C   0  0  0  0  0  0  0  0  0  0  0  0
   25.9268    8.3067   53.9409 C   0  0  0  0  0  0  0  0  0  0  0  0
   27.0783    8.3410   54.6961 C   0  0  0  0  0  0  0  0  0  0  0  0
   28.2654    7.7397   54.2974 O   0  0  0  0  0  0  0  0  0  0  0  0
   27.0549    9.0032   55.9067 C   0  0  0  0  0  0  0  0  0  0  0  0
   28.2153    9.0399   56.6717 O   0  0  0  0  0  0  0  0  0  0  0  0
   25.8872    9.6082   56.3239 C   0  0  0  0  0  0  0  0  0  0  0  0
   24.7454    9.5628   55.5542 C   0  0  0  0  0  0  0  0  0  0  0  0
   28.2467    7.2632   53.4049 H   0  0  0  0  0  0  0  0  0  0  0  0
   28.2984    9.4890   57.5523 H   0  0  0  0  0  0  0  0  0  0  0  0
  1  2  1  0  0  0
  2  3  1  0  0  0
  3  4  1  0  0  0
  3  5  1  0  0  0
  5 17  1  0  0  0
 17 18  1  0  0  0
 18 19  2  0  0  0
 18 20  1  0  0  0
 20 21  2  0  0  0
 21 22  1  0  0  0
 22 23  1  0  0  0
 22 24  2  0  0  0
 24 25  1  0  0  0
 24 26  1  0  0  0
 26 27  2  0  0  0
  5  6  1  0  0  0
  6  7  1  0  0  0
  6  8  1  0  0  0
  8  9  1  0  0  0
  8 10  1  0  0  0
 10 11  1  0  0  0
 10  2  1  0  0  0
 27 20  1  0  0  0
  1 12  1  0  0  0
  4 13  1  0  0  0
 23 28  1  0  0  0
 25 29  1  0  0  0
  7 14  1  0  0  0
  9 15  1  0  0  0
 11 16  1  0  0  0
M  END
> <minimizedAffinity>
4.78468

> <CNNscore>
0.5618623495

> <CNNaffinity>
5.1654052734

> <CNN_VS>
2.9022467136

> <CNNaffinity_variance>
0.4070566595

$$$$
[H]Oc1c([H])c([H])c(C(=O)O[C@@]2([H])[C@@]([H])(O[H])[C@]([H])(O[H])[C@]([H])(O[H])[C@]([H])(O[H])[C@@]2([H])O[H])c([H])c1O[H]


 29 30  0  0  0  0  0  0  0  0999 V2000
   21.8445    5.7650   56.1353 O   0  0  0  0  0  0  0  0  0  0  0  0
   22.2425    6.7867   55.2410 C   0  0  0  0  0  0  0  0  0  0  0  0
   21.2432    7.8758   55.3359 C   0  0  0  0  0  0  0  0  0  0  0  0
   21.5806    8.6656   56.4595 O   0  0  0  0  0  0  0  0  0  0  0  0
   21.1752    8.7901   54.1593 C   0  0  0  0  0  0  0  0  0  0  0  0
   21.1363    7.9850   52.8877 C   0  0  0  0  0  0  0  0  0  0  0  0
   20.8922    8.7628   51.7666 O   0  0  0  0  0  0  0  0  0  0  0  0
   22.3916    7.1647   52.7692 C   0  0  0  0  0  0  0  0  0  0  0  0
   22.3536    6.4419   51.5697 O   0  0  0  0  0  0  0  0  0  0  0  0
   22.3758    6.1565   53.8949 C   0  0  0  0  0  0  0  0  0  0  0  0
   21.3407    5.2474   53.6221 O   0  0  0  0  0  0  0  0  0  0  0  0
   21.4711    4.9868   55.6452 H   0  0  0  0  0  0  0  0  0  0  0  0
   21.9542    8.0512   57.1684 H   0  0  0  0  0  0  0  0  0  0  0  0
   20.0027    9.1785   51.8863 H   0  0  0  0  0  0  0  0  0  0  0  0
   21.4398    6.1210   51.3599 H   0  0  0  0  0  0  0  0  0  0  0  0
   21.6487    4.3056   53.6847 H   0  0  0  0  0  0  0  0  0  0  0  0
   22.2342    9.7296   54.1665 O   0  0  0  0  0  0  0  0  0  0  0  0
   23.2510    9.7429   55.0794 C   0  0  0  0  0  0  0  0  0  0  0  0
   23.0429   10.2489   56.2114 O   0  0  0  0  0  0  0  0  0  0  0  0
   24.5820    9.2023   54.8278 C   0  0  0  0  0  0  0  0  0  0  0  0
   25.6313    9.4018   55.6935 C   0  0  0  0  0  0  0  0  0  0  0  0
   26.8958    8.9007   55.4758 C   0  0  0  0  0  0  0  0  0  0  0  0
   27.9539    9.1040   56.3524 O   0  0  0  0  0  0  0  0  0  0  0  0
   27.1255    8.1611   54.3335 C   0  0  0  0  0  0  0  0  0  0  0  0
   28.4006    7.6536   54.1103 O   0  0  0  0  0  0  0  0  0  0  0  0
   26.0898    7.9458   53.4477 C   0  0  0  0  0  0  0  0  0  0  0  0
   24.8317    8.4556   53.6832 C   0  0  0  0  0  0  0  0  0  0  0  0
   27.7499    9.6505   57.1793 H   0  0  0  0  0  0  0  0  0  0  0  0
   28.6640    7.1123   53.3219 H   0  0  0  0  0  0  0  0  0  0  0  0
  1  2  1  0  0  0
  2  3  1  0  0  0
  3  4  1  0  0  0
  3  5  1  0  0  0
  5 17  1  0  0  0
 17 18  1  0  0  0
 18 19  2  0  0  0
 18 20  1  0  0  0
 20 21  2  0  0  0
 21 22  1  0  0  0
 22 23  1  0  0  0
 22 24  2  0  0  0
 24 25  1  0  0  0
 24 26  1  0  0  0
 26 27  2  0  0  0
  5  6  1  0  0  0
  6  7  1  0  0  0
  6  8  1  0  0  0
  8  9  1  0  0  0
  8 10  1  0  0  0
 10 11  1  0  0  0
 10  2  1  0  0  0
 27 20  1  0  0  0
  1 12  1  0  0  0
  4 13  1  0  0  0
 23 28  1  0  0  0
 25 29  1  0  0  0
  7 14  1  0  0  0
  9 15  1  0  0  0
 11 16  1  0  0  0
M  END
> <minimizedAffinity>
0.45819

> <CNNscore>
0.5573869348

> <CNNaffinity>
5.4382371902

> <CNN_VS>
3.0312023163

> <CNNaffinity_variance>
0.1830646992

$$$$
[H]Oc1c([H])c([H])c(C(=O)O[C@@]2([H])[C@@]([H])(O[H])[C@]([H])(O[H])[C@]([H])(O[H])[C@]([H])(O[H])[C@@]2([H])O[H])c([H])c1O[H]


 29 30  0  0  0  0  0  0  0  0999 V2000
   20.4535   10.5669   54.8762 O   0  0  0  0  0  0  0  0  0  0  0  0
   21.0607    9.3026   54.6895 C   0  0  0  0  0  0  0  0  0  0  0  0
   22.5047    9.5325   54.4537 C   0  0  0  0  0  0  0  0  0  0  0  0
   23.1213    9.6924   55.7164 O   0  0  0  0  0  0  0  0  0  0  0  0
   23.2241    8.4325   53.7485 C   0  0  0  0  0  0  0  0  0  0  0  0
   22.4335    7.9941   52.5445 C   0  0  0  0  0  0  0  0  0  0  0  0
   23.1268    7.1007   51.7427 O   0  0  0  0  0  0  0  0  0  0  0  0
   21.0933    7.4697   52.9823 C   0  0  0  0  0  0  0  0  0  0  0  0
   20.3800    7.0413   51.8553 O   0  0  0  0  0  0  0  0  0  0  0  0
   20.3297    8.6314   53.5750 C   0  0  0  0  0  0  0  0  0  0  0  0
   20.0305    9.5108   52.5217 O   0  0  0  0  0  0  0  0  0  0  0  0
   19.9212   10.8287   54.0803 H   0  0  0  0  0  0  0  0  0  0  0  0
   22.4687   10.1700   56.3210 H   0  0  0  0  0  0  0  0  0  0  0  0
   23.9364    7.5664   51.4173 H   0  0  0  0  0  0  0  0  0  0  0  0
   20.5352    7.6299   51.0734 H   0  0  0  0  0  0  0  0  0  0  0  0
   19.0694    9.7597   52.5085 H   0  0  0  0  0  0  0  0  0  0  0  0
   23.5140    7.3554   54.6203 O   0  0  0  0  0  0  0  0  0  0  0  0
   24.7741    6.9202   54.9207 C   0  0  0  0  0  0  0  0  0  0  0  0
   24.9352    5.7225   55.2679 O   0  0  0  0  0  0  0  0  0  0  0  0
   25.9640    7.7618   54.8654 C   0  0  0  0  0  0  0  0  0  0  0  0
   26.4025    8.4855   55.9490 C   0  0  0  0  0  0  0  0  0  0  0  0
   27.5229    9.2862   55.9189 C   0  0  0  0  0  0  0  0  0  0  0  0
   27.9634   10.0163   57.0156 O   0  0  0  0  0  0  0  0  0  0  0  0
   28.2442    9.3693   54.7453 C   0  0  0  0  0  0  0  0  0  0  0  0
   29.3757   10.1765   54.7112 O   0  0  0  0  0  0  0  0  0  0  0  0
   27.8261    8.6532   53.6426 C   0  0  0  0  0  0  0  0  0  0  0  0
   26.7023    7.8576   53.6925 C   0  0  0  0  0  0  0  0  0  0  0  0
   27.4109    9.9319   57.8592 H   0  0  0  0  0  0  0  0  0  0  0  0
   29.9580   10.3013   53.9179 H   0  0  0  0  0  0  0  0  0  0  0  0
  1  2  1  0  0  0
  2  3  1  0  0  0
  3  4  1  0  0  0
  3  5  1  0  0  0
  5 17  1  0  0  0
 17 18  1  0  0  0
 18 19  2  0  0  0
 18 20  1  0  0  0
 20 21  2  0  0  0
 21 22  1  0  0  0
 22 23  1  0  0  0
 22 24  2  0  0  0
 24 25  1  0  0  0
 24 26  1  0  0  0
 26 27  2  0  0  0
  5  6  1  0  0  0
  6  7  1  0  0  0
  6  8  1  0  0  0
  8  9  1  0  0  0
  8 10  1  0  0  0
 10 11  1  0  0  0
 10  2  1  0  0  0
 27 20  1  0  0  0
  1 12  1  0  0  0
  4 13  1  0  0  0
 23 28  1  0  0  0
 25 29  1  0  0  0
  7 14  1  0  0  0
  9 15  1  0  0  0
 11 16  1  0  0  0
M  END
> <minimizedAffinity>
7.08376

> <CNNscore>
0.5409710407

> <CNNaffinity>
5.3784761429

> <CNN_VS>
2.9095997810

> <CNNaffinity_variance>
0.5649018288

$$$$
[H]c1c([H])c(Cl)c(-c2c([H])c3c([H])nc(N([H])c4c([H])c([H])c(N5C([H])([H])C([H])([H])N(C([H])([H])[H])C([H])([H])C5([H])[H])c([H])c4[H])nc3n(C([H])([H])[H])c2=O)c(Cl)c1[H]


 35 39  0  0  0  0  0  0  0  0999 V2000
   24.6359    7.5882   53.9878 C   0  0  0  0  0  0  0  0  0  0  0  0
   24.5435    6.4341   54.7276 N   0  0  0  0  0  0  0  0  0  0  0  0
   23.4402    5.6891   54.7877 C   0  0  0  0  0  0  0  0  0  0  0  0
   22.3185    6.0439   54.1001 C   0  0  0  0  0  0  0  0  0  0  0  0
   21.1490    5.2884   54.1415 C   0  0  0  0  0  0  0  0  0  0  0  0
   20.0354    5.6811   53.4322 C   0  0  0  0  0  0  0  0  0  0  0  0
   20.1521    6.8395   52.6988 C   0  0  0  0  0  0  0  0  0  0  0  0
   19.1453    7.2173   52.0421 O   0  0  0  0  0  0  0  0  0  0  0  0
   21.2825    7.5661   52.6612 N   0  0  0  0  0  0  0  0  0  0  0  0
   21.3772    8.7933   51.8725 C   0  0  0  0  0  0  0  0  0  0  0  0
   22.3840    7.1998   53.3481 C   0  0  0  0  0  0  0  0  0  0  0  0
   23.5173    7.9001   53.3300 N   0  0  0  0  0  0  0  0  0  0  0  0
   18.8192    4.8799   53.4863 C   0  0  0  0  0  0  0  0  0  0  0  0
   18.8671    3.5365   53.1792 C   0  0  0  0  0  0  0  0  0  0  0  0
   20.3639    2.7522   52.7199 Cl  0  0  0  0  0  0  0  0  0  0  0  0
   17.7245    2.7499   53.2225 C   0  0  0  0  0  0  0  0  0  0  0  0
   16.4931    3.2943   53.5778 C   0  0  0  0  0  0  0  0  0  0  0  0
   16.4457    4.6423   53.8858 C   0  0  0  0  0  0  0  0  0  0  0  0
   17.5952    5.3965   53.8341 C   0  0  0  0  0  0  0  0  0  0  0  0
   17.4848    7.0958   54.2321 Cl  0  0  0  0  0  0  0  0  0  0  0  0
   25.8409    8.3254   53.9905 N   0  0  0  0  0  0  0  0  0  0  0  0
   26.1896    8.5990   53.0169 H   0  0  0  0  0  0  0  0  0  0  0  0
   27.9854    9.5832   57.4332 C   0  0  0  0  0  0  0  0  0  0  0  0
   26.6110    9.5839   57.3605 C   0  0  0  0  0  0  0  0  0  0  0  0
   25.9289    9.1773   56.2366 C   0  0  0  0  0  0  0  0  0  0  0  0
   26.6111    8.7349   55.0913 C   0  0  0  0  0  0  0  0  0  0  0  0
   27.9782    8.7409   55.1828 C   0  0  0  0  0  0  0  0  0  0  0  0
   28.6705    9.1567   56.3314 C   0  0  0  0  0  0  0  0  0  0  0  0
   31.2953   10.5541   61.3923 C   0  0  0  0  0  0  0  0  0  0  0  0
   29.9251   10.9089   61.0240 N   0  0  0  0  0  0  0  0  0  0  0  0
   29.2060    9.6580   60.8826 C   0  0  0  0  0  0  0  0  0  0  0  0
   29.4164    9.1269   59.4790 C   0  0  0  0  0  0  0  0  0  0  0  0
   28.7003   10.0005   58.5736 N   0  0  0  0  0  0  0  0  0  0  0  0
   28.7650   11.4252   58.9248 C   0  0  0  0  0  0  0  0  0  0  0  0
   29.9905   11.6417   59.7854 C   0  0  0  0  0  0  0  0  0  0  0  0
 29 30  1  0  0  0
 30 31  1  0  0  0
 31 32  1  0  0  0
 32 33  1  0  0  0
 33 34  1  0  0  0
 34 35  1  0  0  0
 33 23  1  0  0  0
 23 24  2  0  0  0
 24 25  1  0  0  0
 25 26  2  0  0  0
 26 21  1  0  0  0
 21  1  1  0  0  0
  1  2  2  0  0  0
  2  3  1  0  0  0
  3  4  2  0  0  0
  4  5  1  0  0  0
  5  6  2  0  0  0
  6 13  1  0  0  0
 13 14  2  0  0  0
 14 15  1  0  0  0
 14 16  1  0  0  0
 16 17  2  0  0  0
 17 18  1  0  0  0
 18 19  2  0  0  0
 19 20  1  0  0  0
  6  7  1  0  0  0
  7  8  2  0  0  0
  7  9  1  0  0  0
  9 10  1  0  0  0
  9 11  1  0  0  0
 11 12  2  0  0  0
 26 27  1  0  0  0
 27 28  2  0  0  0
 35 30  1  0  0  0
 28 23  1  0  0  0
 12  1  1  0  0  0
 11  4  1  0  0  0
 19 13  1  0  0  0
 21 22  1  0  0  0
M  END
> <minimizedAffinity>
27.09510

> <CNNscore>
0.3601540625

> <CNNaffinity>
6.5811934471

> <CNN_VS>
2.3702435493

> <CNNaffinity_variance>
0.3134989738

$$$$
[H]c1c([H])c(Cl)c(-c2c([H])c3c([H])nc(N([H])c4c([H])c([H])c(N5C([H])([H])C([H])([H])N(C([H])([H])[H])C([H])([H])C5([H])[H])c([H])c4[H])nc3n(C([H])([H])[H])c2=O)c(Cl)c1[H]


 35 39  0  0  0  0  0  0  0  0999 V2000
   24.6417    7.5934   53.9914 C   0  0  0  0  0  0  0  0  0  0  0  0
   24.5522    6.4409   54.7339 N   0  0  0  0  0  0  0  0  0  0  0  0
   23.4524    5.6907   54.7922 C   0  0  0  0  0  0  0  0  0  0  0  0
   22.3313    6.0383   54.0997 C   0  0  0  0  0  0  0  0  0  0  0  0
   21.1653    5.2773   54.1390 C   0  0  0  0  0  0  0  0  0  0  0  0
   20.0524    5.6627   53.4248 C   0  0  0  0  0  0  0  0  0  0  0  0
   20.1661    6.8197   52.6888 C   0  0  0  0  0  0  0  0  0  0  0  0
   19.1598    7.1909   52.0275 O   0  0  0  0  0  0  0  0  0  0  0  0
   21.2931    7.5517   52.6532 N   0  0  0  0  0  0  0  0  0  0  0  0
   21.3847    8.7771   51.8615 C   0  0  0  0  0  0  0  0  0  0  0  0
   22.3939    7.1925   53.3448 C   0  0  0  0  0  0  0  0  0  0  0  0
   23.5239    7.8981   53.3289 N   0  0  0  0  0  0  0  0  0  0  0  0
   18.8399    4.8558   53.4768 C   0  0  0  0  0  0  0  0  0  0  0  0
   17.6421    5.4376   53.8345 C   0  0  0  0  0  0  0  0  0  0  0  0
   17.5306    7.1390   54.2338 Cl  0  0  0  0  0  0  0  0  0  0  0  0
   16.4723    4.6931   53.8924 C   0  0  0  0  0  0  0  0  0  0  0  0
   16.4727    3.3337   53.5905 C   0  0  0  0  0  0  0  0  0  0  0  0
   17.6749    2.7505   53.2316 C   0  0  0  0  0  0  0  0  0  0  0  0
   18.8181    3.5144   53.1831 C   0  0  0  0  0  0  0  0  0  0  0  0
   20.3133    2.7323   52.7241 Cl  0  0  0  0  0  0  0  0  0  0  0  0
   25.8431    8.3364   53.9964 N   0  0  0  0  0  0  0  0  0  0  0  0
   26.1861    8.6218   53.0241 H   0  0  0  0  0  0  0  0  0  0  0  0
   27.9968    9.5714   57.4417 C   0  0  0  0  0  0  0  0  0  0  0  0
   26.6223    9.5778   57.3706 C   0  0  0  0  0  0  0  0  0  0  0  0
   25.9372    9.1786   56.2459 C   0  0  0  0  0  0  0  0  0  0  0  0
   26.6163    8.7383   55.0979 C   0  0  0  0  0  0  0  0  0  0  0  0
   27.9835    8.7385   55.1877 C   0  0  0  0  0  0  0  0  0  0  0  0
   28.6788    9.1468   56.3372 C   0  0  0  0  0  0  0  0  0  0  0  0
   31.3156   10.5133   61.4002 C   0  0  0  0  0  0  0  0  0  0  0  0
   29.9462   10.8743   61.0355 N   0  0  0  0  0  0  0  0  0  0  0  0
   29.2226    9.6265   60.8895 C   0  0  0  0  0  0  0  0  0  0  0  0
   29.4292    9.1010   59.4833 C   0  0  0  0  0  0  0  0  0  0  0  0
   28.7147    9.9811   58.5828 N   0  0  0  0  0  0  0  0  0  0  0  0
   28.7848   11.4040   58.9404 C   0  0  0  0  0  0  0  0  0  0  0  0
   30.0122   11.6125   59.8001 C   0  0  0  0  0  0  0  0  0  0  0  0
 29 30  1  0  0  0
 30 31  1  0  0  0
 31 32  1  0  0  0
 32 33  1  0  0  0
 33 34  1  0  0  0
 34 35  1  0  0  0
 33 23  1  0  0  0
 23 24  2  0  0  0
 24 25  1  0  0  0
 25 26  2  0  0  0
 26 21  1  0  0  0
 21  1  1  0  0  0
  1  2  2  0  0  0
  2  3  1  0  0  0
  3  4  2  0  0  0
  4  5  1  0  0  0
  5  6  2  0  0  0
  6 13  1  0  0  0
 13 14  2  0  0  0
 14 15  1  0  0  0
 14 16  1  0  0  0
 16 17  2  0  0  0
 17 18  1  0  0  0
 18 19  2  0  0  0
 19 20  1  0  0  0
  6  7  1  0  0  0
  7  8  2  0  0  0
  7  9  1  0  0  0
  9 10  1  0  0  0
  9 11  1  0  0  0
 11 12  2  0  0  0
 26 27  1  0  0  0
 27 28  2  0  0  0
 35 30  1  0  0  0
 28 23  1  0  0  0
 12  1  1  0  0  0
 11  4  1  0  0  0
 19 13  1  0  0  0
 21 22  1  0  0  0
M  END
> <minimizedAffinity>
27.23795

> <CNNscore>
0.3598929644

> <CNNaffinity>
6.5740709305

> <CNN_VS>
2.3659617901

> <CNNaffinity_variance>
0.3124366403

$$$$
[H]c1c([H])c(Cl)c(-c2c([H])c3c([H])nc(N([H])c4c([H])c([H])c(N5C([H])([H])C([H])([H])N(C([H])([H])[H])C([H])([H])C5([H])[H])c([H])c4[H])nc3n(C([H])([H])[H])c2=O)c(Cl)c1[H]


 35 39  0  0  0  0  0  0  0  0999 V2000
   26.4955    9.1013   56.2228 C   0  0  0  0  0  0  0  0  0  0  0  0
   25.4319    9.9043   56.5569 N   0  0  0  0  0  0  0  0  0  0  0  0
   24.2403    9.8251   55.9658 C   0  0  0  0  0  0  0  0  0  0  0  0
   24.0106    8.9194   54.9737 C   0  0  0  0  0  0  0  0  0  0  0  0
   22.7776    8.8108   54.3349 C   0  0  0  0  0  0  0  0  0  0  0  0
   22.5854    7.8822   53.3357 C   0  0  0  0  0  0  0  0  0  0  0  0
   23.6646    7.0896   53.0188 C   0  0  0  0  0  0  0  0  0  0  0  0
   23.5109    6.2332   52.1075 O   0  0  0  0  0  0  0  0  0  0  0  0
   24.8531    7.1974   53.6376 N   0  0  0  0  0  0  0  0  0  0  0  0
   25.9824    6.3408   53.2796 C   0  0  0  0  0  0  0  0  0  0  0  0
   25.0628    8.0995   54.6181 C   0  0  0  0  0  0  0  0  0  0  0  0
   26.2295    8.2291   55.2483 N   0  0  0  0  0  0  0  0  0  0  0  0
   21.2895    7.7814   52.6767 C   0  0  0  0  0  0  0  0  0  0  0  0
   20.8066    8.8448   51.9438 C   0  0  0  0  0  0  0  0  0  0  0  0
   21.7141   10.3333   51.7778 Cl  0  0  0  0  0  0  0  0  0  0  0  0
   19.5759    8.7762   51.3060 C   0  0  0  0  0  0  0  0  0  0  0  0
   18.7900    7.6295   51.3871 C   0  0  0  0  0  0  0  0  0  0  0  0
   19.2751    6.5628   52.1227 C   0  0  0  0  0  0  0  0  0  0  0  0
   20.4988    6.6605   52.7437 C   0  0  0  0  0  0  0  0  0  0  0  0
   21.0693    5.2858   53.6619 Cl  0  0  0  0  0  0  0  0  0  0  0  0
   27.7292    9.2612   56.8920 N   0  0  0  0  0  0  0  0  0  0  0  0
   28.4279    8.4700   56.7183 H   0  0  0  0  0  0  0  0  0  0  0  0
   28.8564   12.5727   59.2996 C   0  0  0  0  0  0  0  0  0  0  0  0
   28.2002   12.7050   58.0971 C   0  0  0  0  0  0  0  0  0  0  0  0
   27.8444   11.6230   57.3249 C   0  0  0  0  0  0  0  0  0  0  0  0
   28.1373   10.3107   57.7314 C   0  0  0  0  0  0  0  0  0  0  0  0
   28.7902   10.1992   58.9308 C   0  0  0  0  0  0  0  0  0  0  0  0
   29.1517   11.3058   59.7157 C   0  0  0  0  0  0  0  0  0  0  0  0
   29.3993   16.9511   62.1469 C   0  0  0  0  0  0  0  0  0  0  0  0
   30.2574   15.8721   61.6587 N   0  0  0  0  0  0  0  0  0  0  0  0
   30.1344   15.8779   60.2141 C   0  0  0  0  0  0  0  0  0  0  0  0
   28.9236   15.0556   59.8213 C   0  0  0  0  0  0  0  0  0  0  0  0
   29.2326   13.6692   60.1008 N   0  0  0  0  0  0  0  0  0  0  0  0
   29.9992   13.4539   61.3350 C   0  0  0  0  0  0  0  0  0  0  0  0
   29.7759   14.6453   62.2406 C   0  0  0  0  0  0  0  0  0  0  0  0
 29 30  1  0  0  0
 30 31  1  0  0  0
 31 32  1  0  0  0
 32 33  1  0  0  0
 33 34  1  0  0  0
 34 35  1  0  0  0
 33 23  1  0  0  0
 23 24  2  0  0  0
 24 25  1  0  0  0
 25 26  2  0  0  0
 26 21  1  0  0  0
 21  1  1  0  0  0
  1  2  2  0  0  0
  2  3  1  0  0  0
  3  4  2  0  0  0
  4  5  1  0  0  0
  5  6  2  0  0  0
  6 13  1  0  0  0
 13 14  2  0  0  0
 14 15  1  0  0  0
 14 16  1  0  0  0
 16 17  2  0  0  0
 17 18  1  0  0  0
 18 19  2  0  0  0
 19 20  1  0  0  0
  6  7  1  0  0  0
  7  8  2  0  0  0
  7  9  1  0  0  0
  9 10  1  0  0  0
  9 11  1  0  0  0
 11 12  2  0  0  0
 26 27  1  0  0  0
 27 28  2  0  0  0
 35 30  1  0  0  0
 28 23  1  0  0  0
 12  1  1  0  0  0
 11  4  1  0  0  0
 19 13  1  0  0  0
 21 22  1  0  0  0
M  END
> <minimizedAffinity>
26.08683

> <CNNscore>
0.3025662303

> <CNNaffinity>
6.2197895050

> <CNN_VS>
1.8818982840

> <CNNaffinity_variance>
0.1606814712

$$$$
[H]c1c([H])c(Cl)c(-c2c([H])c3c([H])nc(N([H])c4c([H])c([H])c(N5C([H])([H])C([H])([H])N(C([H])([H])[H])C([H])([H])C5([H])[H])c([H])c4[H])nc3n(C([H])([H])[H])c2=O)c(Cl)c1[H]


 35 39  0  0  0  0  0  0  0  0999 V2000
   26.7112    8.5410   56.1070 C   0  0  0  0  0  0  0  0  0  0  0  0
   26.8107    7.6702   55.0489 N   0  0  0  0  0  0  0  0  0  0  0  0
   25.8234    7.4584   54.1793 C   0  0  0  0  0  0  0  0  0  0  0  0
   24.6338    8.1124   54.2991 C   0  0  0  0  0  0  0  0  0  0  0  0
   23.5814    7.9139   53.4084 C   0  0  0  0  0  0  0  0  0  0  0  0
   22.3938    8.5942   53.5638 C   0  0  0  0  0  0  0  0  0  0  0  0
   22.3180    9.4605   54.6302 C   0  0  0  0  0  0  0  0  0  0  0  0
   21.2405   10.0934   54.7913 O   0  0  0  0  0  0  0  0  0  0  0  0
   23.3357    9.6495   55.4879 N   0  0  0  0  0  0  0  0  0  0  0  0
   23.2263   10.5772   56.6122 C   0  0  0  0  0  0  0  0  0  0  0  0
   24.5068    8.9938   55.3541 C   0  0  0  0  0  0  0  0  0  0  0  0
   25.5319    9.1606   56.1886 N   0  0  0  0  0  0  0  0  0  0  0  0
   21.3021    8.3750   52.6236 C   0  0  0  0  0  0  0  0  0  0  0  0
   20.6646    7.1531   52.5835 C   0  0  0  0  0  0  0  0  0  0  0  0
   21.1319    5.8382   53.6415 Cl  0  0  0  0  0  0  0  0  0  0  0  0
   19.6222    6.9168   51.6982 C   0  0  0  0  0  0  0  0  0  0  0  0
   19.1879    7.9081   50.8220 C   0  0  0  0  0  0  0  0  0  0  0  0
   19.8281    9.1340   50.8627 C   0  0  0  0  0  0  0  0  0  0  0  0
   20.8583    9.3385   51.7513 C   0  0  0  0  0  0  0  0  0  0  0  0
   21.6363   10.9046   51.7653 Cl  0  0  0  0  0  0  0  0  0  0  0  0
   27.8031    8.6958   56.9897 N   0  0  0  0  0  0  0  0  0  0  0  0
   28.4196    7.8262   57.0811 H   0  0  0  0  0  0  0  0  0  0  0  0
   28.9900   11.9845   59.3998 C   0  0  0  0  0  0  0  0  0  0  0  0
   29.0963   10.6746   59.8085 C   0  0  0  0  0  0  0  0  0  0  0  0
   28.7038    9.6185   59.0185 C   0  0  0  0  0  0  0  0  0  0  0  0
   28.1677    9.8276   57.7371 C   0  0  0  0  0  0  0  0  0  0  0  0
   28.0702   11.1376   57.3478 C   0  0  0  0  0  0  0  0  0  0  0  0
   28.4716   12.2126   58.1570 C   0  0  0  0  0  0  0  0  0  0  0  0
   30.7134   16.4410   61.5775 C   0  0  0  0  0  0  0  0  0  0  0  0
   30.2187   15.1422   62.0329 N   0  0  0  0  0  0  0  0  0  0  0  0
   31.1043   14.1472   61.4605 C   0  0  0  0  0  0  0  0  0  0  0  0
   30.6247   13.8090   60.0633 C   0  0  0  0  0  0  0  0  0  0  0  0
   29.3822   13.0783   60.1970 N   0  0  0  0  0  0  0  0  0  0  0  0
   28.5012   13.5672   61.2657 C   0  0  0  0  0  0  0  0  0  0  0  0
   28.8667   15.0069   61.5541 C   0  0  0  0  0  0  0  0  0  0  0  0
 29 30  1  0  0  0
 30 31  1  0  0  0
 31 32  1  0  0  0
 32 33  1  0  0  0
 33 34  1  0  0  0
 34 35  1  0  0  0
 33 23  1  0  0  0
 23 24  2  0  0  0
 24 25  1  0  0  0
 25 26  2  0  0  0
 26 21  1  0  0  0
 21  1  1  0  0  0
  1  2  2  0  0  0
  2  3  1  0  0  0
  3  4  2  0  0  0
  4  5  1  0  0  0
  5  6  2  0  0  0
  6 13  1  0  0  0
 13 14  2  0  0  0
 14 15  1  0  0  0
 14 16  1  0  0  0
 16 17  2  0  0  0
 17 18  1  0  0  0
 18 19  2  0  0  0
 19 20  1  0  0  0
  6  7  1  0  0  0
  7  8  2  0  0  0
  7  9  1  0  0  0
  9 10  1  0  0  0
  9 11  1  0  0  0
 11 12  2  0  0  0
 26 27  1  0  0  0
 27 28  2  0  0  0
 35 30  1  0  0  0
 28 23  1  0  0  0
 12  1  1  0  0  0
 11  4  1  0  0  0
 19 13  1  0  0  0
 21 22  1  0  0  0
M  END
> <minimizedAffinity>
21.89295

> <CNNscore>
0.3019405007

> <CNNaffinity>
6.4680190086

> <CNN_VS>
1.9529569149

> <CNNaffinity_variance>
0.1245193928

$$$$
[H]c1c([H])c(Cl)c(-c2c([H])c3c([H])nc(N([H])c4c([H])c([H])c(N5C([H])([H])C([H])([H])N(C([H])([H])[H])C([H])([H])C5([H])[H])c([H])c4[H])nc3n(C([H])([H])[H])c2=O)c(Cl)c1[H]


 35 39  0  0  0  0  0  0  0  0999 V2000
   21.4194    7.6041   52.8655 C   0  0  0  0  0  0  0  0  0  0  0  0
   21.0120    7.8885   51.5845 N   0  0  0  0  0  0  0  0  0  0  0  0
   20.9140    9.1281   51.1053 C   0  0  0  0  0  0  0  0  0  0  0  0
   21.2212   10.2046   51.8825 C   0  0  0  0  0  0  0  0  0  0  0  0
   21.1292   11.5128   51.4132 C   0  0  0  0  0  0  0  0  0  0  0  0
   21.4485   12.5747   52.2305 C   0  0  0  0  0  0  0  0  0  0  0  0
   21.8538   12.2651   53.5084 C   0  0  0  0  0  0  0  0  0  0  0  0
   22.1509   13.2213   54.2732 O   0  0  0  0  0  0  0  0  0  0  0  0
   21.9415   11.0012   53.9579 N   0  0  0  0  0  0  0  0  0  0  0  0
   22.3758   10.7025   55.3213 C   0  0  0  0  0  0  0  0  0  0  0  0
   21.6337    9.9472   53.1746 C   0  0  0  0  0  0  0  0  0  0  0  0
   21.7106    8.6846   53.5929 N   0  0  0  0  0  0  0  0  0  0  0  0
   21.3465   13.9376   51.7246 C   0  0  0  0  0  0  0  0  0  0  0  0
   22.2192   14.3765   50.7515 C   0  0  0  0  0  0  0  0  0  0  0  0
   23.4633   13.3332   50.0954 Cl  0  0  0  0  0  0  0  0  0  0  0  0
   22.1450   15.6691   50.2518 C   0  0  0  0  0  0  0  0  0  0  0  0
   21.1854   16.5636   50.7188 C   0  0  0  0  0  0  0  0  0  0  0  0
   20.3100   16.1226   51.6953 C   0  0  0  0  0  0  0  0  0  0  0  0
   20.4082   14.8355   52.1711 C   0  0  0  0  0  0  0  0  0  0  0  0
   19.2793   14.3244   53.4050 Cl  0  0  0  0  0  0  0  0  0  0  0  0
   21.4825    6.2605   53.2967 N   0  0  0  0  0  0  0  0  0  0  0  0
   21.0448    5.5606   52.6161 H   0  0  0  0  0  0  0  0  0  0  0  0
   22.9711    4.6701   56.9420 C   0  0  0  0  0  0  0  0  0  0  0  0
   21.6306    4.8626   56.6964 C   0  0  0  0  0  0  0  0  0  0  0  0
   21.1623    5.3830   55.5117 C   0  0  0  0  0  0  0  0  0  0  0  0
   22.0416    5.7485   54.4790 C   0  0  0  0  0  0  0  0  0  0  0  0
   23.3714    5.5490   54.7417 C   0  0  0  0  0  0  0  0  0  0  0  0
   23.8453    5.0180   55.9520 C   0  0  0  0  0  0  0  0  0  0  0  0
   25.6491    2.7910   61.0493 C   0  0  0  0  0  0  0  0  0  0  0  0
   24.2485    2.9408   60.6557 N   0  0  0  0  0  0  0  0  0  0  0  0
   24.0969    2.2139   59.4105 C   0  0  0  0  0  0  0  0  0  0  0  0
   24.4881    3.1214   58.2616 C   0  0  0  0  0  0  0  0  0  0  0  0
   23.4687    4.1432   58.1505 N   0  0  0  0  0  0  0  0  0  0  0  0
   22.9542    4.6313   59.4366 C   0  0  0  0  0  0  0  0  0  0  0  0
   23.9966    4.3504   60.4968 C   0  0  0  0  0  0  0  0  0  0  0  0
 29 30  1  0  0  0
 30 31  1  0  0  0
 31 32  1  0  0  0
 32 33  1  0  0  0
 33 34  1  0  0  0
 34 35  1  0  0  0
 33 23  1  0  0  0
 23 24  2  0  0  0
 24 25  1  0  0  0
 25 26  2  0  0  0
 26 21  1  0  0  0
 21  1  1  0  0  0
  1  2  2  0  0  0
  2  3  1  0  0  0
  3  4  2  0  0  0
  4  5  1  0  0  0
  5  6  2  0  0  0
  6 13  1  0  0  0
 13 14  2  0  0  0
 14 15  1  0  0  0
 14 16  1  0  0  0
 16 17  2  0  0  0
 17 18  1  0  0  0
 18 19  2  0  0  0
 19 20  1  0  0  0
  6  7  1  0  0  0
  7  8  2  0  0  0
  7  9  1  0  0  0
  9 10  1  0  0  0
  9 11  1  0  0  0
 11 12  2  0  0  0
 26 27  1  0  0  0
 27 28  2  0  0  0
 35 30  1  0  0  0
 28 23  1  0  0  0
 12  1  1  0  0  0
 11  4  1  0  0  0
 19 13  1  0  0  0
 21 22  1  0  0  0
M  END
> <minimizedAffinity>
62.36580

> <CNNscore>
0.2792663872

> <CNNaffinity>
5.9889478683

> <CNN_VS>
1.6725118160

> <CNNaffinity_variance>
0.2923358381

$$$$
[H]c1c([H])c(Cl)c(-c2c([H])c3c([H])nc(N([H])c4c([H])c([H])c(N5C([H])([H])C([H])([H])N(C([H])([H])[H])C([H])([H])C5([H])[H])c([H])c4[H])nc3n(C([H])([H])[H])c2=O)c(Cl)c1[H]


 35 39  0  0  0  0  0  0  0  0999 V2000
   23.5918    9.3802   55.1790 C   0  0  0  0  0  0  0  0  0  0  0  0
   23.2383    9.5610   56.4943 N   0  0  0  0  0  0  0  0  0  0  0  0
   24.1056    9.4837   57.5031 C   0  0  0  0  0  0  0  0  0  0  0  0
   25.4218    9.2142   57.2746 C   0  0  0  0  0  0  0  0  0  0  0  0
   26.3541    9.1258   58.3057 C   0  0  0  0  0  0  0  0  0  0  0  0
   27.6762    8.8510   58.0336 C   0  0  0  0  0  0  0  0  0  0  0  0
   28.0061    8.6741   56.7095 C   0  0  0  0  0  0  0  0  0  0  0  0
   29.2103    8.4218   56.4377 O   0  0  0  0  0  0  0  0  0  0  0  0
   27.1035    8.7601   55.7170 N   0  0  0  0  0  0  0  0  0  0  0  0
   27.4835    8.5676   54.3186 C   0  0  0  0  0  0  0  0  0  0  0  0
   25.8044    9.0281   55.9612 C   0  0  0  0  0  0  0  0  0  0  0  0
   24.8881    9.1188   54.9983 N   0  0  0  0  0  0  0  0  0  0  0  0
   28.6393    8.7614   59.1236 C   0  0  0  0  0  0  0  0  0  0  0  0
   28.9071    7.5403   59.7053 C   0  0  0  0  0  0  0  0  0  0  0  0
   28.1155    6.0736   59.1679 Cl  0  0  0  0  0  0  0  0  0  0  0  0
   29.8195    7.4259   60.7449 C   0  0  0  0  0  0  0  0  0  0  0  0
   30.4930    8.5426   61.2329 C   0  0  0  0  0  0  0  0  0  0  0  0
   30.2238    9.7677   60.6489 C   0  0  0  0  0  0  0  0  0  0  0  0
   29.3143    9.8496   59.6199 C   0  0  0  0  0  0  0  0  0  0  0  0
   29.0076   11.4198   58.9139 Cl  0  0  0  0  0  0  0  0  0  0  0  0
   22.6051    9.4667   54.1719 N   0  0  0  0  0  0  0  0  0  0  0  0
   22.0431    8.5675   54.0304 H   0  0  0  0  0  0  0  0  0  0  0  0
   21.6980   12.9215   51.8751 C   0  0  0  0  0  0  0  0  0  0  0  0
   22.1356   12.9777   53.1788 C   0  0  0  0  0  0  0  0  0  0  0  0
   22.4220   11.8496   53.9128 C   0  0  0  0  0  0  0  0  0  0  0  0
   22.2803   10.5660   53.3602 C   0  0  0  0  0  0  0  0  0  0  0  0
   21.8443   10.5303   52.0618 C   0  0  0  0  0  0  0  0  0  0  0  0
   21.5529   11.6837   51.3162 C   0  0  0  0  0  0  0  0  0  0  0  0
   21.0086   16.7484   48.3464 C   0  0  0  0  0  0  0  0  0  0  0  0
   20.7735   16.5481   49.7759 N   0  0  0  0  0  0  0  0  0  0  0  0
   22.0628   16.2323   50.3589 C   0  0  0  0  0  0  0  0  0  0  0  0
   22.3132   14.7443   50.2197 C   0  0  0  0  0  0  0  0  0  0  0  0
   21.3955   14.0656   51.1102 N   0  0  0  0  0  0  0  0  0  0  0  0
   20.0560   14.6647   51.1750 C   0  0  0  0  0  0  0  0  0  0  0  0
   19.8362   15.4620   49.9079 C   0  0  0  0  0  0  0  0  0  0  0  0
 29 30  1  0  0  0
 30 31  1  0  0  0
 31 32  1  0  0  0
 32 33  1  0  0  0
 33 34  1  0  0  0
 34 35  1  0  0  0
 33 23  1  0  0  0
 23 24  2  0  0  0
 24 25  1  0  0  0
 25 26  2  0  0  0
 26 21  1  0  0  0
 21  1  1  0  0  0
  1  2  2  0  0  0
  2  3  1  0  0  0
  3  4  2  0  0  0
  4  5  1  0  0  0
  5  6  2  0  0  0
  6 13  1  0  0  0
 13 14  2  0  0  0
 14 15  1  0  0  0
 14 16  1  0  0  0
 16 17  2  0  0  0
 17 18  1  0  0  0
 18 19  2  0  0  0
 19 20  1  0  0  0
  6  7  1  0  0  0
  7  8  2  0  0  0
  7  9  1  0  0  0
  9 10  1  0  0  0
  9 11  1  0  0  0
 11 12  2  0  0  0
 26 27  1  0  0  0
 27 28  2  0  0  0
 35 30  1  0  0  0
 28 23  1  0  0  0
 12  1  1  0  0  0
 11  4  1  0  0  0
 19 13  1  0  0  0
 21 22  1  0  0  0
M  END
> <minimizedAffinity>
56.81671

> <CNNscore>
0.2474097162

> <CNNaffinity>
5.6156172752

> <CNN_VS>
1.3893582821

> <CNNaffinity_variance>
0.1474569738

$$$$
[H]c1c([H])c(Cl)c(-c2c([H])c3c([H])nc(N([H])c4c([H])c([H])c(N5C([H])([H])C([H])([H])N(C([H])([H])[H])C([H])([H])C5([H])[H])c([H])c4[H])nc3n(C([H])([H])[H])c2=O)c(Cl)c1[H]


 35 39  0  0  0  0  0  0  0  0999 V2000
   23.9719    7.8481   53.3991 C   0  0  0  0  0  0  0  0  0  0  0  0
   23.1724    8.1047   52.3116 N   0  0  0  0  0  0  0  0  0  0  0  0
   21.9882    7.5244   52.1199 C   0  0  0  0  0  0  0  0  0  0  0  0
   21.4976    6.6234   53.0169 C   0  0  0  0  0  0  0  0  0  0  0  0
   20.2644    5.9985   52.8467 C   0  0  0  0  0  0  0  0  0  0  0  0
   19.8035    5.0926   53.7763 C   0  0  0  0  0  0  0  0  0  0  0  0
   20.6213    4.8522   54.8565 C   0  0  0  0  0  0  0  0  0  0  0  0
   20.2191    4.0268   55.7195 O   0  0  0  0  0  0  0  0  0  0  0  0
   21.8109    5.4572   55.0175 N   0  0  0  0  0  0  0  0  0  0  0  0
   22.6585    5.1819   56.1762 C   0  0  0  0  0  0  0  0  0  0  0  0
   22.2810    6.3470   54.1196 C   0  0  0  0  0  0  0  0  0  0  0  0
   23.4557    6.9613   54.2526 N   0  0  0  0  0  0  0  0  0  0  0  0
   18.5113    4.4469   53.5835 C   0  0  0  0  0  0  0  0  0  0  0  0
   18.4540    3.1454   53.1318 C   0  0  0  0  0  0  0  0  0  0  0  0
   19.9052    2.2314   52.7778 Cl  0  0  0  0  0  0  0  0  0  0  0  0
   17.2373    2.5061   52.9392 C   0  0  0  0  0  0  0  0  0  0  0  0
   16.0356    3.1607   53.1966 C   0  0  0  0  0  0  0  0  0  0  0  0
   16.0937    4.4667   53.6498 C   0  0  0  0  0  0  0  0  0  0  0  0
   17.3148    5.0739   53.8311 C   0  0  0  0  0  0  0  0  0  0  0  0
   17.3369    6.7255   54.4056 Cl  0  0  0  0  0  0  0  0  0  0  0  0
   25.2203    8.4983   53.5177 N   0  0  0  0  0  0  0  0  0  0  0  0
   25.6552    8.7861   52.5836 H   0  0  0  0  0  0  0  0  0  0  0  0
   27.5684    9.3954   56.9404 C   0  0  0  0  0  0  0  0  0  0  0  0
   28.1000    8.8998   55.7716 C   0  0  0  0  0  0  0  0  0  0  0  0
   27.3265    8.6096   54.6711 C   0  0  0  0  0  0  0  0  0  0  0  0
   25.9359    8.8076   54.6860 C   0  0  0  0  0  0  0  0  0  0  0  0
   25.4254    9.3018   55.8575 C   0  0  0  0  0  0  0  0  0  0  0  0
   26.2181    9.5965   56.9783 C   0  0  0  0  0  0  0  0  0  0  0  0
   31.0545    9.8991   60.8347 C   0  0  0  0  0  0  0  0  0  0  0  0
   29.7019   10.3672   60.5345 N   0  0  0  0  0  0  0  0  0  0  0  0
   28.8938    9.1785   60.3448 C   0  0  0  0  0  0  0  0  0  0  0  0
   29.0248    8.7205   58.9062 C   0  0  0  0  0  0  0  0  0  0  0  0
   28.3443    9.6936   58.0782 N   0  0  0  0  0  0  0  0  0  0  0  0
   28.5182   11.0868   58.5096 C   0  0  0  0  0  0  0  0  0  0  0  0
   29.7809   11.1676   59.3393 C   0  0  0  0  0  0  0  0  0  0  0  0
 29 30  1  0  0  0
 30 31  1  0  0  0
 31 32  1  0  0  0
 32 33  1  0  0  0
 33 34  1  0  0  0
 34 35  1  0  0  0
 33 23  1  0  0  0
 23 24  2  0  0  0
 24 25  1  0  0  0
 25 26  2  0  0  0
 26 21  1  0  0  0
 21  1  1  0  0  0
  1  2  2  0  0  0
  2  3  1  0  0  0
  3  4  2  0  0  0
  4  5  1  0  0  0
  5  6  2  0  0  0
  6 13  1  0  0  0
 13 14  2  0  0  0
 14 15  1  0  0  0
 14 16  1  0  0  0
 16 17  2  0  0  0
 17 18  1  0  0  0
 18 19  2  0  0  0
 19 20  1  0  0  0
  6  7  1  0  0  0
  7  8  2  0  0  0
  7  9  1  0  0  0
  9 10  1  0  0  0
  9 11  1  0  0  0
 11 12  2  0  0  0
 26 27  1  0  0  0
 27 28  2  0  0  0
 35 30  1  0  0  0
 28 23  1  0  0  0
 12  1  1  0  0  0
 11  4  1  0  0  0
 19 13  1  0  0  0
 21 22  1  0  0  0
M  END
> <minimizedAffinity>
41.54049

> <CNNscore>
0.2057843506

> <CNNaffinity>
6.2381029129

> <CNN_VS>
1.2837039232

> <CNNaffinity_variance>
0.5579358339

$$$$
[H]c1c([H])c(Cl)c(-c2c([H])c3c([H])nc(N([H])c4c([H])c([H])c(N5C([H])([H])C([H])([H])N(C([H])([H])[H])C([H])([H])C5([H])[H])c([H])c4[H])nc3n(C([H])([H])[H])c2=O)c(Cl)c1[H]


 35 39  0  0  0  0  0  0  0  0999 V2000
   24.1056    8.4180   54.0825 C   0  0  0  0  0  0  0  0  0  0  0  0
   23.5248    9.0776   55.1386 N   0  0  0  0  0  0  0  0  0  0  0  0
   24.2132    9.5371   56.1830 C   0  0  0  0  0  0  0  0  0  0  0  0
   25.5638    9.3715   56.2580 C   0  0  0  0  0  0  0  0  0  0  0  0
   26.3131    9.8387   57.3352 C   0  0  0  0  0  0  0  0  0  0  0  0
   27.6772    9.6510   57.3740 C   0  0  0  0  0  0  0  0  0  0  0  0
   28.2360    8.9883   56.3055 C   0  0  0  0  0  0  0  0  0  0  0  0
   29.4826    8.8057   56.3203 O   0  0  0  0  0  0  0  0  0  0  0  0
   27.5096    8.5387   55.2675 N   0  0  0  0  0  0  0  0  0  0  0  0
   28.1312    7.8378   54.1453 C   0  0  0  0  0  0  0  0  0  0  0  0
   26.1732    8.7117   55.2095 C   0  0  0  0  0  0  0  0  0  0  0  0
   25.4280    8.2768   54.1943 N   0  0  0  0  0  0  0  0  0  0  0  0
   28.4469   10.1455   58.5084 C   0  0  0  0  0  0  0  0  0  0  0  0
   29.0235    9.2542   59.3885 C   0  0  0  0  0  0  0  0  0  0  0  0
   28.8576    7.5231   59.1830 Cl  0  0  0  0  0  0  0  0  0  0  0  0
   29.7616    9.6973   60.4771 C   0  0  0  0  0  0  0  0  0  0  0  0
   29.9425   11.0574   60.7141 C   0  0  0  0  0  0  0  0  0  0  0  0
   29.3636   11.9512   59.8307 C   0  0  0  0  0  0  0  0  0  0  0  0
   28.6375   11.4819   58.7605 C   0  0  0  0  0  0  0  0  0  0  0  0
   27.9252   12.6504   57.6717 Cl  0  0  0  0  0  0  0  0  0  0  0  0
   23.2989    7.9519   53.0207 N   0  0  0  0  0  0  0  0  0  0  0  0
   23.6769    8.1856   52.0476 H   0  0  0  0  0  0  0  0  0  0  0  0
   19.7635    5.6209   53.3389 C   0  0  0  0  0  0  0  0  0  0  0  0
   21.0026    5.1666   53.7297 C   0  0  0  0  0  0  0  0  0  0  0  0
   22.1409    5.9315   53.6171 C   0  0  0  0  0  0  0  0  0  0  0  0
   22.0944    7.2328   53.0903 C   0  0  0  0  0  0  0  0  0  0  0  0
   20.8528    7.6676   52.7074 C   0  0  0  0  0  0  0  0  0  0  0  0
   19.6936    6.8839   52.8238 C   0  0  0  0  0  0  0  0  0  0  0  0
   15.0144    3.3866   53.1787 C   0  0  0  0  0  0  0  0  0  0  0  0
   16.2738    3.1863   53.8946 N   0  0  0  0  0  0  0  0  0  0  0  0
   16.5421    4.4252   54.5983 C   0  0  0  0  0  0  0  0  0  0  0  0
   17.2580    5.3769   53.6612 C   0  0  0  0  0  0  0  0  0  0  0  0
   18.5885    4.8501   53.4424 N   0  0  0  0  0  0  0  0  0  0  0  0
   18.6515    3.3874   53.3240 C   0  0  0  0  0  0  0  0  0  0  0  0
   17.2835    2.8902   52.9105 C   0  0  0  0  0  0  0  0  0  0  0  0
 29 30  1  0  0  0
 30 31  1  0  0  0
 31 32  1  0  0  0
 32 33  1  0  0  0
 33 34  1  0  0  0
 34 35  1  0  0  0
 33 23  1  0  0  0
 23 24  2  0  0  0
 24 25  1  0  0  0
 25 26  2  0  0  0
 26 21  1  0  0  0
 21  1  1  0  0  0
  1  2  2  0  0  0
  2  3  1  0  0  0
  3  4  2  0  0  0
  4  5  1  0  0  0
  5  6  2  0  0  0
  6 13  1  0  0  0
 13 14  2  0  0  0
 14 15  1  0  0  0
 14 16  1  0  0  0
 16 17  2  0  0  0
 17 18  1  0  0  0
 18 19  2  0  0  0
 19 20  1  0  0  0
  6  7  1  0  0  0
  7  8  2  0  0  0
  7  9  1  0  0  0
  9 10  1  0  0  0
  9 11  1  0  0  0
 11 12  2  0  0  0
 26 27  1  0  0  0
 27 28  2  0  0  0
 35 30  1  0  0  0
 28 23  1  0  0  0
 12  1  1  0  0  0
 11  4  1  0  0  0
 19 13  1  0  0  0
 21 22  1  0  0  0
M  END
> <minimizedAffinity>
30.27030

> <CNNscore>
0.1966198683

> <CNNaffinity>
6.3608093262

> <CNN_VS>
1.2506614923

> <CNNaffinity_variance>
0.2205491066

$$$$
[H]c1c([H])c(Cl)c(-c2c([H])c3c([H])nc(N([H])c4c([H])c([H])c(N5C([H])([H])C([H])([H])N(C([H])([H])[H])C([H])([H])C5([H])[H])c([H])c4[H])nc3n(C([H])([H])[H])c2=O)c(Cl)c1[H]


 35 39  0  0  0  0  0  0  0  0999 V2000
   24.1052    8.4310   54.0853 C   0  0  0  0  0  0  0  0  0  0  0  0
   23.5286    9.0899   55.1442 N   0  0  0  0  0  0  0  0  0  0  0  0
   24.2203    9.5436   56.1889 C   0  0  0  0  0  0  0  0  0  0  0  0
   25.5704    9.3723   56.2614 C   0  0  0  0  0  0  0  0  0  0  0  0
   26.3231    9.8333   57.3389 C   0  0  0  0  0  0  0  0  0  0  0  0
   27.6865    9.6400   57.3752 C   0  0  0  0  0  0  0  0  0  0  0  0
   28.2410    8.9781   56.3039 C   0  0  0  0  0  0  0  0  0  0  0  0
   29.4869    8.7904   56.3164 O   0  0  0  0  0  0  0  0  0  0  0  0
   27.5113    8.5345   55.2657 N   0  0  0  0  0  0  0  0  0  0  0  0
   28.1285    7.8343   54.1406 C   0  0  0  0  0  0  0  0  0  0  0  0
   26.1756    8.7131   55.2101 C   0  0  0  0  0  0  0  0  0  0  0  0
   25.4272    8.2841   54.1948 N   0  0  0  0  0  0  0  0  0  0  0  0
   28.4598   10.1281   58.5099 C   0  0  0  0  0  0  0  0  0  0  0  0
   28.6084   11.4846   58.7077 C   0  0  0  0  0  0  0  0  0  0  0  0
   27.8871   12.6553   57.6234 Cl  0  0  0  0  0  0  0  0  0  0  0  0
   29.3395   11.9771   59.7797 C   0  0  0  0  0  0  0  0  0  0  0  0
   29.9462   11.1150   60.6894 C   0  0  0  0  0  0  0  0  0  0  0  0
   29.7968    9.7540   60.4904 C   0  0  0  0  0  0  0  0  0  0  0  0
   29.0661    9.2957   59.4185 C   0  0  0  0  0  0  0  0  0  0  0  0
   28.9055    7.5670   59.2090 Cl  0  0  0  0  0  0  0  0  0  0  0  0
   23.2950    7.9712   53.0234 N   0  0  0  0  0  0  0  0  0  0  0  0
   23.6695    8.2114   52.0506 H   0  0  0  0  0  0  0  0  0  0  0  0
   19.7615    5.6374   53.3416 C   0  0  0  0  0  0  0  0  0  0  0  0
   20.9997    5.1868   53.7394 C   0  0  0  0  0  0  0  0  0  0  0  0
   22.1374    5.9526   53.6267 C   0  0  0  0  0  0  0  0  0  0  0  0
   22.0912    7.2509   53.0926 C   0  0  0  0  0  0  0  0  0  0  0  0
   20.8505    7.6819   52.7028 C   0  0  0  0  0  0  0  0  0  0  0  0
   19.6919    6.8974   52.8192 C   0  0  0  0  0  0  0  0  0  0  0  0
   15.0130    3.4015   53.1847 C   0  0  0  0  0  0  0  0  0  0  0  0
   16.2743    3.1991   53.8966 N   0  0  0  0  0  0  0  0  0  0  0  0
   16.5438    4.4353   54.6045 C   0  0  0  0  0  0  0  0  0  0  0  0
   17.2569    5.3910   53.6693 C   0  0  0  0  0  0  0  0  0  0  0  0
   18.5871    4.8656   53.4450 N   0  0  0  0  0  0  0  0  0  0  0  0
   18.6505    3.4035   53.3208 C   0  0  0  0  0  0  0  0  0  0  0  0
   17.2817    2.9072   52.9089 C   0  0  0  0  0  0  0  0  0  0  0  0
 29 30  1  0  0  0
 30 31  1  0  0  0
 31 32  1  0  0  0
 32 33  1  0  0  0
 33 34  1  0  0  0
 34 35  1  0  0  0
 33 23  1  0  0  0
 23 24  2  0  0  0
 24 25  1  0  0  0
 25 26  2  0  0  0
 26 21  1  0  0  0
 21  1  1  0  0  0
  1  2  2  0  0  0
  2  3  1  0  0  0
  3  4  2  0  0  0
  4  5  1  0  0  0
  5  6  2  0  0  0
  6 13  1  0  0  0
 13 14  2  0  0  0
 14 15  1  0  0  0
 14 16  1  0  0  0
 16 17  2  0  0  0
 17 18  1  0  0  0
 18 19  2  0  0  0
 19 20  1  0  0  0
  6  7  1  0  0  0
  7  8  2  0  0  0
  7  9  1  0  0  0
  9 10  1  0  0  0
  9 11  1  0  0  0
 11 12  2  0  0  0
 26 27  1  0  0  0
 27 28  2  0  0  0
 35 30  1  0  0  0
 28 23  1  0  0  0
 12  1  1  0  0  0
 11  4  1  0  0  0
 19 13  1  0  0  0
 21 22  1  0  0  0
M  END
> <minimizedAffinity>
30.18679

> <CNNscore>
0.1956606358

> <CNNaffinity>
6.3564453125

> <CNN_VS>
1.2437061071

> <CNNaffinity_variance>
0.2210582048

$$$$
[H]c1c(Cl)c([H])c2c(oc(=O)n2C([H])([H])C([H])([H])N2C([H])([H])C([H])([H])C([H])([H])C([H])([H])C2([H])[H])c1[H]


 19 21  0  0  0  0  0  0  0  0999 V2000
   28.0041    7.5348   56.4984 Cl  0  0  0  0  0  0  0  0  0  0  0  0
   26.9551    7.9718   55.1763 C   0  0  0  0  0  0  0  0  0  0  0  0
   27.4478    8.1070   53.9126 C   0  0  0  0  0  0  0  0  0  0  0  0
   26.6407    8.4533   52.8385 C   0  0  0  0  0  0  0  0  0  0  0  0
   25.2897    8.6567   53.1226 C   0  0  0  0  0  0  0  0  0  0  0  0
   24.2709    8.9847   52.3712 O   0  0  0  0  0  0  0  0  0  0  0  0
   23.1489    9.0668   53.0885 C   0  0  0  0  0  0  0  0  0  0  0  0
   22.0283    9.3733   52.5489 O   0  0  0  0  0  0  0  0  0  0  0  0
   23.4411    8.7851   54.3471 N   0  0  0  0  0  0  0  0  0  0  0  0
   24.7766    8.5236   54.3957 C   0  0  0  0  0  0  0  0  0  0  0  0
   25.6155    8.1779   55.4345 C   0  0  0  0  0  0  0  0  0  0  0  0
   22.5953    8.7505   55.5028 C   0  0  0  0  0  0  0  0  0  0  0  0
   21.1317    8.6566   55.2257 C   0  0  0  0  0  0  0  0  0  0  0  0
   20.6286    7.4417   54.7046 N   0  0  0  0  0  0  0  0  0  0  0  0
   21.4088    6.3357   55.2314 C   0  0  0  0  0  0  0  0  0  0  0  0
   22.8086    6.3376   54.7366 C   0  0  0  0  0  0  0  0  0  0  0  0
   22.7612    6.0505   53.2359 C   0  0  0  0  0  0  0  0  0  0  0  0
   21.9156    7.1049   52.6053 C   0  0  0  0  0  0  0  0  0  0  0  0
   20.6170    7.3789   53.2607 C   0  0  0  0  0  0  0  0  0  0  0  0
  1  2  1  0  0  0
  2  3  2  0  0  0
  3  4  1  0  0  0
  4  5  2  0  0  0
  5  6  1  0  0  0
  6  7  1  0  0  0
  7  8  2  0  0  0
  7  9  1  0  0  0
  9 12  1  0  0  0
 12 13  1  0  0  0
 13 14  1  0  0  0
 14 15  1  0  0  0
 15 16  1  0  0  0
 16 17  1  0  0  0
 17 18  1  0  0  0
 18 19  1  0  0  0
  9 10  1  0  0  0
 10 11  2  0  0  0
 11  2  1  0  0  0
 10  5  1  0  0  0
 19 14  1  0  0  0
M  END
> <minimizedAffinity>
12.48391

> <CNNscore>
0.7205157280

> <CNNaffinity>
5.4163846970

> <CNN_VS>
3.9025902748

> <CNNaffinity_variance>
0.1190518886

$$$$
[H]c1c(Cl)c([H])c2c(oc(=O)n2C([H])([H])C([H])([H])N2C([H])([H])C([H])([H])C([H])([H])C([H])([H])C2([H])[H])c1[H]


 19 21  0  0  0  0  0  0  0  0999 V2000
   28.5689    8.9181   57.0906 Cl  0  0  0  0  0  0  0  0  0  0  0  0
   27.6531    8.6636   55.6291 C   0  0  0  0  0  0  0  0  0  0  0  0
   28.2780    8.3199   54.4675 C   0  0  0  0  0  0  0  0  0  0  0  0
   27.5794    8.1100   53.2873 C   0  0  0  0  0  0  0  0  0  0  0  0
   26.1947    8.2700   53.3535 C   0  0  0  0  0  0  0  0  0  0  0  0
   25.2504    8.1535   52.4564 O   0  0  0  0  0  0  0  0  0  0  0  0
   24.0507    8.4048   52.9833 C   0  0  0  0  0  0  0  0  0  0  0  0
   22.9824    8.3451   52.2790 O   0  0  0  0  0  0  0  0  0  0  0  0
   24.2136    8.6953   54.2631 N   0  0  0  0  0  0  0  0  0  0  0  0
   25.5484    8.6172   54.5211 C   0  0  0  0  0  0  0  0  0  0  0  0
   26.2826    8.8166   55.6716 C   0  0  0  0  0  0  0  0  0  0  0  0
   23.2448    9.0491   55.2573 C   0  0  0  0  0  0  0  0  0  0  0  0
   21.9169    9.4858   54.7341 C   0  0  0  0  0  0  0  0  0  0  0  0
   20.7861    8.6936   55.0417 N   0  0  0  0  0  0  0  0  0  0  0  0
   21.2232    7.4591   55.6696 C   0  0  0  0  0  0  0  0  0  0  0  0
   21.9809    6.5833   54.7407 C   0  0  0  0  0  0  0  0  0  0  0  0
   21.0033    6.1043   53.6675 C   0  0  0  0  0  0  0  0  0  0  0  0
   20.4403    7.3151   53.0029 C   0  0  0  0  0  0  0  0  0  0  0  0
   19.9533    8.3859   53.9012 C   0  0  0  0  0  0  0  0  0  0  0  0
  1  2  1  0  0  0
  2  3  2  0  0  0
  3  4  1  0  0  0
  4  5  2  0  0  0
  5  6  1  0  0  0
  6  7  1  0  0  0
  7  8  2  0  0  0
  7  9  1  0  0  0
  9 12  1  0  0  0
 12 13  1  0  0  0
 13 14  1  0  0  0
 14 15  1  0  0  0
 15 16  1  0  0  0
 16 17  1  0  0  0
 17 18  1  0  0  0
 18 19  1  0  0  0
  9 10  1  0  0  0
 10 11  2  0  0  0
 11  2  1  0  0  0
 10  5  1  0  0  0
 19 14  1  0  0  0
M  END
> <minimizedAffinity>
5.67514

> <CNNscore>
0.7093973160

> <CNNaffinity>
5.3340272903

> <CNN_VS>
3.7839446068

> <CNNaffinity_variance>
0.1086820960

$$$$
[H]c1c(Cl)c([H])c2c(oc(=O)n2C([H])([H])C([H])([H])N2C([H])([H])C([H])([H])C([H])([H])C([H])([H])C2([H])[H])c1[H]


 19 21  0  0  0  0  0  0  0  0999 V2000
   28.2476    7.6900   53.8367 Cl  0  0  0  0  0  0  0  0  0  0  0  0
   26.8374    8.3971   54.5786 C   0  0  0  0  0  0  0  0  0  0  0  0
   26.8998    8.9157   55.8376 C   0  0  0  0  0  0  0  0  0  0  0  0
   25.7967    9.4856   56.4570 C   0  0  0  0  0  0  0  0  0  0  0  0
   24.6132    9.4998   55.7177 C   0  0  0  0  0  0  0  0  0  0  0  0
   23.4133    9.9463   55.9840 O   0  0  0  0  0  0  0  0  0  0  0  0
   22.5836    9.7407   54.9596 C   0  0  0  0  0  0  0  0  0  0  0  0
   21.3562   10.1041   55.0066 O   0  0  0  0  0  0  0  0  0  0  0  0
   23.2595    9.1412   53.9938 N   0  0  0  0  0  0  0  0  0  0  0  0
   24.5346    8.9791   54.4432 C   0  0  0  0  0  0  0  0  0  0  0  0
   25.6564    8.4216   53.8658 C   0  0  0  0  0  0  0  0  0  0  0  0
   22.8231    8.6974   52.7035 C   0  0  0  0  0  0  0  0  0  0  0  0
   21.5488    7.9205   52.6879 C   0  0  0  0  0  0  0  0  0  0  0  0
   21.6250    6.5128   52.8026 N   0  0  0  0  0  0  0  0  0  0  0  0
   20.9856    6.0981   54.0389 C   0  0  0  0  0  0  0  0  0  0  0  0
   21.7227    6.5550   55.2441 C   0  0  0  0  0  0  0  0  0  0  0  0
   23.0569    5.8091   55.2714 C   0  0  0  0  0  0  0  0  0  0  0  0
   23.7682    6.1182   53.9974 C   0  0  0  0  0  0  0  0  0  0  0  0
   22.9713    5.9891   52.7568 C   0  0  0  0  0  0  0  0  0  0  0  0
  1  2  1  0  0  0
  2  3  2  0  0  0
  3  4  1  0  0  0
  4  5  2  0  0  0
  5  6  1  0  0  0
  6  7  1  0  0  0
  7  8  2  0  0  0
  7  9  1  0  0  0
  9 12  1  0  0  0
 12 13  1  0  0  0
 13 14  1  0  0  0
 14 15  1  0  0  0
 15 16  1  0  0  0
 16 17  1  0  0  0
 17 18  1  0  0  0
 18 19  1  0  0  0
  9 10  1  0  0  0
 10 11  2  0  0  0
 11  2  1  0  0  0
 10  5  1  0  0  0
 19 14  1  0  0  0
M  END
> <minimizedAffinity>
4.74634

> <CNNscore>
0.6977208853

> <CNNaffinity>
5.5329556465

> <CNN_VS>
3.8604586124

> <CNNaffinity_variance>
0.1084452048

$$$$
[H]c1c(Cl)c([H])c2c(oc(=O)n2C([H])([H])C([H])([H])N2C([H])([H])C([H])([H])C([H])([H])C([H])([H])C2([H])[H])c1[H]


 19 21  0  0  0  0  0  0  0  0999 V2000
   29.1095    7.1411   53.5809 Cl  0  0  0  0  0  0  0  0  0  0  0  0
   27.9141    8.0197   54.4966 C   0  0  0  0  0  0  0  0  0  0  0  0
   28.2783    8.7772   55.5697 C   0  0  0  0  0  0  0  0  0  0  0  0
   27.3528    9.4886   56.3195 C   0  0  0  0  0  0  0  0  0  0  0  0
   26.0214    9.3869   55.9139 C   0  0  0  0  0  0  0  0  0  0  0  0
   24.9164    9.9097   56.3783 O   0  0  0  0  0  0  0  0  0  0  0  0
   23.8611    9.5263   55.6576 C   0  0  0  0  0  0  0  0  0  0  0  0
   22.6764    9.9246   55.9379 O   0  0  0  0  0  0  0  0  0  0  0  0
   24.2869    8.7282   54.6929 N   0  0  0  0  0  0  0  0  0  0  0  0
   25.6377    8.6247   54.8306 C   0  0  0  0  0  0  0  0  0  0  0  0
   26.5916    7.9333   54.1132 C   0  0  0  0  0  0  0  0  0  0  0  0
   23.5512    8.0479   53.6692 C   0  0  0  0  0  0  0  0  0  0  0  0
   22.3817    7.2493   54.1407 C   0  0  0  0  0  0  0  0  0  0  0  0
   21.0926    7.8177   54.0155 N   0  0  0  0  0  0  0  0  0  0  0  0
   20.4450    7.2791   52.8324 C   0  0  0  0  0  0  0  0  0  0  0  0
   21.1052    7.7098   51.5742 C   0  0  0  0  0  0  0  0  0  0  0  0
   20.8870    9.2168   51.4386 C   0  0  0  0  0  0  0  0  0  0  0  0
   21.4628    9.8631   52.6532 C   0  0  0  0  0  0  0  0  0  0  0  0
   21.0879    9.2617   53.9527 C   0  0  0  0  0  0  0  0  0  0  0  0
  1  2  1  0  0  0
  2  3  2  0  0  0
  3  4  1  0  0  0
  4  5  2  0  0  0
  5  6  1  0  0  0
  6  7  1  0  0  0
  7  8  2  0  0  0
  7  9  1  0  0  0
  9 12  1  0  0  0
 12 13  1  0  0  0
 13 14  1  0  0  0
 14 15  1  0  0  0
 15 16  1  0  0  0
 16 17  1  0  0  0
 17 18  1  0  0  0
 18 19  1  0  0  0
  9 10  1  0  0  0
 10 11  2  0  0  0
 11  2  1  0  0  0
 10  5  1  0  0  0
 19 14  1  0  0  0
M  END
> <minimizedAffinity>
2.72303

> <CNNscore>
0.6771773100

> <CNNaffinity>
5.6048464775

> <CNN_VS>
3.7954747677

> <CNNaffinity_variance>
0.0511840880

$$$$
[H]c1c(Cl)c([H])c2c(oc(=O)n2C([H])([H])C([H])([H])N2C([H])([H])C([H])([H])C([H])([H])C([H])([H])C2([H])[H])c1[H]


 19 21  0  0  0  0  0  0  0  0999 V2000
   27.6130    9.5134   51.4916 Cl  0  0  0  0  0  0  0  0  0  0  0  0
   26.8008    8.6784   52.7887 C   0  0  0  0  0  0  0  0  0  0  0  0
   27.4033    8.5240   54.0016 C   0  0  0  0  0  0  0  0  0  0  0  0
   26.7851    7.8653   55.0546 C   0  0  0  0  0  0  0  0  0  0  0  0
   25.5060    7.3667   54.8044 C   0  0  0  0  0  0  0  0  0  0  0  0
   24.6547    6.7105   55.5494 O   0  0  0  0  0  0  0  0  0  0  0  0
   23.5361    6.4359   54.8761 C   0  0  0  0  0  0  0  0  0  0  0  0
   22.5655    5.7996   55.4183 O   0  0  0  0  0  0  0  0  0  0  0  0
   23.6580    6.9259   53.6539 N   0  0  0  0  0  0  0  0  0  0  0  0
   24.8836    7.5151   53.5828 C   0  0  0  0  0  0  0  0  0  0  0  0
   25.5353    8.1771   52.5633 C   0  0  0  0  0  0  0  0  0  0  0  0
   22.7461    6.8832   52.5499 C   0  0  0  0  0  0  0  0  0  0  0  0
   22.3392    8.2100   52.0005 C   0  0  0  0  0  0  0  0  0  0  0  0
   21.0640    8.7130   52.3492 N   0  0  0  0  0  0  0  0  0  0  0  0
   21.1233   10.1626   52.4156 C   0  0  0  0  0  0  0  0  0  0  0  0
   21.9722   10.6487   53.5325 C   0  0  0  0  0  0  0  0  0  0  0  0
   21.2720   10.2657   54.8363 C   0  0  0  0  0  0  0  0  0  0  0  0
   21.1000    8.7842   54.8331 C   0  0  0  0  0  0  0  0  0  0  0  0
   20.5451    8.1940   53.5943 C   0  0  0  0  0  0  0  0  0  0  0  0
  1  2  1  0  0  0
  2  3  2  0  0  0
  3  4  1  0  0  0
  4  5  2  0  0  0
  5  6  1  0  0  0
  6  7  1  0  0  0
  7  8  2  0  0  0
  7  9  1  0  0  0
  9 12  1  0  0  0
 12 13  1  0  0  0
 13 14  1  0  0  0
 14 15  1  0  0  0
 15 16  1  0  0  0
 16 17  1  0  0  0
 17 18  1  0  0  0
 18 19  1  0  0  0
  9 10  1  0  0  0
 10 11  2  0  0  0
 11  2  1  0  0  0
 10  5  1  0  0  0
 19 14  1  0  0  0
M  END
> <minimizedAffinity>
4.56252

> <CNNscore>
0.5978333950

> <CNNaffinity>
5.8470187187

> <CNN_VS>
3.4955430031

> <CNNaffinity_variance>
0.0532590859

$$$$
[H]c1c(Cl)c([H])c2c(oc(=O)n2C([H])([H])C([H])([H])N2C([H])([H])C([H])([H])C([H])([H])C([H])([H])C2([H])[H])c1[H]


 19 21  0  0  0  0  0  0  0  0999 V2000
   28.1735   10.2172   57.7164 Cl  0  0  0  0  0  0  0  0  0  0  0  0
   27.5818    9.3924   56.2990 C   0  0  0  0  0  0  0  0  0  0  0  0
   28.4466    8.9197   55.3573 C   0  0  0  0  0  0  0  0  0  0  0  0
   28.0092    8.2591   54.2184 C   0  0  0  0  0  0  0  0  0  0  0  0
   26.6286    8.1031   54.0878 C   0  0  0  0  0  0  0  0  0  0  0  0
   25.8883    7.5449   53.1656 O   0  0  0  0  0  0  0  0  0  0  0  0
   24.5918    7.6351   53.4676 C   0  0  0  0  0  0  0  0  0  0  0  0
   23.6885    7.1504   52.6996 O   0  0  0  0  0  0  0  0  0  0  0  0
   24.4792    8.2718   54.6212 N   0  0  0  0  0  0  0  0  0  0  0  0
   25.7414    8.5756   55.0319 C   0  0  0  0  0  0  0  0  0  0  0  0
   26.2203    9.2271   56.1493 C   0  0  0  0  0  0  0  0  0  0  0  0
   23.3079    8.6310   55.3637 C   0  0  0  0  0  0  0  0  0  0  0  0
   22.0704    7.8709   55.0197 C   0  0  0  0  0  0  0  0  0  0  0  0
   20.9247    8.6035   54.6307 N   0  0  0  0  0  0  0  0  0  0  0  0
   20.2171    7.8710   53.5953 C   0  0  0  0  0  0  0  0  0  0  0  0
   20.9859    7.7878   52.3279 C   0  0  0  0  0  0  0  0  0  0  0  0
   21.0768    9.2030   51.7571 C   0  0  0  0  0  0  0  0  0  0  0  0
   21.7347   10.0590   52.7862 C   0  0  0  0  0  0  0  0  0  0  0  0
   21.2100    9.9418   54.1653 C   0  0  0  0  0  0  0  0  0  0  0  0
  1  2  1  0  0  0
  2  3  2  0  0  0
  3  4  1  0  0  0
  4  5  2  0  0  0
  5  6  1  0  0  0
  6  7  1  0  0  0
  7  8  2  0  0  0
  7  9  1  0  0  0
  9 12  1  0  0  0
 12 13  1  0  0  0
 13 14  1  0  0  0
 14 15  1  0  0  0
 15 16  1  0  0  0
 16 17  1  0  0  0
 17 18  1  0  0  0
 18 19  1  0  0  0
  9 10  1  0  0  0
 10 11  2  0  0  0
 11  2  1  0  0  0
 10  5  1  0  0  0
 19 14  1  0  0  0
M  END
> <minimizedAffinity>
-1.75110

> <CNNscore>
0.5642618537

> <CNNaffinity>
5.4636564255

> <CNN_VS>
3.0829329491

> <CNNaffinity_variance>
0.2209117413

$$$$
[H]c1c(Cl)c([H])c2c(oc(=O)n2C([H])([H])C([H])([H])N2C([H])([H])C([H])([H])C([H])([H])C([H])([H])C2([H])[H])c1[H]


 19 21  0  0  0  0  0  0  0  0999 V2000
   22.9204    4.3271   57.1372 Cl  0  0  0  0  0  0  0  0  0  0  0  0
   23.5080    5.0698   55.6735 C   0  0  0  0  0  0  0  0  0  0  0  0
   23.5805    4.3585   54.5130 C   0  0  0  0  0  0  0  0  0  0  0  0
   24.0430    4.9190   53.3311 C   0  0  0  0  0  0  0  0  0  0  0  0
   24.4318    6.2577   53.3941 C   0  0  0  0  0  0  0  0  0  0  0  0
   24.9039    7.0814   52.4947 O   0  0  0  0  0  0  0  0  0  0  0  0
   25.1379    8.2857   53.0190 C   0  0  0  0  0  0  0  0  0  0  0  0
   25.6017    9.2473   52.3111 O   0  0  0  0  0  0  0  0  0  0  0  0
   24.8104    8.2500   54.2998 N   0  0  0  0  0  0  0  0  0  0  0  0
   24.3642    6.9902   54.5605 C   0  0  0  0  0  0  0  0  0  0  0  0
   23.8981    6.3926   55.7129 C   0  0  0  0  0  0  0  0  0  0  0  0
   24.8876    9.2742   55.2984 C   0  0  0  0  0  0  0  0  0  0  0  0
   23.6701   10.1257   55.4414 C   0  0  0  0  0  0  0  0  0  0  0  0
   22.7809   10.2068   54.3444 N   0  0  0  0  0  0  0  0  0  0  0  0
   21.5717   10.8964   54.7586 C   0  0  0  0  0  0  0  0  0  0  0  0
   20.7832   10.1211   55.7493 C   0  0  0  0  0  0  0  0  0  0  0  0
   20.2517    8.8781   55.0356 C   0  0  0  0  0  0  0  0  0  0  0  0
   21.4279    8.1285   54.5072 C   0  0  0  0  0  0  0  0  0  0  0  0
   22.4335    8.9267   53.7705 C   0  0  0  0  0  0  0  0  0  0  0  0
  1  2  1  0  0  0
  2  3  2  0  0  0
  3  4  1  0  0  0
  4  5  2  0  0  0
  5  6  1  0  0  0
  6  7  1  0  0  0
  7  8  2  0  0  0
  7  9  1  0  0  0
  9 12  1  0  0  0
 12 13  1  0  0  0
 13 14  1  0  0  0
 14 15  1  0  0  0
 15 16  1  0  0  0
 16 17  1  0  0  0
 17 18  1  0  0  0
 18 19  1  0  0  0
  9 10  1  0  0  0
 10 11  2  0  0  0
 11  2  1  0  0  0
 10  5  1  0  0  0
 19 14  1  0  0  0
M  END
> <minimizedAffinity>
22.75797

> <CNNscore>
0.5205341578

> <CNNaffinity>
5.1934914589

> <CNN_VS>
2.7033896446

> <CNNaffinity_variance>
0.3041995168

$$$$
[H]c1c(Cl)c([H])c2c(oc(=O)n2C([H])([H])C([H])([H])N2C([H])([H])C([H])([H])C([H])([H])C([H])([H])C2([H])[H])c1[H]


 19 21  0  0  0  0  0  0  0  0999 V2000
   23.2357    4.5476   55.9820 Cl  0  0  0  0  0  0  0  0  0  0  0  0
   22.4258    5.5834   54.8373 C   0  0  0  0  0  0  0  0  0  0  0  0
   21.2454    5.2049   54.2705 C   0  0  0  0  0  0  0  0  0  0  0  0
   20.5750    6.0051   53.3565 C   0  0  0  0  0  0  0  0  0  0  0  0
   21.1771    7.2254   53.0470 C   0  0  0  0  0  0  0  0  0  0  0  0
   20.8314    8.2009   52.2476 O   0  0  0  0  0  0  0  0  0  0  0  0
   21.7301    9.1866   52.2725 C   0  0  0  0  0  0  0  0  0  0  0  0
   21.5867   10.2438   51.5635 O   0  0  0  0  0  0  0  0  0  0  0  0
   22.6935    8.8469   53.1124 N   0  0  0  0  0  0  0  0  0  0  0  0
   22.3708    7.6220   53.6122 C   0  0  0  0  0  0  0  0  0  0  0  0
   23.0034    6.7946   54.5165 C   0  0  0  0  0  0  0  0  0  0  0  0
   23.8860    9.5512   53.4787 C   0  0  0  0  0  0  0  0  0  0  0  0
   25.1675    8.8643   53.1414 C   0  0  0  0  0  0  0  0  0  0  0  0
   25.6648    7.8989   54.0477 N   0  0  0  0  0  0  0  0  0  0  0  0
   25.4157    8.3456   55.4070 C   0  0  0  0  0  0  0  0  0  0  0  0
   26.2034    9.5522   55.7649 C   0  0  0  0  0  0  0  0  0  0  0  0
   27.6757    9.1421   55.7943 C   0  0  0  0  0  0  0  0  0  0  0  0
   28.0157    8.5988   54.4475 C   0  0  0  0  0  0  0  0  0  0  0  0
   27.0711    7.6072   53.8861 C   0  0  0  0  0  0  0  0  0  0  0  0
  1  2  1  0  0  0
  2  3  2  0  0  0
  3  4  1  0  0  0
  4  5  2  0  0  0
  5  6  1  0  0  0
  6  7  1  0  0  0
  7  8  2  0  0  0
  7  9  1  0  0  0
  9 12  1  0  0  0
 12 13  1  0  0  0
 13 14  1  0  0  0
 14 15  1  0  0  0
 15 16  1  0  0  0
 16 17  1  0  0  0
 17 18  1  0  0  0
 18 19  1  0  0  0
  9 10  1  0  0  0
 10 11  2  0  0  0
 11  2  1  0  0  0
 10  5  1  0  0  0
 19 14  1  0  0  0
M  END
> <minimizedAffinity>
11.82521

> <CNNscore>
0.5059111118

> <CNNaffinity>
5.5487451553

> <CNN_VS>
2.8071718216

> <CNNaffinity_variance>
0.2155516446

$$$$
[H]c1c(Cl)c([H])c2c(oc(=O)n2C([H])([H])C([H])([H])N2C([H])([H])C([H])([H])C([H])([H])C([H])([H])C2([H])[H])c1[H]


 19 21  0  0  0  0  0  0  0  0999 V2000
   20.7570    4.2009   53.6846 Cl  0  0  0  0  0  0  0  0  0  0  0  0
   20.5822    5.7894   52.9878 C   0  0  0  0  0  0  0  0  0  0  0  0
   19.4292    6.1489   52.3559 C   0  0  0  0  0  0  0  0  0  0  0  0
   19.2573    7.4044   51.7911 C   0  0  0  0  0  0  0  0  0  0  0  0
   20.3340    8.2848   51.9054 C   0  0  0  0  0  0  0  0  0  0  0  0
   20.5131    9.5151   51.4999 O   0  0  0  0  0  0  0  0  0  0  0  0
   21.7228    9.9638   51.8397 C   0  0  0  0  0  0  0  0  0  0  0  0
   22.1071   11.1489   51.5420 O   0  0  0  0  0  0  0  0  0  0  0  0
   22.3553    8.9989   52.4861 N   0  0  0  0  0  0  0  0  0  0  0  0
   21.5066    7.9355   52.5416 C   0  0  0  0  0  0  0  0  0  0  0  0
   21.6344    6.6760   53.0890 C   0  0  0  0  0  0  0  0  0  0  0  0
   23.6755    8.9751   53.0417 C   0  0  0  0  0  0  0  0  0  0  0  0
   23.8280    8.1927   54.3036 C   0  0  0  0  0  0  0  0  0  0  0  0
   23.5475    8.8422   55.5284 N   0  0  0  0  0  0  0  0  0  0  0  0
   22.4331    8.1759   56.1791 C   0  0  0  0  0  0  0  0  0  0  0  0
   21.1583    8.3371   55.4353 C   0  0  0  0  0  0  0  0  0  0  0  0
   20.7738    9.8150   55.5064 C   0  0  0  0  0  0  0  0  0  0  0  0
   21.8984   10.5985   54.9182 C   0  0  0  0  0  0  0  0  0  0  0  0
   23.2557   10.2515   55.3957 C   0  0  0  0  0  0  0  0  0  0  0  0
  1  2  1  0  0  0
  2  3  2  0  0  0
  3  4  1  0  0  0
  4  5  2  0  0  0
  5  6  1  0  0  0
  6  7  1  0  0  0
  7  8  2  0  0  0
  7  9  1  0  0  0
  9 12  1  0  0  0
 12 13  1  0  0  0
 13 14  1  0  0  0
 14 15  1  0  0  0
 15 16  1  0  0  0
 16 17  1  0  0  0
 17 18  1  0  0  0
 18 19  1  0  0  0
  9 10  1  0  0  0
 10 11  2  0  0  0
 11  2  1  0  0  0
 10  5  1  0  0  0
 19 14  1  0  0  0
M  END
> <minimizedAffinity>
14.81050

> <CNNscore>
0.4729617536

> <CNNaffinity>
5.5963888168

> <CNN_VS>
2.6468777657

> <CNNaffinity_variance>
0.1905003637

$$$$
[H]c1c([H])c([H])c2c(c1[H])c1c3c(c4c5c([H])c([H])c([H])c([H])c5n5c4c1n2[C@@]1(C([H])([H])[H])O[C@]5([H])C([H])([H])[C@@]([H])(N([H])C([H])([H])[H])[C@]1([H])OC([H])([H])[H])C(=O)N([H])C3([H])[H]


 37 44  0  0  0  0  0  0  0  0999 V2000
   20.6548    9.8596   55.3883 C   0  0  0  0  0  0  0  0  0  0  0  0
   20.2183    8.4416   55.1994 C   0  0  0  0  0  0  0  0  0  0  0  0
   20.1921    8.1972   53.7083 C   0  0  0  0  0  0  0  0  0  0  0  0
   21.0658    8.8943   52.9901 O   0  0  0  0  0  0  0  0  0  0  0  0
   22.2880    9.2755   53.5813 C   0  0  0  0  0  0  0  0  0  0  0  0
   22.7822   10.3256   52.5663 C   0  0  0  0  0  0  0  0  0  0  0  0
   22.1143    9.9359   54.8897 C   0  0  0  0  0  0  0  0  0  0  0  0
   23.2165    8.1611   53.5546 N   0  0  0  0  0  0  0  0  0  0  0  0
   24.5782    8.2434   53.5498 C   0  0  0  0  0  0  0  0  0  0  0  0
   25.4343    9.2928   53.6445 C   0  0  0  0  0  0  0  0  0  0  0  0
   26.7984    9.0877   53.6293 C   0  0  0  0  0  0  0  0  0  0  0  0
   27.3521    7.8337   53.5203 C   0  0  0  0  0  0  0  0  0  0  0  0
   26.4497    6.7685   53.4256 C   0  0  0  0  0  0  0  0  0  0  0  0
   25.1083    6.9846   53.4419 C   0  0  0  0  0  0  0  0  0  0  0  0
   24.0691    6.1047   53.3838 C   0  0  0  0  0  0  0  0  0  0  0  0
   23.9692    4.7168   53.2748 C   0  0  0  0  0  0  0  0  0  0  0  0
   25.0630    3.7234   53.1784 C   0  0  0  0  0  0  0  0  0  0  0  0
   24.4222    2.4476   53.0823 N   0  0  0  0  0  0  0  0  0  0  0  0
   23.0010    2.6516   53.1227 C   0  0  0  0  0  0  0  0  0  0  0  0
   22.2261    1.6880   53.0568 O   0  0  0  0  0  0  0  0  0  0  0  0
   22.7405    4.0710   53.2428 C   0  0  0  0  0  0  0  0  0  0  0  0
   21.6072    4.8478   53.3247 C   0  0  0  0  0  0  0  0  0  0  0  0
   20.2483    4.5684   53.3540 C   0  0  0  0  0  0  0  0  0  0  0  0
   19.5445    3.4052   53.2846 C   0  0  0  0  0  0  0  0  0  0  0  0
   18.1421    3.4764   53.3464 C   0  0  0  0  0  0  0  0  0  0  0  0
   17.5084    4.6829   53.4725 C   0  0  0  0  0  0  0  0  0  0  0  0
   18.2262    5.8569   53.5422 C   0  0  0  0  0  0  0  0  0  0  0  0
   19.5877    5.7941   53.4829 C   0  0  0  0  0  0  0  0  0  0  0  0
   20.4741    6.7708   53.5293 N   0  0  0  0  0  0  0  0  0  0  0  0
   21.6996    6.2395   53.4333 C   0  0  0  0  0  0  0  0  0  0  0  0
   22.9342    6.8248   53.4557 C   0  0  0  0  0  0  0  0  0  0  0  0
   24.9346    1.5454   52.9988 H   0  0  0  0  0  0  0  0  0  0  0  0
   19.3509   10.9655   57.0052 C   0  0  0  0  0  0  0  0  0  0  0  0
   20.6088   10.2805   56.7728 N   0  0  0  0  0  0  0  0  0  0  0  0
   20.6076    9.4487   57.4125 H   0  0  0  0  0  0  0  0  0  0  0  0
   22.4202   11.2917   54.9364 O   0  0  0  0  0  0  0  0  0  0  0  0
   21.6581   12.0878   54.1182 C   0  0  0  0  0  0  0  0  0  0  0  0
 33 34  1  0  0  0
 34  1  1  0  0  0
  1  2  1  0  0  0
  2  3  1  0  0  0
  3  4  1  0  0  0
  4  5  1  0  0  0
  5  6  1  0  0  0
  5  7  1  0  0  0
  7 36  1  0  0  0
 36 37  1  0  0  0
  5  8  1  0  0  0
  8  9  1  0  0  0
  9 10  2  0  0  0
 10 11  1  0  0  0
 11 12  2  0  0  0
 12 13  1  0  0  0
 13 14  2  0  0  0
 14 15  1  0  0  0
 15 16  2  0  0  0
 16 17  1  0  0  0
 17 18  1  0  0  0
 18 19  1  0  0  0
 19 20  2  0  0  0
 19 21  1  0  0  0
 21 22  2  0  0  0
 22 23  1  0  0  0
 23 24  2  0  0  0
 24 25  1  0  0  0
 25 26  2  0  0  0
 26 27  1  0  0  0
 27 28  2  0  0  0
 28 29  1  0  0  0
 29 30  1  0  0  0
 30 31  2  0  0  0
  7  1  1  0  0  0
 31  8  1  0  0  0
 29  3  1  0  0  0
 14  9  1  0  0  0
 31 15  1  0  0  0
 21 16  1  0  0  0
 30 22  1  0  0  0
 28 23  1  0  0  0
 34 35  1  0  0  0
 18 32  1  0  0  0
M  END
> <minimizedAffinity>
82.20224

> <CNNscore>
0.2165086567

> <CNNaffinity>
6.0744638443

> <CNN_VS>
1.3151739836

> <CNNaffinity_variance>
0.4058941901

$$$$
[H]c1c([H])c([H])c2c(c1[H])c1c3c(c4c5c([H])c([H])c([H])c([H])c5n5c4c1n2[C@@]1(C([H])([H])[H])O[C@]5([H])C([H])([H])[C@@]([H])(N([H])C([H])([H])[H])[C@]1([H])OC([H])([H])[H])C(=O)N([H])C3([H])[H]


 37 44  0  0  0  0  0  0  0  0999 V2000
   21.3152   11.0518   54.8546 C   0  0  0  0  0  0  0  0  0  0  0  0
   22.7937   11.2154   55.0097 C   0  0  0  0  0  0  0  0  0  0  0  0
   23.1890   10.4040   56.2217 C   0  0  0  0  0  0  0  0  0  0  0  0
   22.4473    9.3298   56.4686 O   0  0  0  0  0  0  0  0  0  0  0  0
   21.8325    8.6603   55.3904 C   0  0  0  0  0  0  0  0  0  0  0  0
   20.8293    7.7642   56.1439 C   0  0  0  0  0  0  0  0  0  0  0  0
   21.0758    9.5669   54.5050 C   0  0  0  0  0  0  0  0  0  0  0  0
   22.7951    7.7952   54.7348 N   0  0  0  0  0  0  0  0  0  0  0  0
   22.5141    6.6627   54.0281 C   0  0  0  0  0  0  0  0  0  0  0  0
   21.3461    6.0723   53.6673 C   0  0  0  0  0  0  0  0  0  0  0  0
   21.3486    4.9124   52.9206 C   0  0  0  0  0  0  0  0  0  0  0  0
   22.5120    4.3053   52.5096 C   0  0  0  0  0  0  0  0  0  0  0  0
   23.7024    4.9331   52.8925 C   0  0  0  0  0  0  0  0  0  0  0  0
   23.6856    6.0754   53.6280 C   0  0  0  0  0  0  0  0  0  0  0  0
   24.7102    6.8501   54.0839 C   0  0  0  0  0  0  0  0  0  0  0  0
   26.1015    6.7788   53.9984 C   0  0  0  0  0  0  0  0  0  0  0  0
   26.9277    5.7459   53.3328 C   0  0  0  0  0  0  0  0  0  0  0  0
   28.2870    6.1404   53.5429 N   0  0  0  0  0  0  0  0  0  0  0  0
   28.2914    7.3617   54.2989 C   0  0  0  0  0  0  0  0  0  0  0  0
   29.3601    7.9059   54.6068 O   0  0  0  0  0  0  0  0  0  0  0  0
   26.9210    7.7418   54.5720 C   0  0  0  0  0  0  0  0  0  0  0  0
   26.3151    8.7848   55.2349 C   0  0  0  0  0  0  0  0  0  0  0  0
   26.7871    9.9150   55.8872 C   0  0  0  0  0  0  0  0  0  0  0  0
   28.0422   10.3843   56.1272 C   0  0  0  0  0  0  0  0  0  0  0  0
   28.1722   11.5925   56.8336 C   0  0  0  0  0  0  0  0  0  0  0  0
   27.0657   12.2726   57.2650 C   0  0  0  0  0  0  0  0  0  0  0  0
   25.7979   11.7924   57.0191 C   0  0  0  0  0  0  0  0  0  0  0  0
   25.6653   10.6202   56.3338 C   0  0  0  0  0  0  0  0  0  0  0  0
   24.5691    9.9733   55.9850 N   0  0  0  0  0  0  0  0  0  0  0  0
   24.9212    8.8624   55.3252 C   0  0  0  0  0  0  0  0  0  0  0  0
   24.1614    7.8851   54.7465 C   0  0  0  0  0  0  0  0  0  0  0  0
   29.1077    5.6057   53.1908 H   0  0  0  0  0  0  0  0  0  0  0  0
   21.3887   11.4938   52.5445 C   0  0  0  0  0  0  0  0  0  0  0  0
   20.7676   11.8771   53.7986 N   0  0  0  0  0  0  0  0  0  0  0  0
   19.7412   11.6943   53.6808 H   0  0  0  0  0  0  0  0  0  0  0  0
   19.6921    9.4300   54.5273 O   0  0  0  0  0  0  0  0  0  0  0  0
   19.1993    8.3866   53.7842 C   0  0  0  0  0  0  0  0  0  0  0  0
 33 34  1  0  0  0
 34  1  1  0  0  0
  1  2  1  0  0  0
  2  3  1  0  0  0
  3  4  1  0  0  0
  4  5  1  0  0  0
  5  6  1  0  0  0
  5  7  1  0  0  0
  7 36  1  0  0  0
 36 37  1  0  0  0
  5  8  1  0  0  0
  8  9  1  0  0  0
  9 10  2  0  0  0
 10 11  1  0  0  0
 11 12  2  0  0  0
 12 13  1  0  0  0
 13 14  2  0  0  0
 14 15  1  0  0  0
 15 16  2  0  0  0
 16 17  1  0  0  0
 17 18  1  0  0  0
 18 19  1  0  0  0
 19 20  2  0  0  0
 19 21  1  0  0  0
 21 22  2  0  0  0
 22 23  1  0  0  0
 23 24  2  0  0  0
 24 25  1  0  0  0
 25 26  2  0  0  0
 26 27  1  0  0  0
 27 28  2  0  0  0
 28 29  1  0  0  0
 29 30  1  0  0  0
 30 31  2  0  0  0
  7  1  1  0  0  0
 31  8  1  0  0  0
 29  3  1  0  0  0
 14  9  1  0  0  0
 31 15  1  0  0  0
 21 16  1  0  0  0
 30 22  1  0  0  0
 28 23  1  0  0  0
 34 35  1  0  0  0
 18 32  1  0  0  0
M  END
> <minimizedAffinity>
77.51031

> <CNNscore>
0.1936584562

> <CNNaffinity>
5.8709554672

> <CNN_VS>
1.1369601488

> <CNNaffinity_variance>
0.3964622915

$$$$
[H]c1c([H])c([H])c2c(c1[H])c1c3c(c4c5c([H])c([H])c([H])c([H])c5n5c4c1n2[C@@]1(C([H])([H])[H])O[C@]5([H])C([H])([H])[C@@]([H])(N([H])C([H])([H])[H])[C@]1([H])OC([H])([H])[H])C(=O)N([H])C3([H])[H]


 37 44  0  0  0  0  0  0  0  0999 V2000
   22.3590    5.1137   52.9810 C   0  0  0  0  0  0  0  0  0  0  0  0
   23.7941    5.2789   53.3682 C   0  0  0  0  0  0  0  0  0  0  0  0
   24.3474    6.3838   52.4983 C   0  0  0  0  0  0  0  0  0  0  0  0
   23.4804    7.3189   52.1257 O   0  0  0  0  0  0  0  0  0  0  0  0
   22.3916    7.6182   52.9706 C   0  0  0  0  0  0  0  0  0  0  0  0
   21.5018    8.4355   52.0128 C   0  0  0  0  0  0  0  0  0  0  0  0
   21.6437    6.4184   53.3939 C   0  0  0  0  0  0  0  0  0  0  0  0
   22.8244    8.5016   54.0369 N   0  0  0  0  0  0  0  0  0  0  0  0
   22.0431    9.3868   54.7202 C   0  0  0  0  0  0  0  0  0  0  0  0
   20.7115    9.6494   54.6895 C   0  0  0  0  0  0  0  0  0  0  0  0
   20.1671   10.6082   55.5185 C   0  0  0  0  0  0  0  0  0  0  0  0
   20.9298   11.3341   56.4031 C   0  0  0  0  0  0  0  0  0  0  0  0
   22.2986   11.0446   56.4172 C   0  0  0  0  0  0  0  0  0  0  0  0
   22.8218   10.0975   55.5954 C   0  0  0  0  0  0  0  0  0  0  0  0
   24.1023    9.6497   55.4629 C   0  0  0  0  0  0  0  0  0  0  0  0
   25.3179    9.9735   56.0676 C   0  0  0  0  0  0  0  0  0  0  0  0
   25.5804   10.9889   57.1129 C   0  0  0  0  0  0  0  0  0  0  0  0
   26.9850   10.9207   57.3771 N   0  0  0  0  0  0  0  0  0  0  0  0
   27.5546    9.9063   56.5347 C   0  0  0  0  0  0  0  0  0  0  0  0
   28.7667    9.6576   56.5828 O   0  0  0  0  0  0  0  0  0  0  0  0
   26.4998    9.3291   55.7277 C   0  0  0  0  0  0  0  0  0  0  0  0
   26.4390    8.3467   54.7656 C   0  0  0  0  0  0  0  0  0  0  0  0
   27.3748    7.4899   54.2036 C   0  0  0  0  0  0  0  0  0  0  0  0
   28.7141    7.3357   54.3926 C   0  0  0  0  0  0  0  0  0  0  0  0
   29.3778    6.3482   53.6442 C   0  0  0  0  0  0  0  0  0  0  0  0
   28.6923    5.5679   52.7531 C   0  0  0  0  0  0  0  0  0  0  0  0
   27.3367    5.7288   52.5662 C   0  0  0  0  0  0  0  0  0  0  0  0
   26.6870    6.6855   53.2898 C   0  0  0  0  0  0  0  0  0  0  0  0
   25.4100    7.0189   53.2817 N   0  0  0  0  0  0  0  0  0  0  0  0
   25.2243    8.0173   54.1547 C   0  0  0  0  0  0  0  0  0  0  0  0
   24.0910    8.6860   54.5233 C   0  0  0  0  0  0  0  0  0  0  0  0
   27.4750   11.5220   58.0713 H   0  0  0  0  0  0  0  0  0  0  0  0
   20.3819    3.8448   53.1166 C   0  0  0  0  0  0  0  0  0  0  0  0
   21.7231    3.9977   53.6490 N   0  0  0  0  0  0  0  0  0  0  0  0
   22.2244    3.1020   53.4315 H   0  0  0  0  0  0  0  0  0  0  0  0
   20.3605    6.2826   52.8753 O   0  0  0  0  0  0  0  0  0  0  0  0
   19.3927    7.0109   53.5210 C   0  0  0  0  0  0  0  0  0  0  0  0
 33 34  1  0  0  0
 34  1  1  0  0  0
  1  2  1  0  0  0
  2  3  1  0  0  0
  3  4  1  0  0  0
  4  5  1  0  0  0
  5  6  1  0  0  0
  5  7  1  0  0  0
  7 36  1  0  0  0
 36 37  1  0  0  0
  5  8  1  0  0  0
  8  9  1  0  0  0
  9 10  2  0  0  0
 10 11  1  0  0  0
 11 12  2  0  0  0
 12 13  1  0  0  0
 13 14  2  0  0  0
 14 15  1  0  0  0
 15 16  2  0  0  0
 16 17  1  0  0  0
 17 18  1  0  0  0
 18 19  1  0  0  0
 19 20  2  0  0  0
 19 21  1  0  0  0
 21 22  2  0  0  0
 22 23  1  0  0  0
 23 24  2  0  0  0
 24 25  1  0  0  0
 25 26  2  0  0  0
 26 27  1  0  0  0
 27 28  2  0  0  0
 28 29  1  0  0  0
 29 30  1  0  0  0
 30 31  2  0  0  0
  7  1  1  0  0  0
 31  8  1  0  0  0
 29  3  1  0  0  0
 14  9  1  0  0  0
 31 15  1  0  0  0
 21 16  1  0  0  0
 30 22  1  0  0  0
 28 23  1  0  0  0
 34 35  1  0  0  0
 18 32  1  0  0  0
M  END
> <minimizedAffinity>
72.38349

> <CNNscore>
0.1325507015

> <CNNaffinity>
5.7098250389

> <CNN_VS>
0.7568413019

> <CNNaffinity_variance>
1.0484652519

$$$$
[H]c1c([H])c([H])c2c(c1[H])c1c3c(c4c5c([H])c([H])c([H])c([H])c5n5c4c1n2[C@@]1(C([H])([H])[H])O[C@]5([H])C([H])([H])[C@@]([H])(N([H])C([H])([H])[H])[C@]1([H])OC([H])([H])[H])C(=O)N([H])C3([H])[H]


 37 44  0  0  0  0  0  0  0  0999 V2000
   22.1500   10.9558   54.6057 C   0  0  0  0  0  0  0  0  0  0  0  0
   23.5371   10.4659   54.3360 C   0  0  0  0  0  0  0  0  0  0  0  0
   23.8973    9.5492   55.4821 C   0  0  0  0  0  0  0  0  0  0  0  0
   22.8858    8.8956   56.0431 O   0  0  0  0  0  0  0  0  0  0  0  0
   21.7622    8.5683   55.2561 C   0  0  0  0  0  0  0  0  0  0  0  0
   20.7480    8.1820   56.3512 C   0  0  0  0  0  0  0  0  0  0  0  0
   21.2260    9.7224   54.5087 C   0  0  0  0  0  0  0  0  0  0  0  0
   22.0406    7.3810   54.4702 N   0  0  0  0  0  0  0  0  0  0  0  0
   21.1220    6.4878   54.0021 C   0  0  0  0  0  0  0  0  0  0  0  0
   19.7652    6.4614   54.0410 C   0  0  0  0  0  0  0  0  0  0  0  0
   19.0677    5.4220   53.4613 C   0  0  0  0  0  0  0  0  0  0  0  0
   19.6978    4.3784   52.8251 C   0  0  0  0  0  0  0  0  0  0  0  0
   21.0959    4.4287   52.7969 C   0  0  0  0  0  0  0  0  0  0  0  0
   21.7705    5.4585   53.3717 C   0  0  0  0  0  0  0  0  0  0  0  0
   23.1079    5.7118   53.4410 C   0  0  0  0  0  0  0  0  0  0  0  0
   24.2520    5.0501   52.9922 C   0  0  0  0  0  0  0  0  0  0  0  0
   24.3405    3.7702   52.2530 C   0  0  0  0  0  0  0  0  0  0  0  0
   25.7366    3.5391   52.0412 N   0  0  0  0  0  0  0  0  0  0  0  0
   26.4683    4.6309   52.6208 C   0  0  0  0  0  0  0  0  0  0  0  0
   27.7049    4.6589   52.5634 O   0  0  0  0  0  0  0  0  0  0  0  0
   25.5252    5.5602   53.2074 C   0  0  0  0  0  0  0  0  0  0  0  0
   25.6300    6.7546   53.8834 C   0  0  0  0  0  0  0  0  0  0  0  0
   26.6963    7.5642   54.2482 C   0  0  0  0  0  0  0  0  0  0  0  0
   28.0425    7.4453   54.0844 C   0  0  0  0  0  0  0  0  0  0  0  0
   28.8624    8.4717   54.5841 C   0  0  0  0  0  0  0  0  0  0  0  0
   28.3175    9.5565   55.2161 C   0  0  0  0  0  0  0  0  0  0  0  0
   26.9541    9.6712   55.3790 C   0  0  0  0  0  0  0  0  0  0  0  0
   26.1531    8.6781   54.8959 C   0  0  0  0  0  0  0  0  0  0  0  0
   24.8383    8.5696   54.9335 N   0  0  0  0  0  0  0  0  0  0  0  0
   24.4878    7.4230   54.3369 C   0  0  0  0  0  0  0  0  0  0  0  0
   23.2584    6.8744   54.1023 C   0  0  0  0  0  0  0  0  0  0  0  0
   26.1188    2.7076   51.5453 H   0  0  0  0  0  0  0  0  0  0  0  0
   21.6536   11.3313   52.3363 C   0  0  0  0  0  0  0  0  0  0  0  0
   21.7101   11.9488   53.6482 N   0  0  0  0  0  0  0  0  0  0  0  0
   20.7320   12.2619   53.8629 H   0  0  0  0  0  0  0  0  0  0  0  0
   19.9837   10.1938   54.9194 O   0  0  0  0  0  0  0  0  0  0  0  0
   19.9855   10.8746   56.1111 C   0  0  0  0  0  0  0  0  0  0  0  0
 33 34  1  0  0  0
 34  1  1  0  0  0
  1  2  1  0  0  0
  2  3  1  0  0  0
  3  4  1  0  0  0
  4  5  1  0  0  0
  5  6  1  0  0  0
  5  7  1  0  0  0
  7 36  1  0  0  0
 36 37  1  0  0  0
  5  8  1  0  0  0
  8  9  1  0  0  0
  9 10  2  0  0  0
 10 11  1  0  0  0
 11 12  2  0  0  0
 12 13  1  0  0  0
 13 14  2  0  0  0
 14 15  1  0  0  0
 15 16  2  0  0  0
 16 17  1  0  0  0
 17 18  1  0  0  0
 18 19  1  0  0  0
 19 20  2  0  0  0
 19 21  1  0  0  0
 21 22  2  0  0  0
 22 23  1  0  0  0
 23 24  2  0  0  0
 24 25  1  0  0  0
 25 26  2  0  0  0
 26 27  1  0  0  0
 27 28  2  0  0  0
 28 29  1  0  0  0
 29 30  1  0  0  0
 30 31  2  0  0  0
  7  1  1  0  0  0
 31  8  1  0  0  0
 29  3  1  0  0  0
 14  9  1  0  0  0
 31 15  1  0  0  0
 21 16  1  0  0  0
 30 22  1  0  0  0
 28 23  1  0  0  0
 34 35  1  0  0  0
 18 32  1  0  0  0
M  END
> <minimizedAffinity>
73.06489

> <CNNscore>
0.1187971532

> <CNNaffinity>
5.9029960632

> <CNN_VS>
0.7012591362

> <CNNaffinity_variance>
0.3070057034

$$$$
[H]c1c([H])c([H])c2c(c1[H])c1c3c(c4c5c([H])c([H])c([H])c([H])c5n5c4c1n2[C@@]1(C([H])([H])[H])O[C@]5([H])C([H])([H])[C@@]([H])(N([H])C([H])([H])[H])[C@]1([H])OC([H])([H])[H])C(=O)N([H])C3([H])[H]


 37 44  0  0  0  0  0  0  0  0999 V2000
   26.6524    9.0945   56.0712 C   0  0  0  0  0  0  0  0  0  0  0  0
   25.1689    9.2504   56.1788 C   0  0  0  0  0  0  0  0  0  0  0  0
   24.6894    9.7241   54.8262 C   0  0  0  0  0  0  0  0  0  0  0  0
   25.4028    9.3172   53.7819 O   0  0  0  0  0  0  0  0  0  0  0  0
   26.0774    8.0809   53.8541 C   0  0  0  0  0  0  0  0  0  0  0  0
   27.0216    8.1984   52.6409 C   0  0  0  0  0  0  0  0  0  0  0  0
   26.8978    7.9422   55.0730 C   0  0  0  0  0  0  0  0  0  0  0  0
   25.1491    6.9975   53.5908 N   0  0  0  0  0  0  0  0  0  0  0  0
   25.4622    5.7696   53.0857 C   0  0  0  0  0  0  0  0  0  0  0  0
   26.6445    5.1811   52.7710 C   0  0  0  0  0  0  0  0  0  0  0  0
   26.6769    3.8922   52.2806 C   0  0  0  0  0  0  0  0  0  0  0  0
   25.5355    3.1495   52.0891 C   0  0  0  0  0  0  0  0  0  0  0  0
   24.3299    3.7770   52.4219 C   0  0  0  0  0  0  0  0  0  0  0  0
   24.3122    5.0472   52.9041 C   0  0  0  0  0  0  0  0  0  0  0  0
   23.2691    5.8279   53.3041 C   0  0  0  0  0  0  0  0  0  0  0  0
   21.8853    5.6550   53.3613 C   0  0  0  0  0  0  0  0  0  0  0  0
   21.0919    4.4699   52.9628 C   0  0  0  0  0  0  0  0  0  0  0  0
   19.7263    4.8124   53.2179 N   0  0  0  0  0  0  0  0  0  0  0  0
   19.6870    6.1451   53.7525 C   0  0  0  0  0  0  0  0  0  0  0  0
   18.6067    6.6681   54.0569 O   0  0  0  0  0  0  0  0  0  0  0  0
   21.0414    6.6512   53.8336 C   0  0  0  0  0  0  0  0  0  0  0  0
   21.6150    7.8303   54.2519 C   0  0  0  0  0  0  0  0  0  0  0  0
   21.1147    9.0047   54.7962 C   0  0  0  0  0  0  0  0  0  0  0  0
   19.8519    9.4204   55.0890 C   0  0  0  0  0  0  0  0  0  0  0  0
   19.6903   10.6997   55.6483 C   0  0  0  0  0  0  0  0  0  0  0  0
   20.7744   11.4995   55.8889 C   0  0  0  0  0  0  0  0  0  0  0  0
   22.0501   11.0732   55.5902 C   0  0  0  0  0  0  0  0  0  0  0  0
   22.2134    9.8323   55.0473 C   0  0  0  0  0  0  0  0  0  0  0  0
   23.3226    9.2167   54.6833 N   0  0  0  0  0  0  0  0  0  0  0  0
   23.0012    8.0110   54.1969 C   0  0  0  0  0  0  0  0  0  0  0  0
   23.7858    6.9995   53.7188 C   0  0  0  0  0  0  0  0  0  0  0  0
   18.9239    4.1754   53.0341 H   0  0  0  0  0  0  0  0  0  0  0  0
   28.0454    9.9046   57.7861 C   0  0  0  0  0  0  0  0  0  0  0  0
   27.2741    8.7611   57.3356 N   0  0  0  0  0  0  0  0  0  0  0  0
   26.5465    8.5943   58.0729 H   0  0  0  0  0  0  0  0  0  0  0  0
   28.2759    7.9404   54.8862 O   0  0  0  0  0  0  0  0  0  0  0  0
   28.8366    9.1770   54.6852 C   0  0  0  0  0  0  0  0  0  0  0  0
 33 34  1  0  0  0
 34  1  1  0  0  0
  1  2  1  0  0  0
  2  3  1  0  0  0
  3  4  1  0  0  0
  4  5  1  0  0  0
  5  6  1  0  0  0
  5  7  1  0  0  0
  7 36  1  0  0  0
 36 37  1  0  0  0
  5  8  1  0  0  0
  8  9  1  0  0  0
  9 10  2  0  0  0
 10 11  1  0  0  0
 11 12  2  0  0  0
 12 13  1  0  0  0
 13 14  2  0  0  0
 14 15  1  0  0  0
 15 16  2  0  0  0
 16 17  1  0  0  0
 17 18  1  0  0  0
 18 19  1  0  0  0
 19 20  2  0  0  0
 19 21  1  0  0  0
 21 22  2  0  0  0
 22 23  1  0  0  0
 23 24  2  0  0  0
 24 25  1  0  0  0
 25 26  2  0  0  0
 26 27  1  0  0  0
 27 28  2  0  0  0
 28 29  1  0  0  0
 29 30  1  0  0  0
 30 31  2  0  0  0
  7  1  1  0  0  0
 31  8  1  0  0  0
 29  3  1  0  0  0
 14  9  1  0  0  0
 31 15  1  0  0  0
 21 16  1  0  0  0
 30 22  1  0  0  0
 28 23  1  0  0  0
 34 35  1  0  0  0
 18 32  1  0  0  0
M  END
> <minimizedAffinity>
74.67019

> <CNNscore>
0.1171855778

> <CNNaffinity>
5.9544386864

> <CNN_VS>
0.6977743506

> <CNNaffinity_variance>
0.4937526286

$$$$
[H]c1c([H])c([H])c2c(c1[H])c1c3c(c4c5c([H])c([H])c([H])c([H])c5n5c4c1n2[C@@]1(C([H])([H])[H])O[C@]5([H])C([H])([H])[C@@]([H])(N([H])C([H])([H])[H])[C@]1([H])OC([H])([H])[H])C(=O)N([H])C3([H])[H]


 37 44  0  0  0  0  0  0  0  0999 V2000
   20.2921    7.7796   52.8638 C   0  0  0  0  0  0  0  0  0  0  0  0
   21.3183    8.7789   53.2940 C   0  0  0  0  0  0  0  0  0  0  0  0
   21.6747    8.4382   54.7225 C   0  0  0  0  0  0  0  0  0  0  0  0
   21.5829    7.1549   55.0536 O   0  0  0  0  0  0  0  0  0  0  0  0
   21.7968    6.1754   54.0619 C   0  0  0  0  0  0  0  0  0  0  0  0
   21.2442    4.9232   54.7718 C   0  0  0  0  0  0  0  0  0  0  0  0
   21.0023    6.4087   52.8403 C   0  0  0  0  0  0  0  0  0  0  0  0
   23.2205    5.9802   53.8619 N   0  0  0  0  0  0  0  0  0  0  0  0
   23.8245    4.8451   53.4064 C   0  0  0  0  0  0  0  0  0  0  0  0
   23.3340    3.6632   52.9529 C   0  0  0  0  0  0  0  0  0  0  0  0
   24.1881    2.6668   52.5281 C   0  0  0  0  0  0  0  0  0  0  0  0
   25.5551    2.8155   52.5408 C   0  0  0  0  0  0  0  0  0  0  0  0
   26.0365    4.0423   53.0110 C   0  0  0  0  0  0  0  0  0  0  0  0
   25.1839    5.0154   53.4263 C   0  0  0  0  0  0  0  0  0  0  0  0
   25.4338    6.2711   53.8937 C   0  0  0  0  0  0  0  0  0  0  0  0
   26.5925    7.0112   54.1343 C   0  0  0  0  0  0  0  0  0  0  0  0
   28.0011    6.6002   53.9355 C   0  0  0  0  0  0  0  0  0  0  0  0
   28.7937    7.7222   54.3358 N   0  0  0  0  0  0  0  0  0  0  0  0
   27.9095    8.7732   54.7560 C   0  0  0  0  0  0  0  0  0  0  0  0
   28.3633    9.8562   55.1489 O   0  0  0  0  0  0  0  0  0  0  0  0
   26.5439    8.3100   54.6226 C   0  0  0  0  0  0  0  0  0  0  0  0
   25.3041    8.8565   54.8646 C   0  0  0  0  0  0  0  0  0  0  0  0
   24.8686   10.0962   55.3109 C   0  0  0  0  0  0  0  0  0  0  0  0
   25.5302   11.2210   55.6986 C   0  0  0  0  0  0  0  0  0  0  0  0
   24.7675   12.3304   56.1024 C   0  0  0  0  0  0  0  0  0  0  0  0
   23.4000   12.2753   56.1039 C   0  0  0  0  0  0  0  0  0  0  0  0
   22.7361   11.1339   55.7105 C   0  0  0  0  0  0  0  0  0  0  0  0
   23.4710   10.0539   55.3173 C   0  0  0  0  0  0  0  0  0  0  0  0
   23.0631    8.8685   54.9045 N   0  0  0  0  0  0  0  0  0  0  0  0
   24.1385    8.1204   54.6265 C   0  0  0  0  0  0  0  0  0  0  0  0
   24.2431    6.8440   54.1498 C   0  0  0  0  0  0  0  0  0  0  0  0
   29.8342    7.7360   54.3117 H   0  0  0  0  0  0  0  0  0  0  0  0
   20.8426    8.5145   50.6971 C   0  0  0  0  0  0  0  0  0  0  0  0
   19.7592    8.0552   51.5461 N   0  0  0  0  0  0  0  0  0  0  0  0
   19.3967    7.1762   51.1024 H   0  0  0  0  0  0  0  0  0  0  0  0
   19.9800    5.4992   52.5921 O   0  0  0  0  0  0  0  0  0  0  0  0
   18.9160    5.5710   53.4560 C   0  0  0  0  0  0  0  0  0  0  0  0
 33 34  1  0  0  0
 34  1  1  0  0  0
  1  2  1  0  0  0
  2  3  1  0  0  0
  3  4  1  0  0  0
  4  5  1  0  0  0
  5  6  1  0  0  0
  5  7  1  0  0  0
  7 36  1  0  0  0
 36 37  1  0  0  0
  5  8  1  0  0  0
  8  9  1  0  0  0
  9 10  2  0  0  0
 10 11  1  0  0  0
 11 12  2  0  0  0
 12 13  1  0  0  0
 13 14  2  0  0  0
 14 15  1  0  0  0
 15 16  2  0  0  0
 16 17  1  0  0  0
 17 18  1  0  0  0
 18 19  1  0  0  0
 19 20  2  0  0  0
 19 21  1  0  0  0
 21 22  2  0  0  0
 22 23  1  0  0  0
 23 24  2  0  0  0
 24 25  1  0  0  0
 25 26  2  0  0  0
 26 27  1  0  0  0
 27 28  2  0  0  0
 28 29  1  0  0  0
 29 30  1  0  0  0
 30 31  2  0  0  0
  7  1  1  0  0  0
 31  8  1  0  0  0
 29  3  1  0  0  0
 14  9  1  0  0  0
 31 15  1  0  0  0
 21 16  1  0  0  0
 30 22  1  0  0  0
 28 23  1  0  0  0
 34 35  1  0  0  0
 18 32  1  0  0  0
M  END
> <minimizedAffinity>
87.30761

> <CNNscore>
0.0954207927

> <CNNaffinity>
5.6965765953

> <CNN_VS>
0.5435718298

> <CNNaffinity_variance>
0.9470922351

$$$$
[H]c1c([H])c([H])c2c(c1[H])c1c3c(c4c5c([H])c([H])c([H])c([H])c5n5c4c1n2[C@@]1(C([H])([H])[H])O[C@]5([H])C([H])([H])[C@@]([H])(N([H])C([H])([H])[H])[C@]1([H])OC([H])([H])[H])C(=O)N([H])C3([H])[H]


 37 44  0  0  0  0  0  0  0  0999 V2000
   27.2352    8.6437   51.6427 C   0  0  0  0  0  0  0  0  0  0  0  0
   25.7514    8.8291   51.6709 C   0  0  0  0  0  0  0  0  0  0  0  0
   25.1848    7.6331   52.4005 C   0  0  0  0  0  0  0  0  0  0  0  0
   25.9671    7.0957   53.3301 O   0  0  0  0  0  0  0  0  0  0  0  0
   26.8824    7.9214   54.0149 C   0  0  0  0  0  0  0  0  0  0  0  0
   27.7823    6.8612   54.6807 C   0  0  0  0  0  0  0  0  0  0  0  0
   27.7135    8.7368   53.1079 C   0  0  0  0  0  0  0  0  0  0  0  0
   26.1980    8.6474   55.0681 N   0  0  0  0  0  0  0  0  0  0  0  0
   26.7580    9.1236   56.2172 C   0  0  0  0  0  0  0  0  0  0  0  0
   28.0364    9.1475   56.6736 C   0  0  0  0  0  0  0  0  0  0  0  0
   28.3344    9.7191   57.8931 C   0  0  0  0  0  0  0  0  0  0  0  0
   27.3710   10.2847   58.6950 C   0  0  0  0  0  0  0  0  0  0  0  0
   26.0618   10.2491   58.2027 C   0  0  0  0  0  0  0  0  0  0  0  0
   25.7821    9.6830   56.9995 C   0  0  0  0  0  0  0  0  0  0  0  0
   24.6001    9.5607   56.3320 C   0  0  0  0  0  0  0  0  0  0  0  0
   23.2818    9.9297   56.6042 C   0  0  0  0  0  0  0  0  0  0  0  0
   22.7504   10.6144   57.8047 C   0  0  0  0  0  0  0  0  0  0  0  0
   21.3434   10.7514   57.5834 N   0  0  0  0  0  0  0  0  0  0  0  0
   21.0296   10.1803   56.3034 C   0  0  0  0  0  0  0  0  0  0  0  0
   19.8645   10.1805   55.8841 O   0  0  0  0  0  0  0  0  0  0  0  0
   22.2502    9.6745   55.7106 C   0  0  0  0  0  0  0  0  0  0  0  0
   22.5679    9.0405   54.5310 C   0  0  0  0  0  0  0  0  0  0  0  0
   21.8357    8.6573   53.4162 C   0  0  0  0  0  0  0  0  0  0  0  0
   20.5143    8.7530   53.1036 C   0  0  0  0  0  0  0  0  0  0  0  0
   20.0917    8.2549   51.8590 C   0  0  0  0  0  0  0  0  0  0  0  0
   20.9873    7.6912   50.9911 C   0  0  0  0  0  0  0  0  0  0  0  0
   22.3236    7.5971   51.3133 C   0  0  0  0  0  0  0  0  0  0  0  0
   22.7398    8.0789   52.5199 C   0  0  0  0  0  0  0  0  0  0  0  0
   23.9523    8.0990   53.0407 N   0  0  0  0  0  0  0  0  0  0  0  0
   23.8869    8.6671   54.2516 C   0  0  0  0  0  0  0  0  0  0  0  0
   24.8636    8.9380   55.1682 C   0  0  0  0  0  0  0  0  0  0  0  0
   20.6899   11.1966   58.2603 H   0  0  0  0  0  0  0  0  0  0  0  0
   28.1577    9.1302   49.5332 C   0  0  0  0  0  0  0  0  0  0  0  0
   27.9120    9.6582   50.8623 N   0  0  0  0  0  0  0  0  0  0  0  0
   27.2951   10.4967   50.7309 H   0  0  0  0  0  0  0  0  0  0  0  0
   29.0623    8.4033   53.0482 O   0  0  0  0  0  0  0  0  0  0  0  0
   29.3786    7.1684   53.5569 C   0  0  0  0  0  0  0  0  0  0  0  0
 33 34  1  0  0  0
 34  1  1  0  0  0
  1  2  1  0  0  0
  2  3  1  0  0  0
  3  4  1  0  0  0
  4  5  1  0  0  0
  5  6  1  0  0  0
  5  7  1  0  0  0
  7 36  1  0  0  0
 36 37  1  0  0  0
  5  8  1  0  0  0
  8  9  1  0  0  0
  9 10  2  0  0  0
 10 11  1  0  0  0
 11 12  2  0  0  0
 12 13  1  0  0  0
 13 14  2  0  0  0
 14 15  1  0  0  0
 15 16  2  0  0  0
 16 17  1  0  0  0
 17 18  1  0  0  0
 18 19  1  0  0  0
 19 20  2  0  0  0
 19 21  1  0  0  0
 21 22  2  0  0  0
 22 23  1  0  0  0
 23 24  2  0  0  0
 24 25  1  0  0  0
 25 26  2  0  0  0
 26 27  1  0  0  0
 27 28  2  0  0  0
 28 29  1  0  0  0
 29 30  1  0  0  0
 30 31  2  0  0  0
  7  1  1  0  0  0
 31  8  1  0  0  0
 29  3  1  0  0  0
 14  9  1  0  0  0
 31 15  1  0  0  0
 21 16  1  0  0  0
 30 22  1  0  0  0
 28 23  1  0  0  0
 34 35  1  0  0  0
 18 32  1  0  0  0
M  END
> <minimizedAffinity>
82.65717

> <CNNscore>
0.0930664614

> <CNNaffinity>
5.6383180618

> <CNN_VS>
0.5247383118

> <CNNaffinity_variance>
1.1333706379

$$$$
[H]c1c([H])c([H])c2c(c1[H])c1c3c(c4c5c([H])c([H])c([H])c([H])c5n5c4c1n2[C@@]1(C([H])([H])[H])O[C@]5([H])C([H])([H])[C@@]([H])(N([H])C([H])([H])[H])[C@]1([H])OC([H])([H])[H])C(=O)N([H])C3([H])[H]


 37 44  0  0  0  0  0  0  0  0999 V2000
   25.1146    7.4242   54.8086 C   0  0  0  0  0  0  0  0  0  0  0  0
   24.0238    6.6121   54.1861 C   0  0  0  0  0  0  0  0  0  0  0  0
   22.7746    6.8850   54.9915 C   0  0  0  0  0  0  0  0  0  0  0  0
   22.6928    8.0894   55.5462 O   0  0  0  0  0  0  0  0  0  0  0  0
   23.3295    9.1780   54.9152 C   0  0  0  0  0  0  0  0  0  0  0  0
   23.2912   10.2266   56.0449 C   0  0  0  0  0  0  0  0  0  0  0  0
   24.7404    8.9046   54.5791 C   0  0  0  0  0  0  0  0  0  0  0  0
   22.5044    9.6675   53.8270 N   0  0  0  0  0  0  0  0  0  0  0  0
   22.4972   10.9362   53.3256 C   0  0  0  0  0  0  0  0  0  0  0  0
   23.2480   12.0343   53.5967 C   0  0  0  0  0  0  0  0  0  0  0  0
   23.0359   13.2141   52.9141 C   0  0  0  0  0  0  0  0  0  0  0  0
   22.0718   13.3375   51.9413 C   0  0  0  0  0  0  0  0  0  0  0  0
   21.3121   12.1921   51.6789 C   0  0  0  0  0  0  0  0  0  0  0  0
   21.5316   11.0363   52.3586 C   0  0  0  0  0  0  0  0  0  0  0  0
   20.9316    9.8173   52.2494 C   0  0  0  0  0  0  0  0  0  0  0  0
   19.9046    9.3016   51.4574 C   0  0  0  0  0  0  0  0  0  0  0  0
   19.1045    9.9988   50.4247 C   0  0  0  0  0  0  0  0  0  0  0  0
   18.1877    9.0236   49.9190 N   0  0  0  0  0  0  0  0  0  0  0  0
   18.4199    7.7849   50.6083 C   0  0  0  0  0  0  0  0  0  0  0  0
   17.7452    6.7816   50.3413 O   0  0  0  0  0  0  0  0  0  0  0  0
   19.4926    7.9798   51.5614 C   0  0  0  0  0  0  0  0  0  0  0  0
   20.1352    7.1797   52.4786 C   0  0  0  0  0  0  0  0  0  0  0  0
   20.0249    5.8431   52.8350 C   0  0  0  0  0  0  0  0  0  0  0  0
   19.2075    4.8404   52.4112 C   0  0  0  0  0  0  0  0  0  0  0  0
   19.3633    3.5703   52.9927 C   0  0  0  0  0  0  0  0  0  0  0  0
   20.3107    3.3542   53.9564 C   0  0  0  0  0  0  0  0  0  0  0  0
   21.1351    4.3731   54.3813 C   0  0  0  0  0  0  0  0  0  0  0  0
   20.9887    5.6081   53.8204 C   0  0  0  0  0  0  0  0  0  0  0  0
   21.6534    6.7223   54.0628 N   0  0  0  0  0  0  0  0  0  0  0  0
   21.1649    7.6900   53.2764 C   0  0  0  0  0  0  0  0  0  0  0  0
   21.5282    8.9999   53.1368 C   0  0  0  0  0  0  0  0  0  0  0  0
   17.4854    9.2175   49.1757 H   0  0  0  0  0  0  0  0  0  0  0  0
   26.6728    8.1949   53.2226 C   0  0  0  0  0  0  0  0  0  0  0  0
   26.4108    7.1699   54.2157 N   0  0  0  0  0  0  0  0  0  0  0  0
   27.1704    7.2619   54.9337 H   0  0  0  0  0  0  0  0  0  0  0  0
   25.6910    9.6133   55.3057 O   0  0  0  0  0  0  0  0  0  0  0  0
   26.4844    8.8495   56.1248 C   0  0  0  0  0  0  0  0  0  0  0  0
 33 34  1  0  0  0
 34  1  1  0  0  0
  1  2  1  0  0  0
  2  3  1  0  0  0
  3  4  1  0  0  0
  4  5  1  0  0  0
  5  6  1  0  0  0
  5  7  1  0  0  0
  7 36  1  0  0  0
 36 37  1  0  0  0
  5  8  1  0  0  0
  8  9  1  0  0  0
  9 10  2  0  0  0
 10 11  1  0  0  0
 11 12  2  0  0  0
 12 13  1  0  0  0
 13 14  2  0  0  0
 14 15  1  0  0  0
 15 16  2  0  0  0
 16 17  1  0  0  0
 17 18  1  0  0  0
 18 19  1  0  0  0
 19 20  2  0  0  0
 19 21  1  0  0  0
 21 22  2  0  0  0
 22 23  1  0  0  0
 23 24  2  0  0  0
 24 25  1  0  0  0
 25 26  2  0  0  0
 26 27  1  0  0  0
 27 28  2  0  0  0
 28 29  1  0  0  0
 29 30  1  0  0  0
 30 31  2  0  0  0
  7  1  1  0  0  0
 31  8  1  0  0  0
 29  3  1  0  0  0
 14  9  1  0  0  0
 31 15  1  0  0  0
 21 16  1  0  0  0
 30 22  1  0  0  0
 28 23  1  0  0  0
 34 35  1  0  0  0
 18 32  1  0  0  0
M  END
> <minimizedAffinity>
84.84441

> <CNNscore>
0.0423541367

> <CNNaffinity>
5.7212638855

> <CNN_VS>
0.2423191965

> <CNNaffinity_variance>
0.6832190156

$$$$
[H]c1c([H])c([H])c(C([H])([H])OC(=O)[C@@]([H])(N([H])C(=O)[C@@]([H])(N([H])C(=O)[C@]2([H])OC(=O)[C@@]2([H])[C@@]([H])(C([H])([H])[H])C([H])([H])C([H])([H])[H])C([H])([H])c2c([H])c([H])c([H])c([H])c2[H])C([H])([H])C([H])(C([H])([H])[H])C([H])([H])[H])c([H])c1[H]


 40 42  0  0  0  0  0  0  0  0999 V2000
   21.6052    7.3755   52.4261 C   0  0  0  0  0  0  0  0  0  0  0  0
   20.1281    5.9490   53.8712 C   0  0  0  0  0  0  0  0  0  0  0  0
   19.7866    6.9901   54.4847 O   0  0  0  0  0  0  0  0  0  0  0  0
   21.0547    6.0603   52.8108 N   0  0  0  0  0  0  0  0  0  0  0  0
   21.3322    5.1859   52.3116 H   0  0  0  0  0  0  0  0  0  0  0  0
   18.4617    4.2386   53.3099 C   0  0  0  0  0  0  0  0  0  0  0  0
   19.5473    4.6624   54.2844 C   0  0  0  0  0  0  0  0  0  0  0  0
   20.2680    3.5159   53.8675 O   0  0  0  0  0  0  0  0  0  0  0  0
   19.3864    3.1591   52.8704 C   0  0  0  0  0  0  0  0  0  0  0  0
   19.3916    2.2819   51.9790 O   0  0  0  0  0  0  0  0  0  0  0  0
   17.1940    3.7182   53.9607 C   0  0  0  0  0  0  0  0  0  0  0  0
   16.6768    4.7272   54.9331 C   0  0  0  0  0  0  0  0  0  0  0  0
   14.7626    3.5666   53.3296 C   0  0  0  0  0  0  0  0  0  0  0  0
   16.1854    3.2958   52.9316 C   0  0  0  0  0  0  0  0  0  0  0  0
   22.7499    7.7679   53.2375 C   0  0  0  0  0  0  0  0  0  0  0  0
   22.4950    8.0927   54.4470 O   0  0  0  0  0  0  0  0  0  0  0  0
   24.1174    7.8106   52.7750 N   0  0  0  0  0  0  0  0  0  0  0  0
   24.3409    7.5450   51.8074 H   0  0  0  0  0  0  0  0  0  0  0  0
   25.1188    8.2422   53.7429 C   0  0  0  0  0  0  0  0  0  0  0  0
   26.4693    8.3172   53.1976 C   0  0  0  0  0  0  0  0  0  0  0  0
   27.4151    7.8295   53.8782 O   0  0  0  0  0  0  0  0  0  0  0  0
   26.8256    8.8743   51.9996 O   0  0  0  0  0  0  0  0  0  0  0  0
   28.0138    9.4384   51.5918 C   0  0  0  0  0  0  0  0  0  0  0  0
   28.2039    9.7157   50.1652 C   0  0  0  0  0  0  0  0  0  0  0  0
   28.3363   11.0133   49.7277 C   0  0  0  0  0  0  0  0  0  0  0  0
   28.5057   11.3491   48.4079 C   0  0  0  0  0  0  0  0  0  0  0  0
   28.5478   10.3490   47.4613 C   0  0  0  0  0  0  0  0  0  0  0  0
   28.4204    9.0523   47.8589 C   0  0  0  0  0  0  0  0  0  0  0  0
   28.2458    8.7141   49.2195 C   0  0  0  0  0  0  0  0  0  0  0  0
   25.1550    7.0377   54.7327 C   0  0  0  0  0  0  0  0  0  0  0  0
   24.0507    6.0651   54.4860 C   0  0  0  0  0  0  0  0  0  0  0  0
   23.8183    5.3595   55.8412 C   0  0  0  0  0  0  0  0  0  0  0  0
   24.4170    4.9639   53.5220 C   0  0  0  0  0  0  0  0  0  0  0  0
   20.4795    8.4090   52.4793 C   0  0  0  0  0  0  0  0  0  0  0  0
   20.9768    9.7794   52.4867 C   0  0  0  0  0  0  0  0  0  0  0  0
   21.1417   10.4850   51.3190 C   0  0  0  0  0  0  0  0  0  0  0  0
   21.6160   11.7761   51.2890 C   0  0  0  0  0  0  0  0  0  0  0  0
   21.9420   12.3928   52.4837 C   0  0  0  0  0  0  0  0  0  0  0  0
   21.7833   11.6973   53.6766 C   0  0  0  0  0  0  0  0  0  0  0  0
   21.3025   10.3979   53.6688 C   0  0  0  0  0  0  0  0  0  0  0  0
 13 14  1  0  0  0
 14 11  1  0  0  0
 11 12  1  0  0  0
 11  6  1  0  0  0
  6  7  1  0  0  0
  7  8  1  0  0  0
  8  9  1  0  0  0
  9 10  2  0  0  0
  7  2  1  0  0  0
  2  3  2  0  0  0
  2  4  1  0  0  0
  4  1  1  0  0  0
  1 34  1  0  0  0
 34 35  1  0  0  0
 35 36  2  0  0  0
 36 37  1  0  0  0
 37 38  2  0  0  0
 38 39  1  0  0  0
 39 40  2  0  0  0
  1 15  1  0  0  0
 15 16  2  0  0  0
 15 17  1  0  0  0
 17 19  1  0  0  0
 19 30  1  0  0  0
 30 31  1  0  0  0
 31 32  1  0  0  0
 31 33  1  0  0  0
 19 20  1  0  0  0
 20 21  2  0  0  0
 20 22  1  0  0  0
 22 23  1  0  0  0
 23 24  1  0  0  0
 24 25  2  0  0  0
 25 26  1  0  0  0
 26 27  2  0  0  0
 27 28  1  0  0  0
 28 29  2  0  0  0
  9  6  1  0  0  0
 40 35  1  0  0  0
 29 24  1  0  0  0
  4  5  1  0  0  0
 17 18  1  0  0  0
M  END
> <minimizedAffinity>
27.29357

> <CNNscore>
0.5491654873

> <CNNaffinity>
6.4057145119

> <CNN_VS>
3.5177972317

> <CNNaffinity_variance>
0.5007285476

$$$$
[H]c1c([H])c([H])c(C([H])([H])OC(=O)[C@@]([H])(N([H])C(=O)[C@@]([H])(N([H])C(=O)[C@]2([H])OC(=O)[C@@]2([H])[C@@]([H])(C([H])([H])[H])C([H])([H])C([H])([H])[H])C([H])([H])c2c([H])c([H])c([H])c([H])c2[H])C([H])([H])C([H])(C([H])([H])[H])C([H])([H])[H])c([H])c1[H]


 40 42  0  0  0  0  0  0  0  0999 V2000
   26.6629    8.9768   52.9029 C   0  0  0  0  0  0  0  0  0  0  0  0
   24.2588    8.3017   53.1673 C   0  0  0  0  0  0  0  0  0  0  0  0
   24.4163    8.3679   54.4115 O   0  0  0  0  0  0  0  0  0  0  0  0
   25.3573    8.5937   52.3286 N   0  0  0  0  0  0  0  0  0  0  0  0
   25.2129    8.5314   51.2962 H   0  0  0  0  0  0  0  0  0  0  0  0
   21.8490    8.3137   53.6254 C   0  0  0  0  0  0  0  0  0  0  0  0
   22.9384    7.9239   52.6411 C   0  0  0  0  0  0  0  0  0  0  0  0
   22.3600    8.8553   51.7435 O   0  0  0  0  0  0  0  0  0  0  0  0
   21.4377    9.3498   52.6400 C   0  0  0  0  0  0  0  0  0  0  0  0
   20.6095   10.2863   52.6068 O   0  0  0  0  0  0  0  0  0  0  0  0
   20.7932    7.2492   53.8565 C   0  0  0  0  0  0  0  0  0  0  0  0
   19.8373    7.2310   52.7088 C   0  0  0  0  0  0  0  0  0  0  0  0
   20.6407    4.7502   53.6015 C   0  0  0  0  0  0  0  0  0  0  0  0
   21.4174    5.9146   54.1465 C   0  0  0  0  0  0  0  0  0  0  0  0
   27.6794    9.2136   51.8865 C   0  0  0  0  0  0  0  0  0  0  0  0
   28.8866    9.2681   52.3026 O   0  0  0  0  0  0  0  0  0  0  0  0
   27.4172    9.3845   50.4766 N   0  0  0  0  0  0  0  0  0  0  0  0
   26.4528    9.3357   50.1239 H   0  0  0  0  0  0  0  0  0  0  0  0
   28.5751    9.6230   49.6232 C   0  0  0  0  0  0  0  0  0  0  0  0
   28.9802   11.0226   49.5599 C   0  0  0  0  0  0  0  0  0  0  0  0
   29.1088   11.6557   50.6454 O   0  0  0  0  0  0  0  0  0  0  0  0
   29.2400   11.7364   48.4218 O   0  0  0  0  0  0  0  0  0  0  0  0
   28.3841   12.2768   47.4881 C   0  0  0  0  0  0  0  0  0  0  0  0
   27.2402   13.0627   47.9591 C   0  0  0  0  0  0  0  0  0  0  0  0
   26.7348   14.0779   47.1802 C   0  0  0  0  0  0  0  0  0  0  0  0
   25.6745   14.8619   47.5604 C   0  0  0  0  0  0  0  0  0  0  0  0
   25.0746   14.6338   48.7795 C   0  0  0  0  0  0  0  0  0  0  0  0
   25.5488   13.6361   49.5767 C   0  0  0  0  0  0  0  0  0  0  0  0
   26.6412   12.8333   49.1789 C   0  0  0  0  0  0  0  0  0  0  0  0
   28.0053    9.3084   48.2062 C   0  0  0  0  0  0  0  0  0  0  0  0
   29.0178    8.6715   47.3142 C   0  0  0  0  0  0  0  0  0  0  0  0
   28.4100    8.7376   45.8948 C   0  0  0  0  0  0  0  0  0  0  0  0
   29.2288    7.2031   47.5885 C   0  0  0  0  0  0  0  0  0  0  0  0
   27.0883    7.9024   53.9044 C   0  0  0  0  0  0  0  0  0  0  0  0
   27.3954    8.4522   55.2193 C   0  0  0  0  0  0  0  0  0  0  0  0
   26.4145    9.0007   56.0103 C   0  0  0  0  0  0  0  0  0  0  0  0
   26.6704    9.5353   57.2519 C   0  0  0  0  0  0  0  0  0  0  0  0
   27.9697    9.5219   57.7267 C   0  0  0  0  0  0  0  0  0  0  0  0
   28.9775    8.9723   56.9430 C   0  0  0  0  0  0  0  0  0  0  0  0
   28.6829    8.4424   55.6972 C   0  0  0  0  0  0  0  0  0  0  0  0
 13 14  1  0  0  0
 14 11  1  0  0  0
 11 12  1  0  0  0
 11  6  1  0  0  0
  6  7  1  0  0  0
  7  8  1  0  0  0
  8  9  1  0  0  0
  9 10  2  0  0  0
  7  2  1  0  0  0
  2  3  2  0  0  0
  2  4  1  0  0  0
  4  1  1  0  0  0
  1 34  1  0  0  0
 34 35  1  0  0  0
 35 36  2  0  0  0
 36 37  1  0  0  0
 37 38  2  0  0  0
 38 39  1  0  0  0
 39 40  2  0  0  0
  1 15  1  0  0  0
 15 16  2  0  0  0
 15 17  1  0  0  0
 17 19  1  0  0  0
 19 30  1  0  0  0
 30 31  1  0  0  0
 31 32  1  0  0  0
 31 33  1  0  0  0
 19 20  1  0  0  0
 20 21  2  0  0  0
 20 22  1  0  0  0
 22 23  1  0  0  0
 23 24  1  0  0  0
 24 25  2  0  0  0
 25 26  1  0  0  0
 26 27  2  0  0  0
 27 28  1  0  0  0
 28 29  2  0  0  0
  9  6  1  0  0  0
 40 35  1  0  0  0
 29 24  1  0  0  0
  4  5  1  0  0  0
 17 18  1  0  0  0
M  END
> <minimizedAffinity>
31.06122

> <CNNscore>
0.5480662584

> <CNNaffinity>
6.2561173439

> <CNN_VS>
3.4287667274

> <CNNaffinity_variance>
0.5145345926

$$$$
[H]c1c([H])c([H])c(C([H])([H])OC(=O)[C@@]([H])(N([H])C(=O)[C@@]([H])(N([H])C(=O)[C@]2([H])OC(=O)[C@@]2([H])[C@@]([H])(C([H])([H])[H])C([H])([H])C([H])([H])[H])C([H])([H])c2c([H])c([H])c([H])c([H])c2[H])C([H])([H])C([H])(C([H])([H])[H])C([H])([H])[H])c([H])c1[H]


 40 42  0  0  0  0  0  0  0  0999 V2000
   24.4153    7.3669   53.1535 C   0  0  0  0  0  0  0  0  0  0  0  0
   26.4474    8.7650   53.6232 C   0  0  0  0  0  0  0  0  0  0  0  0
   26.6036    8.8873   52.3832 O   0  0  0  0  0  0  0  0  0  0  0  0
   25.3572    8.0020   54.0971 N   0  0  0  0  0  0  0  0  0  0  0  0
   25.2415    7.9060   55.1306 H   0  0  0  0  0  0  0  0  0  0  0  0
   27.6397    8.5665   55.7579 C   0  0  0  0  0  0  0  0  0  0  0  0
   27.4060    9.4222   54.5246 C   0  0  0  0  0  0  0  0  0  0  0  0
   28.7709    9.2108   54.2083 O   0  0  0  0  0  0  0  0  0  0  0  0
   29.0077    8.3160   55.2292 C   0  0  0  0  0  0  0  0  0  0  0  0
   29.9837    7.6033   55.5509 O   0  0  0  0  0  0  0  0  0  0  0  0
   27.6307    9.3290   57.0693 C   0  0  0  0  0  0  0  0  0  0  0  0
   28.2079    8.4761   58.1513 C   0  0  0  0  0  0  0  0  0  0  0  0
   28.1991   11.5272   58.1546 C   0  0  0  0  0  0  0  0  0  0  0  0
   28.3009   10.6654   56.9286 C   0  0  0  0  0  0  0  0  0  0  0  0
   23.1409    8.0679   53.0697 C   0  0  0  0  0  0  0  0  0  0  0  0
   23.0664    9.1739   53.7058 O   0  0  0  0  0  0  0  0  0  0  0  0
   21.9882    7.6059   52.3324 N   0  0  0  0  0  0  0  0  0  0  0  0
   22.0337    6.7224   51.8088 H   0  0  0  0  0  0  0  0  0  0  0  0
   20.8011    8.4510   52.3836 C   0  0  0  0  0  0  0  0  0  0  0  0
   20.4531    9.0538   51.1020 C   0  0  0  0  0  0  0  0  0  0  0  0
   21.0476   10.1150   50.7613 O   0  0  0  0  0  0  0  0  0  0  0  0
   19.5286    8.5790   50.2119 O   0  0  0  0  0  0  0  0  0  0  0  0
   18.3213    9.1043   49.8082 C   0  0  0  0  0  0  0  0  0  0  0  0
   18.2025    9.6144   48.4394 C   0  0  0  0  0  0  0  0  0  0  0  0
   18.3681    8.7638   47.3708 C   0  0  0  0  0  0  0  0  0  0  0  0
   18.2824    9.1720   46.0633 C   0  0  0  0  0  0  0  0  0  0  0  0
   18.0175   10.4962   45.7900 C   0  0  0  0  0  0  0  0  0  0  0  0
   17.8474   11.3667   46.8239 C   0  0  0  0  0  0  0  0  0  0  0  0
   17.9376   10.9392   48.1675 C   0  0  0  0  0  0  0  0  0  0  0  0
   21.2871    9.6417   53.2654 C   0  0  0  0  0  0  0  0  0  0  0  0
   21.1511    9.3618   54.7247 C   0  0  0  0  0  0  0  0  0  0  0  0
   19.9654    8.3775   54.8423 C   0  0  0  0  0  0  0  0  0  0  0  0
   20.7494   10.5671   55.5381 C   0  0  0  0  0  0  0  0  0  0  0  0
   24.2417    5.9007   53.5516 C   0  0  0  0  0  0  0  0  0  0  0  0
   23.4792    5.7412   54.7840 C   0  0  0  0  0  0  0  0  0  0  0  0
   23.8285    4.8000   55.7225 C   0  0  0  0  0  0  0  0  0  0  0  0
   23.1269    4.6173   56.8917 C   0  0  0  0  0  0  0  0  0  0  0  0
   22.0219    5.4132   57.1355 C   0  0  0  0  0  0  0  0  0  0  0  0
   21.6506    6.3713   56.1995 C   0  0  0  0  0  0  0  0  0  0  0  0
   22.3812    6.5276   55.0327 C   0  0  0  0  0  0  0  0  0  0  0  0
 13 14  1  0  0  0
 14 11  1  0  0  0
 11 12  1  0  0  0
 11  6  1  0  0  0
  6  7  1  0  0  0
  7  8  1  0  0  0
  8  9  1  0  0  0
  9 10  2  0  0  0
  7  2  1  0  0  0
  2  3  2  0  0  0
  2  4  1  0  0  0
  4  1  1  0  0  0
  1 34  1  0  0  0
 34 35  1  0  0  0
 35 36  2  0  0  0
 36 37  1  0  0  0
 37 38  2  0  0  0
 38 39  1  0  0  0
 39 40  2  0  0  0
  1 15  1  0  0  0
 15 16  2  0  0  0
 15 17  1  0  0  0
 17 19  1  0  0  0
 19 30  1  0  0  0
 30 31  1  0  0  0
 31 32  1  0  0  0
 31 33  1  0  0  0
 19 20  1  0  0  0
 20 21  2  0  0  0
 20 22  1  0  0  0
 22 23  1  0  0  0
 23 24  1  0  0  0
 24 25  2  0  0  0
 25 26  1  0  0  0
 26 27  2  0  0  0
 27 28  1  0  0  0
 28 29  2  0  0  0
  9  6  1  0  0  0
 40 35  1  0  0  0
 29 24  1  0  0  0
  4  5  1  0  0  0
 17 18  1  0  0  0
M  END
> <minimizedAffinity>
42.18743

> <CNNscore>
0.4823376536

> <CNNaffinity>
6.1068868637

> <CNN_VS>
2.9455814362

> <CNNaffinity_variance>
1.2285571098

$$$$
[H]c1c([H])c([H])c(C([H])([H])OC(=O)[C@@]([H])(N([H])C(=O)[C@@]([H])(N([H])C(=O)[C@]2([H])OC(=O)[C@@]2([H])[C@@]([H])(C([H])([H])[H])C([H])([H])C([H])([H])[H])C([H])([H])c2c([H])c([H])c([H])c([H])c2[H])C([H])([H])C([H])(C([H])([H])[H])C([H])([H])[H])c([H])c1[H]


 40 42  0  0  0  0  0  0  0  0999 V2000
   27.3248    9.1325   53.2099 C   0  0  0  0  0  0  0  0  0  0  0  0
   25.0060    8.3713   53.8008 C   0  0  0  0  0  0  0  0  0  0  0  0
   25.1796    8.8557   54.9463 O   0  0  0  0  0  0  0  0  0  0  0  0
   26.0536    8.4682   52.8581 N   0  0  0  0  0  0  0  0  0  0  0  0
   25.8967    8.0581   51.9105 H   0  0  0  0  0  0  0  0  0  0  0  0
   22.5736    8.5379   54.0715 C   0  0  0  0  0  0  0  0  0  0  0  0
   23.7204    7.7264   53.4934 C   0  0  0  0  0  0  0  0  0  0  0  0
   23.1897    8.0233   52.2136 O   0  0  0  0  0  0  0  0  0  0  0  0
   22.2143    8.8832   52.6696 C   0  0  0  0  0  0  0  0  0  0  0  0
   21.3841    9.6315   52.1083 O   0  0  0  0  0  0  0  0  0  0  0  0
   21.5122    7.7187   54.7812 C   0  0  0  0  0  0  0  0  0  0  0  0
   20.2059    7.8646   54.0716 C   0  0  0  0  0  0  0  0  0  0  0  0
   21.4347    5.3641   53.8963 C   0  0  0  0  0  0  0  0  0  0  0  0
   21.9500    6.2932   54.9581 C   0  0  0  0  0  0  0  0  0  0  0  0
   28.0998    9.5245   52.0402 C   0  0  0  0  0  0  0  0  0  0  0  0
   29.2213   10.0908   52.2746 O   0  0  0  0  0  0  0  0  0  0  0  0
   27.6933    9.3181   50.6698 N   0  0  0  0  0  0  0  0  0  0  0  0
   26.7980    8.8570   50.4636 H   0  0  0  0  0  0  0  0  0  0  0  0
   28.6096    9.7938   49.6403 C   0  0  0  0  0  0  0  0  0  0  0  0
   28.5280   11.2297   49.3989 C   0  0  0  0  0  0  0  0  0  0  0  0
   28.0348   11.9594   50.3044 O   0  0  0  0  0  0  0  0  0  0  0  0
   28.9384   11.8822   48.2683 O   0  0  0  0  0  0  0  0  0  0  0  0
   28.2663   12.7585   47.4456 C   0  0  0  0  0  0  0  0  0  0  0  0
   27.0261   13.3670   47.9351 C   0  0  0  0  0  0  0  0  0  0  0  0
   26.7542   14.6883   47.6652 C   0  0  0  0  0  0  0  0  0  0  0  0
   25.6203   15.3276   48.0998 C   0  0  0  0  0  0  0  0  0  0  0  0
   24.6978   14.6254   48.8441 C   0  0  0  0  0  0  0  0  0  0  0  0
   24.9342   13.3146   49.1300 C   0  0  0  0  0  0  0  0  0  0  0  0
   26.1043   12.6632   48.6796 C   0  0  0  0  0  0  0  0  0  0  0  0
   28.0211    9.1391   48.3532 C   0  0  0  0  0  0  0  0  0  0  0  0
   29.0763    8.5335   47.4893 C   0  0  0  0  0  0  0  0  0  0  0  0
   28.5267    8.6273   46.0479 C   0  0  0  0  0  0  0  0  0  0  0  0
   29.2917    7.0612   47.7377 C   0  0  0  0  0  0  0  0  0  0  0  0
   28.1134    8.2120   54.1421 C   0  0  0  0  0  0  0  0  0  0  0  0
   28.6731    7.0582   53.4486 C   0  0  0  0  0  0  0  0  0  0  0  0
   29.0434    5.9251   54.1323 C   0  0  0  0  0  0  0  0  0  0  0  0
   29.5818    4.8220   53.5108 C   0  0  0  0  0  0  0  0  0  0  0  0
   29.7597    4.8522   52.1392 C   0  0  0  0  0  0  0  0  0  0  0  0
   29.3923    5.9884   51.4279 C   0  0  0  0  0  0  0  0  0  0  0  0
   28.8526    7.0810   52.0872 C   0  0  0  0  0  0  0  0  0  0  0  0
 13 14  1  0  0  0
 14 11  1  0  0  0
 11 12  1  0  0  0
 11  6  1  0  0  0
  6  7  1  0  0  0
  7  8  1  0  0  0
  8  9  1  0  0  0
  9 10  2  0  0  0
  7  2  1  0  0  0
  2  3  2  0  0  0
  2  4  1  0  0  0
  4  1  1  0  0  0
  1 34  1  0  0  0
 34 35  1  0  0  0
 35 36  2  0  0  0
 36 37  1  0  0  0
 37 38  2  0  0  0
 38 39  1  0  0  0
 39 40  2  0  0  0
  1 15  1  0  0  0
 15 16  2  0  0  0
 15 17  1  0  0  0
 17 19  1  0  0  0
 19 30  1  0  0  0
 30 31  1  0  0  0
 31 32  1  0  0  0
 31 33  1  0  0  0
 19 20  1  0  0  0
 20 21  2  0  0  0
 20 22  1  0  0  0
 22 23  1  0  0  0
 23 24  1  0  0  0
 24 25  2  0  0  0
 25 26  1  0  0  0
 26 27  2  0  0  0
 27 28  1  0  0  0
 28 29  2  0  0  0
  9  6  1  0  0  0
 40 35  1  0  0  0
 29 24  1  0  0  0
  4  5  1  0  0  0
 17 18  1  0  0  0
M  END
> <minimizedAffinity>
44.74813

> <CNNscore>
0.4735647440

> <CNNaffinity>
6.2209939957

> <CNN_VS>
2.9460434914

> <CNNaffinity_variance>
0.4893154204

$$$$
[H]c1c([H])c([H])c(C([H])([H])OC(=O)[C@@]([H])(N([H])C(=O)[C@@]([H])(N([H])C(=O)[C@]2([H])OC(=O)[C@@]2([H])[C@@]([H])(C([H])([H])[H])C([H])([H])C([H])([H])[H])C([H])([H])c2c([H])c([H])c([H])c([H])c2[H])C([H])([H])C([H])(C([H])([H])[H])C([H])([H])[H])c([H])c1[H]


 40 42  0  0  0  0  0  0  0  0999 V2000
   20.5923    6.8868   52.3726 C   0  0  0  0  0  0  0  0  0  0  0  0
   19.8671    4.7742   53.5197 C   0  0  0  0  0  0  0  0  0  0  0  0
   21.0633    4.3930   53.4919 O   0  0  0  0  0  0  0  0  0  0  0  0
   19.5437    6.0328   52.9659 N   0  0  0  0  0  0  0  0  0  0  0  0
   18.5445    6.3355   52.9930 H   0  0  0  0  0  0  0  0  0  0  0  0
   17.5146    4.0830   53.4457 C   0  0  0  0  0  0  0  0  0  0  0  0
   18.8585    3.8934   54.1281 C   0  0  0  0  0  0  0  0  0  0  0  0
   18.8416    2.5662   53.6320 O   0  0  0  0  0  0  0  0  0  0  0  0
   17.6983    2.7199   52.8783 C   0  0  0  0  0  0  0  0  0  0  0  0
   17.0911    1.9919   52.0624 O   0  0  0  0  0  0  0  0  0  0  0  0
   16.3329    4.1879   54.3912 C   0  0  0  0  0  0  0  0  0  0  0  0
   15.0611    4.1989   53.6078 C   0  0  0  0  0  0  0  0  0  0  0  0
   16.3671    3.6609   56.8517 C   0  0  0  0  0  0  0  0  0  0  0  0
   16.3837    3.1235   55.4492 C   0  0  0  0  0  0  0  0  0  0  0  0
   21.6583    7.2075   53.3124 C   0  0  0  0  0  0  0  0  0  0  0  0
   22.7126    7.7258   52.8091 O   0  0  0  0  0  0  0  0  0  0  0  0
   21.6007    6.9844   54.7382 N   0  0  0  0  0  0  0  0  0  0  0  0
   20.7572    6.5757   55.1604 H   0  0  0  0  0  0  0  0  0  0  0  0
   22.7807    7.3656   55.5050 C   0  0  0  0  0  0  0  0  0  0  0  0
   22.7537    8.7447   55.9785 C   0  0  0  0  0  0  0  0  0  0  0  0
   21.6300    9.2753   56.2051 O   0  0  0  0  0  0  0  0  0  0  0  0
   23.8431    9.5406   56.2067 O   0  0  0  0  0  0  0  0  0  0  0  0
   24.7860   10.0402   55.3362 C   0  0  0  0  0  0  0  0  0  0  0  0
   26.1217    9.4370   55.3293 C   0  0  0  0  0  0  0  0  0  0  0  0
   26.5457    8.7154   54.2374 C   0  0  0  0  0  0  0  0  0  0  0  0
   27.7769    8.1136   54.1647 C   0  0  0  0  0  0  0  0  0  0  0  0
   28.6437    8.2286   55.2294 C   0  0  0  0  0  0  0  0  0  0  0  0
   28.2571    8.9364   56.3272 C   0  0  0  0  0  0  0  0  0  0  0  0
   26.9876    9.5529   56.3951 C   0  0  0  0  0  0  0  0  0  0  0  0
   23.8980    7.3393   54.4175 C   0  0  0  0  0  0  0  0  0  0  0  0
   24.5365    5.9967   54.2900 C   0  0  0  0  0  0  0  0  0  0  0  0
   24.2738    5.5571   52.8318 C   0  0  0  0  0  0  0  0  0  0  0  0
   23.8925    4.9354   55.1473 C   0  0  0  0  0  0  0  0  0  0  0  0
   19.9321    8.1415   51.7998 C   0  0  0  0  0  0  0  0  0  0  0  0
   20.6213    9.3654   52.1902 C   0  0  0  0  0  0  0  0  0  0  0  0
   20.8803    9.6488   53.5097 C   0  0  0  0  0  0  0  0  0  0  0  0
   21.5209   10.7974   53.9136 C   0  0  0  0  0  0  0  0  0  0  0  0
   21.9222   11.7080   52.9526 C   0  0  0  0  0  0  0  0  0  0  0  0
   21.6700   11.4416   51.6119 C   0  0  0  0  0  0  0  0  0  0  0  0
   21.0225   10.2740   51.2417 C   0  0  0  0  0  0  0  0  0  0  0  0
 13 14  1  0  0  0
 14 11  1  0  0  0
 11 12  1  0  0  0
 11  6  1  0  0  0
  6  7  1  0  0  0
  7  8  1  0  0  0
  8  9  1  0  0  0
  9 10  2  0  0  0
  7  2  1  0  0  0
  2  3  2  0  0  0
  2  4  1  0  0  0
  4  1  1  0  0  0
  1 34  1  0  0  0
 34 35  1  0  0  0
 35 36  2  0  0  0
 36 37  1  0  0  0
 37 38  2  0  0  0
 38 39  1  0  0  0
 39 40  2  0  0  0
  1 15  1  0  0  0
 15 16  2  0  0  0
 15 17  1  0  0  0
 17 19  1  0  0  0
 19 30  1  0  0  0
 30 31  1  0  0  0
 31 32  1  0  0  0
 31 33  1  0  0  0
 19 20  1  0  0  0
 20 21  2  0  0  0
 20 22  1  0  0  0
 22 23  1  0  0  0
 23 24  1  0  0  0
 24 25  2  0  0  0
 25 26  1  0  0  0
 26 27  2  0  0  0
 27 28  1  0  0  0
 28 29  2  0  0  0
  9  6  1  0  0  0
 40 35  1  0  0  0
 29 24  1  0  0  0
  4  5  1  0  0  0
 17 18  1  0  0  0
M  END
> <minimizedAffinity>
23.94548

> <CNNscore>
0.4734799266

> <CNNaffinity>
6.7558403015

> <CNN_VS>
3.1987547874

> <CNNaffinity_variance>
0.6979297400

$$$$
[H]c1c([H])c([H])c(C([H])([H])OC(=O)[C@@]([H])(N([H])C(=O)[C@@]([H])(N([H])C(=O)[C@]2([H])OC(=O)[C@@]2([H])[C@@]([H])(C([H])([H])[H])C([H])([H])C([H])([H])[H])C([H])([H])c2c([H])c([H])c([H])c([H])c2[H])C([H])([H])C([H])(C([H])([H])[H])C([H])([H])[H])c([H])c1[H]


 40 42  0  0  0  0  0  0  0  0999 V2000
   24.6786    9.9007   56.6449 C   0  0  0  0  0  0  0  0  0  0  0  0
   26.9440    9.8030   57.7237 C   0  0  0  0  0  0  0  0  0  0  0  0
   26.8236    8.5541   57.7760 O   0  0  0  0  0  0  0  0  0  0  0  0
   25.8923   10.5624   57.1645 N   0  0  0  0  0  0  0  0  0  0  0  0
   26.0046   11.6002   57.1304 H   0  0  0  0  0  0  0  0  0  0  0  0
   28.1402   10.4526   59.7644 C   0  0  0  0  0  0  0  0  0  0  0  0
   28.1741   10.4170   58.2460 C   0  0  0  0  0  0  0  0  0  0  0  0
   29.2808    9.5400   58.3635 O   0  0  0  0  0  0  0  0  0  0  0  0
   29.2124    9.4215   59.7347 C   0  0  0  0  0  0  0  0  0  0  0  0
   29.8181    8.7240   60.5778 O   0  0  0  0  0  0  0  0  0  0  0  0
   28.5851   11.7669   60.3775 C   0  0  0  0  0  0  0  0  0  0  0  0
   30.0656   11.7541   60.5758 C   0  0  0  0  0  0  0  0  0  0  0  0
   28.7319   14.2432   59.9536 C   0  0  0  0  0  0  0  0  0  0  0  0
   28.0909   12.9378   59.5778 C   0  0  0  0  0  0  0  0  0  0  0  0
   24.9442    9.0684   55.4790 C   0  0  0  0  0  0  0  0  0  0  0  0
   24.2014    8.0371   55.3452 O   0  0  0  0  0  0  0  0  0  0  0  0
   25.9648    9.3284   54.4908 N   0  0  0  0  0  0  0  0  0  0  0  0
   26.5658   10.1577   54.5790 H   0  0  0  0  0  0  0  0  0  0  0  0
   26.0767    8.3654   53.4017 C   0  0  0  0  0  0  0  0  0  0  0  0
   25.6764    7.0123   53.7701 C   0  0  0  0  0  0  0  0  0  0  0  0
   26.2097    6.4894   54.7887 O   0  0  0  0  0  0  0  0  0  0  0  0
   24.7640    6.2337   53.1117 O   0  0  0  0  0  0  0  0  0  0  0  0
   23.5447    5.7416   53.5211 C   0  0  0  0  0  0  0  0  0  0  0  0
   22.3265    6.3458   52.9743 C   0  0  0  0  0  0  0  0  0  0  0  0
   22.4120    7.2657   51.9550 C   0  0  0  0  0  0  0  0  0  0  0  0
   21.3167    7.8803   51.4017 C   0  0  0  0  0  0  0  0  0  0  0  0
   20.0618    7.5715   51.8791 C   0  0  0  0  0  0  0  0  0  0  0  0
   19.9396    6.6643   52.8880 C   0  0  0  0  0  0  0  0  0  0  0  0
   21.0719    6.0360   53.4531 C   0  0  0  0  0  0  0  0  0  0  0  0
   27.6205    8.2828   53.1977 C   0  0  0  0  0  0  0  0  0  0  0  0
   28.3784    8.8183   54.3661 C   0  0  0  0  0  0  0  0  0  0  0  0
   29.2235    9.9840   53.8044 C   0  0  0  0  0  0  0  0  0  0  0  0
   29.3768    7.8434   54.9393 C   0  0  0  0  0  0  0  0  0  0  0  0
   23.6242   10.9711   56.3610 C   0  0  0  0  0  0  0  0  0  0  0  0
   22.5871   10.5076   55.4471 C   0  0  0  0  0  0  0  0  0  0  0  0
   22.4454   11.0521   54.1933 C   0  0  0  0  0  0  0  0  0  0  0  0
   21.4733   10.6444   53.3091 C   0  0  0  0  0  0  0  0  0  0  0  0
   20.5996    9.6441   53.6962 C   0  0  0  0  0  0  0  0  0  0  0  0
   20.7247    9.0796   54.9602 C   0  0  0  0  0  0  0  0  0  0  0  0
   21.7161    9.5151   55.8245 C   0  0  0  0  0  0  0  0  0  0  0  0
 13 14  1  0  0  0
 14 11  1  0  0  0
 11 12  1  0  0  0
 11  6  1  0  0  0
  6  7  1  0  0  0
  7  8  1  0  0  0
  8  9  1  0  0  0
  9 10  2  0  0  0
  7  2  1  0  0  0
  2  3  2  0  0  0
  2  4  1  0  0  0
  4  1  1  0  0  0
  1 34  1  0  0  0
 34 35  1  0  0  0
 35 36  2  0  0  0
 36 37  1  0  0  0
 37 38  2  0  0  0
 38 39  1  0  0  0
 39 40  2  0  0  0
  1 15  1  0  0  0
 15 16  2  0  0  0
 15 17  1  0  0  0
 17 19  1  0  0  0
 19 30  1  0  0  0
 30 31  1  0  0  0
 31 32  1  0  0  0
 31 33  1  0  0  0
 19 20  1  0  0  0
 20 21  2  0  0  0
 20 22  1  0  0  0
 22 23  1  0  0  0
 23 24  1  0  0  0
 24 25  2  0  0  0
 25 26  1  0  0  0
 26 27  2  0  0  0
 27 28  1  0  0  0
 28 29  2  0  0  0
  9  6  1  0  0  0
 40 35  1  0  0  0
 29 24  1  0  0  0
  4  5  1  0  0  0
 17 18  1  0  0  0
M  END
> <minimizedAffinity>
22.64084

> <CNNscore>
0.4652143717

> <CNNaffinity>
6.4496011734

> <CNN_VS>
3.0004472733

> <CNNaffinity_variance>
0.7143214941

$$$$
[H]c1c([H])c([H])c(C([H])([H])OC(=O)[C@@]([H])(N([H])C(=O)[C@@]([H])(N([H])C(=O)[C@]2([H])OC(=O)[C@@]2([H])[C@@]([H])(C([H])([H])[H])C([H])([H])C([H])([H])[H])C([H])([H])c2c([H])c([H])c([H])c([H])c2[H])C([H])([H])C([H])(C([H])([H])[H])C([H])([H])[H])c([H])c1[H]


 40 42  0  0  0  0  0  0  0  0999 V2000
   21.1006    8.6887   52.1282 C   0  0  0  0  0  0  0  0  0  0  0  0
   21.1155   11.1726   51.7606 C   0  0  0  0  0  0  0  0  0  0  0  0
   21.0363   11.3193   53.0053 O   0  0  0  0  0  0  0  0  0  0  0  0
   21.1496    9.8625   51.2334 N   0  0  0  0  0  0  0  0  0  0  0  0
   21.2122    9.7554   50.1964 H   0  0  0  0  0  0  0  0  0  0  0  0
   21.8116   13.5228   51.6640 C   0  0  0  0  0  0  0  0  0  0  0  0
   21.1699   12.3709   50.9096 C   0  0  0  0  0  0  0  0  0  0  0  0
   22.2749   12.4302   50.0246 O   0  0  0  0  0  0  0  0  0  0  0  0
   22.9719   13.3763   50.7443 C   0  0  0  0  0  0  0  0  0  0  0  0
   24.1109   13.8822   50.6397 O   0  0  0  0  0  0  0  0  0  0  0  0
   21.0939   14.8517   51.5216 C   0  0  0  0  0  0  0  0  0  0  0  0
   21.2752   15.3754   50.1345 C   0  0  0  0  0  0  0  0  0  0  0  0
   19.3902   15.2834   53.3228 C   0  0  0  0  0  0  0  0  0  0  0  0
   19.6576   14.7451   51.9463 C   0  0  0  0  0  0  0  0  0  0  0  0
   22.4201    8.2670   52.5793 C   0  0  0  0  0  0  0  0  0  0  0  0
   23.2384    9.2038   52.8730 O   0  0  0  0  0  0  0  0  0  0  0  0
   22.8503    6.8948   52.7136 N   0  0  0  0  0  0  0  0  0  0  0  0
   22.2022    6.1291   52.4891 H   0  0  0  0  0  0  0  0  0  0  0  0
   24.2182    6.6833   53.1721 C   0  0  0  0  0  0  0  0  0  0  0  0
   24.3140    6.2880   54.5726 C   0  0  0  0  0  0  0  0  0  0  0  0
   25.4291    6.4139   55.1526 O   0  0  0  0  0  0  0  0  0  0  0  0
   23.2994    5.7833   55.3395 O   0  0  0  0  0  0  0  0  0  0  0  0
   22.0629    6.3060   55.6464 C   0  0  0  0  0  0  0  0  0  0  0  0
   21.8879    7.7605   55.6054 C   0  0  0  0  0  0  0  0  0  0  0  0
   22.9413    8.5896   55.9143 C   0  0  0  0  0  0  0  0  0  0  0  0
   22.8486    9.9589   55.9082 C   0  0  0  0  0  0  0  0  0  0  0  0
   21.6480   10.5485   55.5779 C   0  0  0  0  0  0  0  0  0  0  0  0
   20.5834    9.7579   55.2659 C   0  0  0  0  0  0  0  0  0  0  0  0
   20.6862    8.3488   55.2749 C   0  0  0  0  0  0  0  0  0  0  0  0
   24.8044    8.1275   53.1244 C   0  0  0  0  0  0  0  0  0  0  0  0
   26.2191    8.1832   53.5952 C   0  0  0  0  0  0  0  0  0  0  0  0
   26.1864    9.0337   54.8853 C   0  0  0  0  0  0  0  0  0  0  0  0
   27.1417    8.9203   52.6563 C   0  0  0  0  0  0  0  0  0  0  0  0
   20.3484    7.5642   51.4155 C   0  0  0  0  0  0  0  0  0  0  0  0
   19.8223    6.5678   52.3406 C   0  0  0  0  0  0  0  0  0  0  0  0
   18.6709    6.7954   53.0556 C   0  0  0  0  0  0  0  0  0  0  0  0
   18.1513    5.8809   53.9425 C   0  0  0  0  0  0  0  0  0  0  0  0
   18.8142    4.6804   54.1246 C   0  0  0  0  0  0  0  0  0  0  0  0
   19.9808    4.4296   53.4119 C   0  0  0  0  0  0  0  0  0  0  0  0
   20.4750    5.3739   52.5266 C   0  0  0  0  0  0  0  0  0  0  0  0
 13 14  1  0  0  0
 14 11  1  0  0  0
 11 12  1  0  0  0
 11  6  1  0  0  0
  6  7  1  0  0  0
  7  8  1  0  0  0
  8  9  1  0  0  0
  9 10  2  0  0  0
  7  2  1  0  0  0
  2  3  2  0  0  0
  2  4  1  0  0  0
  4  1  1  0  0  0
  1 34  1  0  0  0
 34 35  1  0  0  0
 35 36  2  0  0  0
 36 37  1  0  0  0
 37 38  2  0  0  0
 38 39  1  0  0  0
 39 40  2  0  0  0
  1 15  1  0  0  0
 15 16  2  0  0  0
 15 17  1  0  0  0
 17 19  1  0  0  0
 19 30  1  0  0  0
 30 31  1  0  0  0
 31 32  1  0  0  0
 31 33  1  0  0  0
 19 20  1  0  0  0
 20 21  2  0  0  0
 20 22  1  0  0  0
 22 23  1  0  0  0
 23 24  1  0  0  0
 24 25  2  0  0  0
 25 26  1  0  0  0
 26 27  2  0  0  0
 27 28  1  0  0  0
 28 29  2  0  0  0
  9  6  1  0  0  0
 40 35  1  0  0  0
 29 24  1  0  0  0
  4  5  1  0  0  0
 17 18  1  0  0  0
M  END
> <minimizedAffinity>
28.96495

> <CNNscore>
0.4618610740

> <CNNaffinity>
6.0869150162

> <CNN_VS>
2.8113090992

> <CNNaffinity_variance>
1.2670749426

$$$$
[H]c1c([H])c([H])c(C([H])([H])OC(=O)[C@@]([H])(N([H])C(=O)[C@@]([H])(N([H])C(=O)[C@]2([H])OC(=O)[C@@]2([H])[C@@]([H])(C([H])([H])[H])C([H])([H])C([H])([H])[H])C([H])([H])c2c([H])c([H])c([H])c([H])c2[H])C([H])([H])C([H])(C([H])([H])[H])C([H])([H])[H])c([H])c1[H]


 40 42  0  0  0  0  0  0  0  0999 V2000
   21.1350    6.9873   52.5942 C   0  0  0  0  0  0  0  0  0  0  0  0
   20.1504    4.8650   53.5060 C   0  0  0  0  0  0  0  0  0  0  0  0
   21.2202    4.2822   53.2013 O   0  0  0  0  0  0  0  0  0  0  0  0
   20.0263    6.2439   53.2259 N   0  0  0  0  0  0  0  0  0  0  0  0
   19.1299    6.7149   53.4817 H   0  0  0  0  0  0  0  0  0  0  0  0
   17.7946    4.2029   53.3348 C   0  0  0  0  0  0  0  0  0  0  0  0
   19.0769    4.0855   54.1409 C   0  0  0  0  0  0  0  0  0  0  0  0
   19.0662    2.7052   53.8208 O   0  0  0  0  0  0  0  0  0  0  0  0
   17.9885    2.7749   52.9649 C   0  0  0  0  0  0  0  0  0  0  0  0
   17.4286    1.9550   52.2043 O   0  0  0  0  0  0  0  0  0  0  0  0
   16.5464    4.4471   54.1616 C   0  0  0  0  0  0  0  0  0  0  0  0
   15.4068    3.6648   53.5955 C   0  0  0  0  0  0  0  0  0  0  0  0
   15.9745    3.0619   56.1833 C   0  0  0  0  0  0  0  0  0  0  0  0
   16.7966    4.1851   55.6189 C   0  0  0  0  0  0  0  0  0  0  0  0
   22.1479    7.4120   53.5513 C   0  0  0  0  0  0  0  0  0  0  0  0
   21.7729    7.4813   54.7711 O   0  0  0  0  0  0  0  0  0  0  0  0
   23.5124    7.7490   53.2187 N   0  0  0  0  0  0  0  0  0  0  0  0
   23.8326    7.6911   52.2436 H   0  0  0  0  0  0  0  0  0  0  0  0
   24.3688    8.1624   54.3240 C   0  0  0  0  0  0  0  0  0  0  0  0
   25.6946    8.6039   53.9068 C   0  0  0  0  0  0  0  0  0  0  0  0
   26.0100    8.4766   52.6903 O   0  0  0  0  0  0  0  0  0  0  0  0
   26.6533    9.1526   54.7145 O   0  0  0  0  0  0  0  0  0  0  0  0
   27.5264    8.5596   55.5991 C   0  0  0  0  0  0  0  0  0  0  0  0
   27.9071    9.2969   56.8072 C   0  0  0  0  0  0  0  0  0  0  0  0
   28.0015   10.6690   56.7754 C   0  0  0  0  0  0  0  0  0  0  0  0
   28.3628   11.4242   57.8629 C   0  0  0  0  0  0  0  0  0  0  0  0
   28.6480   10.7923   59.0535 C   0  0  0  0  0  0  0  0  0  0  0  0
   28.5643    9.4343   59.1215 C   0  0  0  0  0  0  0  0  0  0  0  0
   28.1922    8.6633   57.9975 C   0  0  0  0  0  0  0  0  0  0  0  0
   24.6134    6.8139   55.0680 C   0  0  0  0  0  0  0  0  0  0  0  0
   23.6525    5.7514   54.6509 C   0  0  0  0  0  0  0  0  0  0  0  0
   23.4959    4.8356   55.8859 C   0  0  0  0  0  0  0  0  0  0  0  0
   24.1769    4.8560   53.5558 C   0  0  0  0  0  0  0  0  0  0  0  0
   20.5494    8.1648   51.8140 C   0  0  0  0  0  0  0  0  0  0  0  0
   21.0004    9.4543   52.3233 C   0  0  0  0  0  0  0  0  0  0  0  0
   21.1504    9.6764   53.6712 C   0  0  0  0  0  0  0  0  0  0  0  0
   21.5659   10.8826   54.1862 C   0  0  0  0  0  0  0  0  0  0  0  0
   21.8448   11.9181   53.3123 C   0  0  0  0  0  0  0  0  0  0  0  0
   21.6995   11.7155   51.9449 C   0  0  0  0  0  0  0  0  0  0  0  0
   21.2790   10.4869   51.4617 C   0  0  0  0  0  0  0  0  0  0  0  0
 13 14  1  0  0  0
 14 11  1  0  0  0
 11 12  1  0  0  0
 11  6  1  0  0  0
  6  7  1  0  0  0
  7  8  1  0  0  0
  8  9  1  0  0  0
  9 10  2  0  0  0
  7  2  1  0  0  0
  2  3  2  0  0  0
  2  4  1  0  0  0
  4  1  1  0  0  0
  1 34  1  0  0  0
 34 35  1  0  0  0
 35 36  2  0  0  0
 36 37  1  0  0  0
 37 38  2  0  0  0
 38 39  1  0  0  0
 39 40  2  0  0  0
  1 15  1  0  0  0
 15 16  2  0  0  0
 15 17  1  0  0  0
 17 19  1  0  0  0
 19 30  1  0  0  0
 30 31  1  0  0  0
 31 32  1  0  0  0
 31 33  1  0  0  0
 19 20  1  0  0  0
 20 21  2  0  0  0
 20 22  1  0  0  0
 22 23  1  0  0  0
 23 24  1  0  0  0
 24 25  2  0  0  0
 25 26  1  0  0  0
 26 27  2  0  0  0
 27 28  1  0  0  0
 28 29  2  0  0  0
  9  6  1  0  0  0
 40 35  1  0  0  0
 29 24  1  0  0  0
  4  5  1  0  0  0
 17 18  1  0  0  0
M  END
> <minimizedAffinity>
20.99108

> <CNNscore>
0.4422264397

> <CNNaffinity>
6.5433745384

> <CNN_VS>
2.8936531544

> <CNNaffinity_variance>
0.5568054914

$$$$
[H]c1c([H])c([H])c(C([H])([H])OC(=O)[C@@]([H])(N([H])C(=O)[C@@]([H])(N([H])C(=O)[C@]2([H])OC(=O)[C@@]2([H])[C@@]([H])(C([H])([H])[H])C([H])([H])C([H])([H])[H])C([H])([H])c2c([H])c([H])c([H])c([H])c2[H])C([H])([H])C([H])(C([H])([H])[H])C([H])([H])[H])c([H])c1[H]


 40 42  0  0  0  0  0  0  0  0999 V2000
   21.2817    6.6841   52.2235 C   0  0  0  0  0  0  0  0  0  0  0  0
   19.6127    5.6313   53.7763 C   0  0  0  0  0  0  0  0  0  0  0  0
   19.3962    6.7715   54.2560 O   0  0  0  0  0  0  0  0  0  0  0  0
   20.5628    5.5016   52.7390 N   0  0  0  0  0  0  0  0  0  0  0  0
   20.7351    4.5471   52.3519 H   0  0  0  0  0  0  0  0  0  0  0  0
   17.6458    4.2004   53.4580 C   0  0  0  0  0  0  0  0  0  0  0  0
   18.8670    4.4842   54.3159 C   0  0  0  0  0  0  0  0  0  0  0  0
   19.3508    3.2126   53.9199 O   0  0  0  0  0  0  0  0  0  0  0  0
   18.3390    2.9592   53.0193 C   0  0  0  0  0  0  0  0  0  0  0  0
   18.1227    2.0492   52.1891 O   0  0  0  0  0  0  0  0  0  0  0  0
   16.3715    3.9355   54.2374 C   0  0  0  0  0  0  0  0  0  0  0  0
   15.9351    5.1859   54.9282 C   0  0  0  0  0  0  0  0  0  0  0  0
   15.8068    2.1829   52.5220 C   0  0  0  0  0  0  0  0  0  0  0  0
   15.3138    3.3251   53.3637 C   0  0  0  0  0  0  0  0  0  0  0  0
   22.3571    7.1198   53.1044 C   0  0  0  0  0  0  0  0  0  0  0  0
   23.4970    7.2950   52.5537 O   0  0  0  0  0  0  0  0  0  0  0  0
   22.2205    7.3612   54.5218 N   0  0  0  0  0  0  0  0  0  0  0  0
   21.3089    7.2327   54.9792 H   0  0  0  0  0  0  0  0  0  0  0  0
   23.4236    7.7833   55.2292 C   0  0  0  0  0  0  0  0  0  0  0  0
   24.1330    8.8797   54.5801 C   0  0  0  0  0  0  0  0  0  0  0  0
   24.0281   10.0356   55.0785 O   0  0  0  0  0  0  0  0  0  0  0  0
   24.9164    8.7839   53.4623 O   0  0  0  0  0  0  0  0  0  0  0  0
   26.2547    8.4881   53.3288 C   0  0  0  0  0  0  0  0  0  0  0  0
   27.1229    8.6280   54.5012 C   0  0  0  0  0  0  0  0  0  0  0  0
   26.6266    9.1684   55.6649 C   0  0  0  0  0  0  0  0  0  0  0  0
   27.3824    9.3403   56.7974 C   0  0  0  0  0  0  0  0  0  0  0  0
   28.7059    8.9574   56.7852 C   0  0  0  0  0  0  0  0  0  0  0  0
   29.2308    8.4180   55.6498 C   0  0  0  0  0  0  0  0  0  0  0  0
   28.4466    8.2445   54.4874 C   0  0  0  0  0  0  0  0  0  0  0  0
   24.3557    6.5456   55.0530 C   0  0  0  0  0  0  0  0  0  0  0  0
   23.5902    5.2761   54.8840 C   0  0  0  0  0  0  0  0  0  0  0  0
   23.8417    4.4726   56.1801 C   0  0  0  0  0  0  0  0  0  0  0  0
   24.1054    4.4017   53.7678 C   0  0  0  0  0  0  0  0  0  0  0  0
   20.2651    7.7959   51.9613 C   0  0  0  0  0  0  0  0  0  0  0  0
   20.7460    9.1059   52.3834 C   0  0  0  0  0  0  0  0  0  0  0  0
   21.1419   10.0501   51.4667 C   0  0  0  0  0  0  0  0  0  0  0  0
   21.6081   11.2924   51.8302 C   0  0  0  0  0  0  0  0  0  0  0  0
   21.6831   11.6071   53.1753 C   0  0  0  0  0  0  0  0  0  0  0  0
   21.2881   10.6668   54.1196 C   0  0  0  0  0  0  0  0  0  0  0  0
   20.8232    9.4253   53.7168 C   0  0  0  0  0  0  0  0  0  0  0  0
 13 14  1  0  0  0
 14 11  1  0  0  0
 11 12  1  0  0  0
 11  6  1  0  0  0
  6  7  1  0  0  0
  7  8  1  0  0  0
  8  9  1  0  0  0
  9 10  2  0  0  0
  7  2  1  0  0  0
  2  3  2  0  0  0
  2  4  1  0  0  0
  4  1  1  0  0  0
  1 34  1  0  0  0
 34 35  1  0  0  0
 35 36  2  0  0  0
 36 37  1  0  0  0
 37 38  2  0  0  0
 38 39  1  0  0  0
 39 40  2  0  0  0
  1 15  1  0  0  0
 15 16  2  0  0  0
 15 17  1  0  0  0
 17 19  1  0  0  0
 19 30  1  0  0  0
 30 31  1  0  0  0
 31 32  1  0  0  0
 31 33  1  0  0  0
 19 20  1  0  0  0
 20 21  2  0  0  0
 20 22  1  0  0  0
 22 23  1  0  0  0
 23 24  1  0  0  0
 24 25  2  0  0  0
 25 26  1  0  0  0
 26 27  2  0  0  0
 27 28  1  0  0  0
 28 29  2  0  0  0
  9  6  1  0  0  0
 40 35  1  0  0  0
 29 24  1  0  0  0
  4  5  1  0  0  0
 17 18  1  0  0  0
M  END
> <minimizedAffinity>
28.16327

> <CNNscore>
0.4394691288

> <CNNaffinity>
6.3234529495

> <CNN_VS>
2.7789623737

> <CNNaffinity_variance>
0.5600281954

$$$$
[H]OC(=O)C([H])([H])Oc1c([H])c([H])c([H])c(-c2c([H])c3c(OC([H])([H])c4c([H])c([H])c([H])c([H])c4[H])c([H])c(Cl)c([H])c3oc2=O)c1[H]


 32 35  0  0  0  0  0  0  0  0999 V2000
   22.9377    9.3815   54.2930 C   0  0  0  0  0  0  0  0  0  0  0  0
   24.1824    8.8597   54.0096 C   0  0  0  0  0  0  0  0  0  0  0  0
   25.1684    9.0105   54.9693 C   0  0  0  0  0  0  0  0  0  0  0  0
   26.4525    8.4993   54.7336 C   0  0  0  0  0  0  0  0  0  0  0  0
   27.4377    8.6475   55.6874 C   0  0  0  0  0  0  0  0  0  0  0  0
   27.1130    9.3048   56.8558 C   0  0  0  0  0  0  0  0  0  0  0  0
   28.3600    9.5038   58.0871 Cl  0  0  0  0  0  0  0  0  0  0  0  0
   25.8406    9.8075   57.0811 C   0  0  0  0  0  0  0  0  0  0  0  0
   24.8368    9.6684   56.1341 C   0  0  0  0  0  0  0  0  0  0  0  0
   23.6352   10.1511   56.3639 O   0  0  0  0  0  0  0  0  0  0  0  0
   22.6808   10.0237   55.4739 C   0  0  0  0  0  0  0  0  0  0  0  0
   21.5147   10.4783   55.6684 O   0  0  0  0  0  0  0  0  0  0  0  0
   20.7007   10.0752   51.3415 C   0  0  0  0  0  0  0  0  0  0  0  0
   19.9273    8.9377   51.3420 C   0  0  0  0  0  0  0  0  0  0  0  0
   20.1180    7.9459   52.2873 C   0  0  0  0  0  0  0  0  0  0  0  0
   21.1064    8.1032   53.2485 C   0  0  0  0  0  0  0  0  0  0  0  0
   21.9058    9.2251   53.2868 C   0  0  0  0  0  0  0  0  0  0  0  0
   21.6802   10.1826   52.3297 C   0  0  0  0  0  0  0  0  0  0  0  0
   20.5206   11.0736   50.4079 O   0  0  0  0  0  0  0  0  0  0  0  0
   21.3582   12.1698   50.1835 C   0  0  0  0  0  0  0  0  0  0  0  0
   20.5748   14.2745   51.2012 O   0  0  0  0  0  0  0  0  0  0  0  0
   21.4056   13.1525   51.2831 C   0  0  0  0  0  0  0  0  0  0  0  0
   22.1279   13.0843   52.3033 O   0  0  0  0  0  0  0  0  0  0  0  0
   21.0797   15.1605   51.0453 H   0  0  0  0  0  0  0  0  0  0  0  0
   26.7039    7.8492   53.5330 O   0  0  0  0  0  0  0  0  0  0  0  0
   26.3695    6.4906   53.4240 C   0  0  0  0  0  0  0  0  0  0  0  0
   24.9358    6.2327   53.6706 C   0  0  0  0  0  0  0  0  0  0  0  0
   24.0297    6.1384   52.6155 C   0  0  0  0  0  0  0  0  0  0  0  0
   22.6910    5.8976   52.8464 C   0  0  0  0  0  0  0  0  0  0  0  0
   22.2337    5.7461   54.1488 C   0  0  0  0  0  0  0  0  0  0  0  0
   23.1014    5.8332   55.2156 C   0  0  0  0  0  0  0  0  0  0  0  0
   24.4318    6.0749   54.9439 C   0  0  0  0  0  0  0  0  0  0  0  0
 21 22  1  0  0  0
 22 23  2  0  0  0
 22 20  1  0  0  0
 20 19  1  0  0  0
 19 13  1  0  0  0
 13 14  2  0  0  0
 14 15  1  0  0  0
 15 16  2  0  0  0
 16 17  1  0  0  0
 17 18  2  0  0  0
 17  1  1  0  0  0
  1  2  2  0  0  0
  2  3  1  0  0  0
  3  4  2  0  0  0
  4 25  1  0  0  0
 25 26  1  0  0  0
 26 27  1  0  0  0
 27 28  2  0  0  0
 28 29  1  0  0  0
 29 30  2  0  0  0
 30 31  1  0  0  0
 31 32  2  0  0  0
  4  5  1  0  0  0
  5  6  2  0  0  0
  6  7  1  0  0  0
  6  8  1  0  0  0
  8  9  2  0  0  0
  9 10  1  0  0  0
 10 11  1  0  0  0
 11 12  2  0  0  0
 18 13  1  0  0  0
 11  1  1  0  0  0
  9  3  1  0  0  0
 32 27  1  0  0  0
 21 24  1  0  0  0
M  END
> <minimizedAffinity>
23.11491

> <CNNscore>
0.6712197065

> <CNNaffinity>
6.2339005470

> <CNN_VS>
4.1843171120

> <CNNaffinity_variance>
0.2753957212

$$$$
[H]OC(=O)C([H])([H])Oc1c([H])c([H])c([H])c(-c2c([H])c3c(OC([H])([H])c4c([H])c([H])c([H])c([H])c4[H])c([H])c(Cl)c([H])c3oc2=O)c1[H]


 32 35  0  0  0  0  0  0  0  0999 V2000
   23.7046    8.3465   53.6481 C   0  0  0  0  0  0  0  0  0  0  0  0
   24.8643    8.4198   52.9054 C   0  0  0  0  0  0  0  0  0  0  0  0
   26.0604    8.4837   53.5991 C   0  0  0  0  0  0  0  0  0  0  0  0
   27.2701    8.5596   52.8943 C   0  0  0  0  0  0  0  0  0  0  0  0
   28.4640    8.6234   53.5818 C   0  0  0  0  0  0  0  0  0  0  0  0
   28.4180    8.6096   54.9604 C   0  0  0  0  0  0  0  0  0  0  0  0
   29.9349    8.6904   55.8566 Cl  0  0  0  0  0  0  0  0  0  0  0  0
   27.2174    8.5343   55.6499 C   0  0  0  0  0  0  0  0  0  0  0  0
   26.0067    8.4694   54.9762 C   0  0  0  0  0  0  0  0  0  0  0  0
   24.8769    8.3984   55.6457 O   0  0  0  0  0  0  0  0  0  0  0  0
   23.7283    8.3368   55.0164 C   0  0  0  0  0  0  0  0  0  0  0  0
   22.6253    8.2675   55.6352 O   0  0  0  0  0  0  0  0  0  0  0  0
   20.8314    9.2950   51.4027 C   0  0  0  0  0  0  0  0  0  0  0  0
   20.0466    8.1707   51.5136 C   0  0  0  0  0  0  0  0  0  0  0  0
   20.4334    7.1064   52.3080 C   0  0  0  0  0  0  0  0  0  0  0  0
   21.6329    7.1763   53.0023 C   0  0  0  0  0  0  0  0  0  0  0  0
   22.4520    8.2816   52.9213 C   0  0  0  0  0  0  0  0  0  0  0  0
   22.0274    9.3131   52.1216 C   0  0  0  0  0  0  0  0  0  0  0  0
   20.4581   10.3649   50.6173 O   0  0  0  0  0  0  0  0  0  0  0  0
   20.8980   11.6859   50.7394 C   0  0  0  0  0  0  0  0  0  0  0  0
   22.5799   12.9906   51.9837 O   0  0  0  0  0  0  0  0  0  0  0  0
   21.5980   11.9949   52.0010 C   0  0  0  0  0  0  0  0  0  0  0  0
   21.3997   11.4464   53.1087 O   0  0  0  0  0  0  0  0  0  0  0  0
   23.5402   12.6358   52.1110 H   0  0  0  0  0  0  0  0  0  0  0  0
   27.2364    8.5688   51.5064 O   0  0  0  0  0  0  0  0  0  0  0  0
   27.8061    9.6582   50.8297 C   0  0  0  0  0  0  0  0  0  0  0  0
   28.2350    9.3183   49.4573 C   0  0  0  0  0  0  0  0  0  0  0  0
   28.6707    8.0335   49.1369 C   0  0  0  0  0  0  0  0  0  0  0  0
   29.0711    7.7167   47.8552 C   0  0  0  0  0  0  0  0  0  0  0  0
   29.0415    8.6897   46.8648 C   0  0  0  0  0  0  0  0  0  0  0  0
   28.6166    9.9699   47.1461 C   0  0  0  0  0  0  0  0  0  0  0  0
   28.2244   10.2473   48.4390 C   0  0  0  0  0  0  0  0  0  0  0  0
 21 22  1  0  0  0
 22 23  2  0  0  0
 22 20  1  0  0  0
 20 19  1  0  0  0
 19 13  1  0  0  0
 13 14  2  0  0  0
 14 15  1  0  0  0
 15 16  2  0  0  0
 16 17  1  0  0  0
 17 18  2  0  0  0
 17  1  1  0  0  0
  1  2  2  0  0  0
  2  3  1  0  0  0
  3  4  2  0  0  0
  4 25  1  0  0  0
 25 26  1  0  0  0
 26 27  1  0  0  0
 27 28  2  0  0  0
 28 29  1  0  0  0
 29 30  2  0  0  0
 30 31  1  0  0  0
 31 32  2  0  0  0
  4  5  1  0  0  0
  5  6  2  0  0  0
  6  7  1  0  0  0
  6  8  1  0  0  0
  8  9  2  0  0  0
  9 10  1  0  0  0
 10 11  1  0  0  0
 11 12  2  0  0  0
 18 13  1  0  0  0
 11  1  1  0  0  0
  9  3  1  0  0  0
 32 27  1  0  0  0
 21 24  1  0  0  0
M  END
> <minimizedAffinity>
22.72346

> <CNNscore>
0.6557728648

> <CNNaffinity>
6.1123561859

> <CNN_VS>
4.0083174706

> <CNNaffinity_variance>
0.1342207789

$$$$
[H]OC(=O)C([H])([H])Oc1c([H])c([H])c([H])c(-c2c([H])c3c(OC([H])([H])c4c([H])c([H])c([H])c([H])c4[H])c([H])c(Cl)c([H])c3oc2=O)c1[H]


 32 35  0  0  0  0  0  0  0  0999 V2000
   24.5683    7.2698   53.9696 C   0  0  0  0  0  0  0  0  0  0  0  0
   23.5962    7.6584   53.0719 C   0  0  0  0  0  0  0  0  0  0  0  0
   22.4023    6.9582   53.0853 C   0  0  0  0  0  0  0  0  0  0  0  0
   21.3791    7.3107   52.1939 C   0  0  0  0  0  0  0  0  0  0  0  0
   20.1879    6.6155   52.2042 C   0  0  0  0  0  0  0  0  0  0  0  0
   20.0496    5.5827   53.1080 C   0  0  0  0  0  0  0  0  0  0  0  0
   18.5333    4.6823   53.1358 Cl  0  0  0  0  0  0  0  0  0  0  0  0
   21.0665    5.2404   53.9863 C   0  0  0  0  0  0  0  0  0  0  0  0
   22.2713    5.9276   53.9910 C   0  0  0  0  0  0  0  0  0  0  0  0
   23.2255    5.5899   54.8308 O   0  0  0  0  0  0  0  0  0  0  0  0
   24.3672    6.2345   54.8416 C   0  0  0  0  0  0  0  0  0  0  0  0
   25.3032    5.9313   55.6393 O   0  0  0  0  0  0  0  0  0  0  0  0
   27.6111    9.1041   52.7150 C   0  0  0  0  0  0  0  0  0  0  0  0
   28.2240    9.4146   53.9067 C   0  0  0  0  0  0  0  0  0  0  0  0
   27.6667    9.0370   55.1151 C   0  0  0  0  0  0  0  0  0  0  0  0
   26.4699    8.3347   55.1224 C   0  0  0  0  0  0  0  0  0  0  0  0
   25.8194    8.0021   53.9538 C   0  0  0  0  0  0  0  0  0  0  0  0
   26.4097    8.3971   52.7794 C   0  0  0  0  0  0  0  0  0  0  0  0
   28.1557    9.4711   51.5027 O   0  0  0  0  0  0  0  0  0  0  0  0
   27.5076    9.4844   50.2644 C   0  0  0  0  0  0  0  0  0  0  0  0
   28.8275    8.9732   48.2456 O   0  0  0  0  0  0  0  0  0  0  0  0
   28.3379    9.9377   49.1321 C   0  0  0  0  0  0  0  0  0  0  0  0
   28.6561   11.1214   48.8773 O   0  0  0  0  0  0  0  0  0  0  0  0
   29.8482    8.8330   48.2992 H   0  0  0  0  0  0  0  0  0  0  0  0
   21.5920    8.3624   51.3130 O   0  0  0  0  0  0  0  0  0  0  0  0
   21.1949    9.6515   51.7003 C   0  0  0  0  0  0  0  0  0  0  0  0
   21.2822    9.8627   53.1600 C   0  0  0  0  0  0  0  0  0  0  0  0
   21.9417   10.9712   53.6886 C   0  0  0  0  0  0  0  0  0  0  0  0
   22.0230   11.1678   55.0517 C   0  0  0  0  0  0  0  0  0  0  0  0
   21.4401   10.2498   55.9153 C   0  0  0  0  0  0  0  0  0  0  0  0
   20.7803    9.1428   55.4275 C   0  0  0  0  0  0  0  0  0  0  0  0
   20.7207    8.9815   54.0590 C   0  0  0  0  0  0  0  0  0  0  0  0
 21 22  1  0  0  0
 22 23  2  0  0  0
 22 20  1  0  0  0
 20 19  1  0  0  0
 19 13  1  0  0  0
 13 14  2  0  0  0
 14 15  1  0  0  0
 15 16  2  0  0  0
 16 17  1  0  0  0
 17 18  2  0  0  0
 17  1  1  0  0  0
  1  2  2  0  0  0
  2  3  1  0  0  0
  3  4  2  0  0  0
  4 25  1  0  0  0
 25 26  1  0  0  0
 26 27  1  0  0  0
 27 28  2  0  0  0
 28 29  1  0  0  0
 29 30  2  0  0  0
 30 31  1  0  0  0
 31 32  2  0  0  0
  4  5  1  0  0  0
  5  6  2  0  0  0
  6  7  1  0  0  0
  6  8  1  0  0  0
  8  9  2  0  0  0
  9 10  1  0  0  0
 10 11  1  0  0  0
 11 12  2  0  0  0
 18 13  1  0  0  0
 11  1  1  0  0  0
  9  3  1  0  0  0
 32 27  1  0  0  0
 21 24  1  0  0  0
M  END
> <minimizedAffinity>
15.54758

> <CNNscore>
0.5764885545

> <CNNaffinity>
6.5271844864

> <CNN_VS>
3.7628471851

> <CNNaffinity_variance>
0.2129028291

$$$$
[H]OC(=O)C([H])([H])Oc1c([H])c([H])c([H])c(-c2c([H])c3c(OC([H])([H])c4c([H])c([H])c([H])c([H])c4[H])c([H])c(Cl)c([H])c3oc2=O)c1[H]


 32 35  0  0  0  0  0  0  0  0999 V2000
   24.4524    7.3226   53.9982 C   0  0  0  0  0  0  0  0  0  0  0  0
   23.4802    7.8047   53.1472 C   0  0  0  0  0  0  0  0  0  0  0  0
   22.2674    7.1379   53.1250 C   0  0  0  0  0  0  0  0  0  0  0  0
   21.2432    7.5850   52.2783 C   0  0  0  0  0  0  0  0  0  0  0  0
   20.0333    6.9234   52.2533 C   0  0  0  0  0  0  0  0  0  0  0  0
   19.8777    5.8286   53.0778 C   0  0  0  0  0  0  0  0  0  0  0  0
   18.3373    4.9699   53.0595 Cl  0  0  0  0  0  0  0  0  0  0  0  0
   20.8957    5.3929   53.9124 C   0  0  0  0  0  0  0  0  0  0  0  0
   22.1192    6.0450   53.9515 C   0  0  0  0  0  0  0  0  0  0  0  0
   23.0741    5.6185   54.7490 O   0  0  0  0  0  0  0  0  0  0  0  0
   24.2335    6.2294   54.7918 C   0  0  0  0  0  0  0  0  0  0  0  0
   25.1707    5.8410   55.5502 O   0  0  0  0  0  0  0  0  0  0  0  0
   27.5124    9.1206   55.2634 C   0  0  0  0  0  0  0  0  0  0  0  0
   28.1690    9.3595   54.0785 C   0  0  0  0  0  0  0  0  0  0  0  0
   27.6343    8.9474   52.8711 C   0  0  0  0  0  0  0  0  0  0  0  0
   26.4167    8.2821   52.8580 C   0  0  0  0  0  0  0  0  0  0  0  0
   25.7232    8.0200   54.0198 C   0  0  0  0  0  0  0  0  0  0  0  0
   26.2918    8.4476   55.1934 C   0  0  0  0  0  0  0  0  0  0  0  0
   28.0311    9.5277   56.4743 O   0  0  0  0  0  0  0  0  0  0  0  0
   27.6492    9.0780   57.7414 C   0  0  0  0  0  0  0  0  0  0  0  0
   29.1048    8.4048   59.6141 O   0  0  0  0  0  0  0  0  0  0  0  0
   28.5735    9.4369   58.8340 C   0  0  0  0  0  0  0  0  0  0  0  0
   28.9390   10.5940   59.1416 O   0  0  0  0  0  0  0  0  0  0  0  0
   28.7500    8.3849   60.5826 H   0  0  0  0  0  0  0  0  0  0  0  0
   21.4743    8.6949   51.4769 O   0  0  0  0  0  0  0  0  0  0  0  0
   21.3153    9.9712   52.0382 C   0  0  0  0  0  0  0  0  0  0  0  0
   21.5491    9.9879   53.4969 C   0  0  0  0  0  0  0  0  0  0  0  0
   20.6718    9.3516   54.3737 C   0  0  0  0  0  0  0  0  0  0  0  0
   20.8906    9.3675   55.7358 C   0  0  0  0  0  0  0  0  0  0  0  0
   22.0010   10.0265   56.2466 C   0  0  0  0  0  0  0  0  0  0  0  0
   22.8890   10.6660   55.4092 C   0  0  0  0  0  0  0  0  0  0  0  0
   22.6357   10.6275   54.0540 C   0  0  0  0  0  0  0  0  0  0  0  0
 21 22  1  0  0  0
 22 23  2  0  0  0
 22 20  1  0  0  0
 20 19  1  0  0  0
 19 13  1  0  0  0
 13 14  2  0  0  0
 14 15  1  0  0  0
 15 16  2  0  0  0
 16 17  1  0  0  0
 17 18  2  0  0  0
 17  1  1  0  0  0
  1  2  2  0  0  0
  2  3  1  0  0  0
  3  4  2  0  0  0
  4 25  1  0  0  0
 25 26  1  0  0  0
 26 27  1  0  0  0
 27 28  2  0  0  0
 28 29  1  0  0  0
 29 30  2  0  0  0
 30 31  1  0  0  0
 31 32  2  0  0  0
  4  5  1  0  0  0
  5  6  2  0  0  0
  6  7  1  0  0  0
  6  8  1  0  0  0
  8  9  2  0  0  0
  9 10  1  0  0  0
 10 11  1  0  0  0
 11 12  2  0  0  0
 18 13  1  0  0  0
 11  1  1  0  0  0
  9  3  1  0  0  0
 32 27  1  0  0  0
 21 24  1  0  0  0
M  END
> <minimizedAffinity>
10.83420

> <CNNscore>
0.5299735665

> <CNNaffinity>
6.4597167969

> <CNN_VS>
3.4234790802

> <CNNaffinity_variance>
0.1110558286

$$$$
[H]OC(=O)C([H])([H])Oc1c([H])c([H])c([H])c(-c2c([H])c3c(OC([H])([H])c4c([H])c([H])c([H])c([H])c4[H])c([H])c(Cl)c([H])c3oc2=O)c1[H]


 32 35  0  0  0  0  0  0  0  0999 V2000
   24.3218    7.1622   53.7638 C   0  0  0  0  0  0  0  0  0  0  0  0
   23.3166    7.5549   52.9052 C   0  0  0  0  0  0  0  0  0  0  0  0
   22.0991    6.9053   53.0127 C   0  0  0  0  0  0  0  0  0  0  0  0
   21.0419    7.2644   52.1646 C   0  0  0  0  0  0  0  0  0  0  0  0
   19.8271    6.6196   52.2685 C   0  0  0  0  0  0  0  0  0  0  0  0
   19.6998    5.6295   53.2205 C   0  0  0  0  0  0  0  0  0  0  0  0
   18.1537    4.7938   53.3681 Cl  0  0  0  0  0  0  0  0  0  0  0  0
   20.7503    5.2803   54.0554 C   0  0  0  0  0  0  0  0  0  0  0  0
   21.9793    5.9172   53.9659 C   0  0  0  0  0  0  0  0  0  0  0  0
   22.9652    5.5737   54.7657 O   0  0  0  0  0  0  0  0  0  0  0  0
   24.1299    6.1709   54.6875 C   0  0  0  0  0  0  0  0  0  0  0  0
   25.0967    5.8609   55.4448 O   0  0  0  0  0  0  0  0  0  0  0  0
   27.7277    8.5219   54.6285 C   0  0  0  0  0  0  0  0  0  0  0  0
   28.0572    9.1404   53.4448 C   0  0  0  0  0  0  0  0  0  0  0  0
   27.1904    9.1256   52.3669 C   0  0  0  0  0  0  0  0  0  0  0  0
   25.9702    8.4751   52.4840 C   0  0  0  0  0  0  0  0  0  0  0  0
   25.5975    7.8413   53.6496 C   0  0  0  0  0  0  0  0  0  0  0  0
   26.4890    7.8824   54.6923 C   0  0  0  0  0  0  0  0  0  0  0  0
   28.5798    8.5306   55.7124 O   0  0  0  0  0  0  0  0  0  0  0  0
   28.2402    8.8004   57.0411 C   0  0  0  0  0  0  0  0  0  0  0  0
   26.4154   10.4585   57.0482 O   0  0  0  0  0  0  0  0  0  0  0  0
   27.7620   10.1730   57.2951 C   0  0  0  0  0  0  0  0  0  0  0  0
   28.4516   11.1285   57.7176 O   0  0  0  0  0  0  0  0  0  0  0  0
   26.2592   11.0805   56.2401 H   0  0  0  0  0  0  0  0  0  0  0  0
   21.2456    8.2712   51.2307 O   0  0  0  0  0  0  0  0  0  0  0  0
   21.5613    9.5586   51.6916 C   0  0  0  0  0  0  0  0  0  0  0  0
   21.4170    9.6934   53.1558 C   0  0  0  0  0  0  0  0  0  0  0  0
   22.0443   10.7276   53.8486 C   0  0  0  0  0  0  0  0  0  0  0  0
   21.9093   10.8530   55.2159 C   0  0  0  0  0  0  0  0  0  0  0  0
   21.1372    9.9368   55.9179 C   0  0  0  0  0  0  0  0  0  0  0  0
   20.5029    8.9022   55.2653 C   0  0  0  0  0  0  0  0  0  0  0  0
   20.6622    8.8108   53.8984 C   0  0  0  0  0  0  0  0  0  0  0  0
 21 22  1  0  0  0
 22 23  2  0  0  0
 22 20  1  0  0  0
 20 19  1  0  0  0
 19 13  1  0  0  0
 13 14  2  0  0  0
 14 15  1  0  0  0
 15 16  2  0  0  0
 16 17  1  0  0  0
 17 18  2  0  0  0
 17  1  1  0  0  0
  1  2  2  0  0  0
  2  3  1  0  0  0
  3  4  2  0  0  0
  4 25  1  0  0  0
 25 26  1  0  0  0
 26 27  1  0  0  0
 27 28  2  0  0  0
 28 29  1  0  0  0
 29 30  2  0  0  0
 30 31  1  0  0  0
 31 32  2  0  0  0
  4  5  1  0  0  0
  5  6  2  0  0  0
  6  7  1  0  0  0
  6  8  1  0  0  0
  8  9  2  0  0  0
  9 10  1  0  0  0
 10 11  1  0  0  0
 11 12  2  0  0  0
 18 13  1  0  0  0
 11  1  1  0  0  0
  9  3  1  0  0  0
 32 27  1  0  0  0
 21 24  1  0  0  0
M  END
> <minimizedAffinity>
14.48877

> <CNNscore>
0.4987556636

> <CNNaffinity>
6.3809256554

> <CNN_VS>
3.1825227737

> <CNNaffinity_variance>
0.1712422073

$$$$
[H]OC(=O)C([H])([H])Oc1c([H])c([H])c([H])c(-c2c([H])c3c(OC([H])([H])c4c([H])c([H])c([H])c([H])c4[H])c([H])c(Cl)c([H])c3oc2=O)c1[H]


 32 35  0  0  0  0  0  0  0  0999 V2000
   23.8908    7.0555   53.4767 C   0  0  0  0  0  0  0  0  0  0  0  0
   24.2336    8.0758   54.3387 C   0  0  0  0  0  0  0  0  0  0  0  0
   25.5783    8.2459   54.6196 C   0  0  0  0  0  0  0  0  0  0  0  0
   25.9833    9.2680   55.4897 C   0  0  0  0  0  0  0  0  0  0  0  0
   27.3222    9.4407   55.7721 C   0  0  0  0  0  0  0  0  0  0  0  0
   28.2246    8.5848   55.1756 C   0  0  0  0  0  0  0  0  0  0  0  0
   29.9412    8.7905   55.5247 Cl  0  0  0  0  0  0  0  0  0  0  0  0
   27.8158    7.5765   54.3161 C   0  0  0  0  0  0  0  0  0  0  0  0
   26.4741    7.3871   54.0200 C   0  0  0  0  0  0  0  0  0  0  0  0
   26.1034    6.4258   53.2026 O   0  0  0  0  0  0  0  0  0  0  0  0
   24.8371    6.2402   52.9176 C   0  0  0  0  0  0  0  0  0  0  0  0
   24.4516    5.3229   52.1338 O   0  0  0  0  0  0  0  0  0  0  0  0
   20.4383    7.6253   52.0794 C   0  0  0  0  0  0  0  0  0  0  0  0
   19.7733    6.5440   52.6093 C   0  0  0  0  0  0  0  0  0  0  0  0
   20.4268    5.6301   53.4162 C   0  0  0  0  0  0  0  0  0  0  0  0
   21.7747    5.8089   53.6933 C   0  0  0  0  0  0  0  0  0  0  0  0
   22.4822    6.8764   53.1843 C   0  0  0  0  0  0  0  0  0  0  0  0
   21.7926    7.7573   52.3893 C   0  0  0  0  0  0  0  0  0  0  0  0
   19.8000    8.5461   51.2758 O   0  0  0  0  0  0  0  0  0  0  0  0
   20.4032    9.4448   50.3915 C   0  0  0  0  0  0  0  0  0  0  0  0
   20.9306   11.8527   50.4439 O   0  0  0  0  0  0  0  0  0  0  0  0
   21.0751   10.5919   51.0315 C   0  0  0  0  0  0  0  0  0  0  0  0
   21.7760   10.5525   52.0681 O   0  0  0  0  0  0  0  0  0  0  0  0
   21.7945   12.2172   50.0137 H   0  0  0  0  0  0  0  0  0  0  0  0
   25.0164   10.0902   56.0521 O   0  0  0  0  0  0  0  0  0  0  0  0
   23.9590    9.4954   56.7575 C   0  0  0  0  0  0  0  0  0  0  0  0
   22.6811    9.5393   56.0171 C   0  0  0  0  0  0  0  0  0  0  0  0
   21.7628    8.4942   56.1040 C   0  0  0  0  0  0  0  0  0  0  0  0
   20.5697    8.5357   55.4124 C   0  0  0  0  0  0  0  0  0  0  0  0
   20.2742    9.6339   54.6157 C   0  0  0  0  0  0  0  0  0  0  0  0
   21.1587   10.6848   54.5065 C   0  0  0  0  0  0  0  0  0  0  0  0
   22.3405   10.6061   55.2133 C   0  0  0  0  0  0  0  0  0  0  0  0
 21 22  1  0  0  0
 22 23  2  0  0  0
 22 20  1  0  0  0
 20 19  1  0  0  0
 19 13  1  0  0  0
 13 14  2  0  0  0
 14 15  1  0  0  0
 15 16  2  0  0  0
 16 17  1  0  0  0
 17 18  2  0  0  0
 17  1  1  0  0  0
  1  2  2  0  0  0
  2  3  1  0  0  0
  3  4  2  0  0  0
  4 25  1  0  0  0
 25 26  1  0  0  0
 26 27  1  0  0  0
 27 28  2  0  0  0
 28 29  1  0  0  0
 29 30  2  0  0  0
 30 31  1  0  0  0
 31 32  2  0  0  0
  4  5  1  0  0  0
  5  6  2  0  0  0
  6  7  1  0  0  0
  6  8  1  0  0  0
  8  9  2  0  0  0
  9 10  1  0  0  0
 10 11  1  0  0  0
 11 12  2  0  0  0
 18 13  1  0  0  0
 11  1  1  0  0  0
  9  3  1  0  0  0
 32 27  1  0  0  0
 21 24  1  0  0  0
M  END
> <minimizedAffinity>
23.86779

> <CNNscore>
0.4749510586

> <CNNaffinity>
5.9556908607

> <CNN_VS>
2.8286616802

> <CNNaffinity_variance>
0.2423274070

$$$$
[H]OC(=O)C([H])([H])Oc1c([H])c([H])c([H])c(-c2c([H])c3c(OC([H])([H])c4c([H])c([H])c([H])c([H])c4[H])c([H])c(Cl)c([H])c3oc2=O)c1[H]


 32 35  0  0  0  0  0  0  0  0999 V2000
   25.5427    7.9788   54.0339 C   0  0  0  0  0  0  0  0  0  0  0  0
   24.4772    7.4320   54.7177 C   0  0  0  0  0  0  0  0  0  0  0  0
   23.3478    7.1124   53.9841 C   0  0  0  0  0  0  0  0  0  0  0  0
   22.2348    6.5538   54.6285 C   0  0  0  0  0  0  0  0  0  0  0  0
   21.1076    6.2338   53.9011 C   0  0  0  0  0  0  0  0  0  0  0  0
   21.1217    6.4812   52.5441 C   0  0  0  0  0  0  0  0  0  0  0  0
   19.6891    6.0785   51.5975 Cl  0  0  0  0  0  0  0  0  0  0  0  0
   22.2265    7.0339   51.9144 C   0  0  0  0  0  0  0  0  0  0  0  0
   23.3692    7.3623   52.6289 C   0  0  0  0  0  0  0  0  0  0  0  0
   24.4084    7.8858   52.0160 O   0  0  0  0  0  0  0  0  0  0  0  0
   25.4922    8.1990   52.6842 C   0  0  0  0  0  0  0  0  0  0  0  0
   26.5076    8.7040   52.1201 O   0  0  0  0  0  0  0  0  0  0  0  0
   27.7483    9.1067   56.8729 C   0  0  0  0  0  0  0  0  0  0  0  0
   28.9891    8.9634   56.2968 C   0  0  0  0  0  0  0  0  0  0  0  0
   29.1241    8.5068   54.9980 C   0  0  0  0  0  0  0  0  0  0  0  0
   27.9882    8.1884   54.2674 C   0  0  0  0  0  0  0  0  0  0  0  0
   26.7247    8.3153   54.8028 C   0  0  0  0  0  0  0  0  0  0  0  0
   26.6396    8.7722   56.0942 C   0  0  0  0  0  0  0  0  0  0  0  0
   27.5975    9.5632   58.1651 O   0  0  0  0  0  0  0  0  0  0  0  0
   28.6091    9.7383   59.1136 C   0  0  0  0  0  0  0  0  0  0  0  0
   28.3415   12.1471   58.6609 O   0  0  0  0  0  0  0  0  0  0  0  0
   28.9101   11.1428   59.4508 C   0  0  0  0  0  0  0  0  0  0  0  0
   29.6373   11.5369   60.3906 O   0  0  0  0  0  0  0  0  0  0  0  0
   29.0213   12.6568   58.0757 H   0  0  0  0  0  0  0  0  0  0  0  0
   22.2952    6.3339   55.9979 O   0  0  0  0  0  0  0  0  0  0  0  0
   22.0282    7.4076   56.8612 C   0  0  0  0  0  0  0  0  0  0  0  0
   21.9195    8.6989   56.1516 C   0  0  0  0  0  0  0  0  0  0  0  0
   20.7559    9.0489   55.4684 C   0  0  0  0  0  0  0  0  0  0  0  0
   20.6549   10.2548   54.8059 C   0  0  0  0  0  0  0  0  0  0  0  0
   21.7268   11.1376   54.8166 C   0  0  0  0  0  0  0  0  0  0  0  0
   22.8921   10.8242   55.4817 C   0  0  0  0  0  0  0  0  0  0  0  0
   22.9541    9.6095   56.1320 C   0  0  0  0  0  0  0  0  0  0  0  0
 21 22  1  0  0  0
 22 23  2  0  0  0
 22 20  1  0  0  0
 20 19  1  0  0  0
 19 13  1  0  0  0
 13 14  2  0  0  0
 14 15  1  0  0  0
 15 16  2  0  0  0
 16 17  1  0  0  0
 17 18  2  0  0  0
 17  1  1  0  0  0
  1  2  2  0  0  0
  2  3  1  0  0  0
  3  4  2  0  0  0
  4 25  1  0  0  0
 25 26  1  0  0  0
 26 27  1  0  0  0
 27 28  2  0  0  0
 28 29  1  0  0  0
 29 30  2  0  0  0
 30 31  1  0  0  0
 31 32  2  0  0  0
  4  5  1  0  0  0
  5  6  2  0  0  0
  6  7  1  0  0  0
  6  8  1  0  0  0
  8  9  2  0  0  0
  9 10  1  0  0  0
 10 11  1  0  0  0
 11 12  2  0  0  0
 18 13  1  0  0  0
 11  1  1  0  0  0
  9  3  1  0  0  0
 32 27  1  0  0  0
 21 24  1  0  0  0
M  END
> <minimizedAffinity>
18.16945

> <CNNscore>
0.4656202793

> <CNNaffinity>
5.8982062340

> <CNN_VS>
2.7463245392

> <CNNaffinity_variance>
0.2483700812

$$$$
[H]OC(=O)C([H])([H])Oc1c([H])c([H])c([H])c(-c2c([H])c3c(OC([H])([H])c4c([H])c([H])c([H])c([H])c4[H])c([H])c(Cl)c([H])c3oc2=O)c1[H]


 32 35  0  0  0  0  0  0  0  0999 V2000
   23.6969    8.3196   53.6312 C   0  0  0  0  0  0  0  0  0  0  0  0
   24.8365    8.4978   52.8752 C   0  0  0  0  0  0  0  0  0  0  0  0
   26.0404    8.5888   53.5520 C   0  0  0  0  0  0  0  0  0  0  0  0
   27.2305    8.7703   52.8332 C   0  0  0  0  0  0  0  0  0  0  0  0
   28.4322    8.8615   53.5039 C   0  0  0  0  0  0  0  0  0  0  0  0
   28.4135    8.7686   54.8800 C   0  0  0  0  0  0  0  0  0  0  0  0
   29.9407    8.8829   55.7548 Cl  0  0  0  0  0  0  0  0  0  0  0  0
   27.2322    8.5891   55.5834 C   0  0  0  0  0  0  0  0  0  0  0  0
   26.0140    8.4952   54.9268 C   0  0  0  0  0  0  0  0  0  0  0  0
   24.9028    8.3250   55.6093 O   0  0  0  0  0  0  0  0  0  0  0  0
   23.7473    8.2352   54.9961 C   0  0  0  0  0  0  0  0  0  0  0  0
   22.6618    8.0709   55.6277 O   0  0  0  0  0  0  0  0  0  0  0  0
   20.3767    7.0165   52.4168 C   0  0  0  0  0  0  0  0  0  0  0  0
   20.0050    8.0334   51.5683 C   0  0  0  0  0  0  0  0  0  0  0  0
   20.8159    9.1384   51.3809 C   0  0  0  0  0  0  0  0  0  0  0  0
   22.0223    9.2200   52.0615 C   0  0  0  0  0  0  0  0  0  0  0  0
   22.4359    8.2263   52.9221 C   0  0  0  0  0  0  0  0  0  0  0  0
   21.5993    7.1492   53.0763 C   0  0  0  0  0  0  0  0  0  0  0  0
   19.5807    5.9078   52.6117 O   0  0  0  0  0  0  0  0  0  0  0  0
   19.5916    5.0545   53.7186 C   0  0  0  0  0  0  0  0  0  0  0  0
   19.2609    2.8220   52.7257 O   0  0  0  0  0  0  0  0  0  0  0  0
   18.7822    3.8300   53.5687 C   0  0  0  0  0  0  0  0  0  0  0  0
   17.6882    3.5950   54.1301 O   0  0  0  0  0  0  0  0  0  0  0  0
   18.7107    2.7008   51.8614 H   0  0  0  0  0  0  0  0  0  0  0  0
   27.1697    8.8547   51.4488 O   0  0  0  0  0  0  0  0  0  0  0  0
   28.1236    9.6397   50.7830 C   0  0  0  0  0  0  0  0  0  0  0  0
   28.3128    9.2375   49.3740 C   0  0  0  0  0  0  0  0  0  0  0  0
   29.2113    8.2295   49.0278 C   0  0  0  0  0  0  0  0  0  0  0  0
   29.3876    7.8544   47.7119 C   0  0  0  0  0  0  0  0  0  0  0  0
   28.6609    8.4879   46.7125 C   0  0  0  0  0  0  0  0  0  0  0  0
   27.7642    9.4883   47.0186 C   0  0  0  0  0  0  0  0  0  0  0  0
   27.6162    9.8348   48.3454 C   0  0  0  0  0  0  0  0  0  0  0  0
 21 22  1  0  0  0
 22 23  2  0  0  0
 22 20  1  0  0  0
 20 19  1  0  0  0
 19 13  1  0  0  0
 13 14  2  0  0  0
 14 15  1  0  0  0
 15 16  2  0  0  0
 16 17  1  0  0  0
 17 18  2  0  0  0
 17  1  1  0  0  0
  1  2  2  0  0  0
  2  3  1  0  0  0
  3  4  2  0  0  0
  4 25  1  0  0  0
 25 26  1  0  0  0
 26 27  1  0  0  0
 27 28  2  0  0  0
 28 29  1  0  0  0
 29 30  2  0  0  0
 30 31  1  0  0  0
 31 32  2  0  0  0
  4  5  1  0  0  0
  5  6  2  0  0  0
  6  7  1  0  0  0
  6  8  1  0  0  0
  8  9  2  0  0  0
  9 10  1  0  0  0
 10 11  1  0  0  0
 11 12  2  0  0  0
 18 13  1  0  0  0
 11  1  1  0  0  0
  9  3  1  0  0  0
 32 27  1  0  0  0
 21 24  1  0  0  0
M  END
> <minimizedAffinity>
22.15484

> <CNNscore>
0.4576257169

> <CNNaffinity>
6.2347059250

> <CNN_VS>
2.8531618118

> <CNNaffinity_variance>
0.7826241851

$$$$
[H]OC(=O)C([H])([H])Oc1c([H])c([H])c([H])c(-c2c([H])c3c(OC([H])([H])c4c([H])c([H])c([H])c([H])c4[H])c([H])c(Cl)c([H])c3oc2=O)c1[H]


 32 35  0  0  0  0  0  0  0  0999 V2000
   23.0722    9.1794   54.4978 C   0  0  0  0  0  0  0  0  0  0  0  0
   24.3323    8.6715   54.2615 C   0  0  0  0  0  0  0  0  0  0  0  0
   25.3366    9.0260   55.1456 C   0  0  0  0  0  0  0  0  0  0  0  0
   26.6370    8.5383   54.9531 C   0  0  0  0  0  0  0  0  0  0  0  0
   27.6405    8.8892   55.8318 C   0  0  0  0  0  0  0  0  0  0  0  0
   27.3174    9.7210   56.8837 C   0  0  0  0  0  0  0  0  0  0  0  0
   28.5876   10.1804   58.0177 Cl  0  0  0  0  0  0  0  0  0  0  0  0
   26.0288   10.1990   57.0670 C   0  0  0  0  0  0  0  0  0  0  0  0
   25.0065    9.8574   56.1941 C   0  0  0  0  0  0  0  0  0  0  0  0
   23.7897   10.3196   56.3826 O   0  0  0  0  0  0  0  0  0  0  0  0
   22.8178   10.0014   55.5620 C   0  0  0  0  0  0  0  0  0  0  0  0
   21.6369   10.4314   55.7193 O   0  0  0  0  0  0  0  0  0  0  0  0
   20.0731    7.4477   53.0133 C   0  0  0  0  0  0  0  0  0  0  0  0
   19.9906    8.0890   51.7992 C   0  0  0  0  0  0  0  0  0  0  0  0
   20.8948    9.0763   51.4510 C   0  0  0  0  0  0  0  0  0  0  0  0
   21.8994    9.4238   52.3429 C   0  0  0  0  0  0  0  0  0  0  0  0
   22.0210    8.8095   53.5705 C   0  0  0  0  0  0  0  0  0  0  0  0
   21.1020    7.8359   53.8725 C   0  0  0  0  0  0  0  0  0  0  0  0
   19.1812    6.4599   53.3733 O   0  0  0  0  0  0  0  0  0  0  0  0
   19.3368    5.0837   53.1855 C   0  0  0  0  0  0  0  0  0  0  0  0
   17.1356    4.5857   54.1784 O   0  0  0  0  0  0  0  0  0  0  0  0
   18.4833    4.2380   54.0420 C   0  0  0  0  0  0  0  0  0  0  0  0
   18.8485    3.2200   54.6725 O   0  0  0  0  0  0  0  0  0  0  0  0
   16.8845    4.9340   55.1165 H   0  0  0  0  0  0  0  0  0  0  0  0
   26.8856    7.7050   53.8709 O   0  0  0  0  0  0  0  0  0  0  0  0
   25.8817    7.5460   52.9033 C   0  0  0  0  0  0  0  0  0  0  0  0
   24.7608    6.7066   53.3744 C   0  0  0  0  0  0  0  0  0  0  0  0
   23.7854    6.2466   52.4911 C   0  0  0  0  0  0  0  0  0  0  0  0
   22.7389    5.4630   52.9317 C   0  0  0  0  0  0  0  0  0  0  0  0
   22.6512    5.1241   54.2755 C   0  0  0  0  0  0  0  0  0  0  0  0
   23.5977    5.5613   55.1764 C   0  0  0  0  0  0  0  0  0  0  0  0
   24.6284    6.3426   54.6973 C   0  0  0  0  0  0  0  0  0  0  0  0
 21 22  1  0  0  0
 22 23  2  0  0  0
 22 20  1  0  0  0
 20 19  1  0  0  0
 19 13  1  0  0  0
 13 14  2  0  0  0
 14 15  1  0  0  0
 15 16  2  0  0  0
 16 17  1  0  0  0
 17 18  2  0  0  0
 17  1  1  0  0  0
  1  2  2  0  0  0
  2  3  1  0  0  0
  3  4  2  0  0  0
  4 25  1  0  0  0
 25 26  1  0  0  0
 26 27  1  0  0  0
 27 28  2  0  0  0
 28 29  1  0  0  0
 29 30  2  0  0  0
 30 31  1  0  0  0
 31 32  2  0  0  0
  4  5  1  0  0  0
  5  6  2  0  0  0
  6  7  1  0  0  0
  6  8  1  0  0  0
  8  9  2  0  0  0
  9 10  1  0  0  0
 10 11  1  0  0  0
 11 12  2  0  0  0
 18 13  1  0  0  0
 11  1  1  0  0  0
  9  3  1  0  0  0
 32 27  1  0  0  0
 21 24  1  0  0  0
M  END
> <minimizedAffinity>
17.40432

> <CNNscore>
0.4268011153

> <CNNaffinity>
6.4001665115

> <CNN_VS>
2.7315981388

> <CNNaffinity_variance>
0.2821575701

$$$$
[H]c1c([H])c([H])c2c(c1[H])c1c3c(c4c5c([H])c([H])c([H])c([H])c5n5c4c1n2[C@@]1([H])O[C@@]5(C([H])([H])[H])[C@]([H])(N([H])C([H])([H])[H])C1([H])[H])C([H])([H])N([H])C3=O


 34 41  0  0  0  0  0  0  0  0999 V2000
   27.7133   10.1915   56.6539 C   0  0  0  0  0  0  0  0  0  0  0  0
   26.5246   10.9367   57.1845 C   0  0  0  0  0  0  0  0  0  0  0  0
   25.2945   10.3614   56.5474 C   0  0  0  0  0  0  0  0  0  0  0  0
   25.7230    9.2606   55.6229 O   0  0  0  0  0  0  0  0  0  0  0  0
   27.2178    9.1556   55.6888 C   0  0  0  0  0  0  0  0  0  0  0  0
   28.0680    8.1850   54.9238 C   0  0  0  0  0  0  0  0  0  0  0  0
   26.5980    8.1639   54.7495 N   0  0  0  0  0  0  0  0  0  0  0  0
   27.3921    7.1684   53.9567 C   0  0  0  0  0  0  0  0  0  0  0  0
   28.8650    6.8972   53.8738 C   0  0  0  0  0  0  0  0  0  0  0  0
   29.3784    5.8130   52.9730 C   0  0  0  0  0  0  0  0  0  0  0  0
   28.4189    5.0003   52.1554 C   0  0  0  0  0  0  0  0  0  0  0  0
   26.9459    5.2716   52.2383 C   0  0  0  0  0  0  0  0  0  0  0  0
   26.4325    6.3557   53.1390 C   0  0  0  0  0  0  0  0  0  0  0  0
   25.0453    6.8487   53.4264 C   0  0  0  0  0  0  0  0  0  0  0  0
   23.5444    6.5636   53.0162 C   0  0  0  0  0  0  0  0  0  0  0  0
   23.0490    5.5277   52.0511 C   0  0  0  0  0  0  0  0  0  0  0  0
   21.5541    5.6328   51.9852 N   0  0  0  0  0  0  0  0  0  0  0  0
   21.1256    6.7336   52.9097 C   0  0  0  0  0  0  0  0  0  0  0  0
   19.7148    7.1807   53.1540 O   0  0  0  0  0  0  0  0  0  0  0  0
   22.3557    7.3090   53.5469 C   0  0  0  0  0  0  0  0  0  0  0  0
   22.5470    8.4152   54.5417 C   0  0  0  0  0  0  0  0  0  0  0  0
   21.6425    9.3590   55.2773 C   0  0  0  0  0  0  0  0  0  0  0  0
   20.1524    9.5311   55.2710 C   0  0  0  0  0  0  0  0  0  0  0  0
   19.5152   10.5828   56.1300 C   0  0  0  0  0  0  0  0  0  0  0  0
   20.3681   11.4624   56.9953 C   0  0  0  0  0  0  0  0  0  0  0  0
   21.8582   11.2903   57.0016 C   0  0  0  0  0  0  0  0  0  0  0  0
   22.4954   10.2387   56.1426 C   0  0  0  0  0  0  0  0  0  0  0  0
   23.9270    9.8385   55.9418 N   0  0  0  0  0  0  0  0  0  0  0  0
   23.9589    8.7116   54.9524 C   0  0  0  0  0  0  0  0  0  0  0  0
   25.1476    7.9663   54.4217 C   0  0  0  0  0  0  0  0  0  0  0  0
   20.6470    4.7858   51.1429 H   0  0  0  0  0  0  0  0  0  0  0  0
   28.6400   10.7932   59.0053 C   0  0  0  0  0  0  0  0  0  0  0  0
   28.4912   11.1118   57.5471 N   0  0  0  0  0  0  0  0  0  0  0  0
   29.0498   12.1422   57.2269 H   0  0  0  0  0  0  0  0  0  0  0  0
 32 33  1  0  0  0
 33  1  1  0  0  0
  1  2  1  0  0  0
  2  3  1  0  0  0
  3  4  1  0  0  0
  4  5  1  0  0  0
  5  6  1  0  0  0
  5  7  1  0  0  0
  7  8  1  0  0  0
  8  9  2  0  0  0
  9 10  1  0  0  0
 10 11  2  0  0  0
 11 12  1  0  0  0
 12 13  2  0  0  0
 13 14  1  0  0  0
 14 15  2  0  0  0
 15 16  1  0  0  0
 16 17  1  0  0  0
 17 18  1  0  0  0
 18 19  2  0  0  0
 18 20  1  0  0  0
 20 21  2  0  0  0
 21 22  1  0  0  0
 22 23  2  0  0  0
 23 24  1  0  0  0
 24 25  2  0  0  0
 25 26  1  0  0  0
 26 27  2  0  0  0
 27 28  1  0  0  0
 28 29  1  0  0  0
 29 30  2  0  0  0
  5  1  1  0  0  0
 30  7  1  0  0  0
 28  3  1  0  0  0
 13  8  1  0  0  0
 30 14  1  0  0  0
 20 15  1  0  0  0
 29 21  1  0  0  0
 27 22  1  0  0  0
 33 34  1  0  0  0
 17 31  1  0  0  0
M  END
> <minimizedAffinity>
83.68156

> <CNNscore>
0.2814789116

> <CNNaffinity>
5.7802076340

> <CNN_VS>
1.6270065308

> <CNNaffinity_variance>
0.8689144850

$$$$
[H]c1c([H])c([H])c2c(c1[H])c1c3c(c4c5c([H])c([H])c([H])c([H])c5n5c4c1n2[C@@]1([H])O[C@@]5(C([H])([H])[H])[C@]([H])(N([H])C([H])([H])[H])C1([H])[H])C([H])([H])N([H])C3=O


 34 41  0  0  0  0  0  0  0  0999 V2000
   21.0201    5.6160   52.9950 C   0  0  0  0  0  0  0  0  0  0  0  0
   22.1373    4.7844   52.4379 C   0  0  0  0  0  0  0  0  0  0  0  0
   23.4345    5.4102   52.8571 C   0  0  0  0  0  0  0  0  0  0  0  0
   23.1190    6.6285   53.6733 O   0  0  0  0  0  0  0  0  0  0  0  0
   21.6268    6.7557   53.7585 C   0  0  0  0  0  0  0  0  0  0  0  0
   20.8736    7.8334   54.4805 C   0  0  0  0  0  0  0  0  0  0  0  0
   22.3540    7.8456   54.4887 N   0  0  0  0  0  0  0  0  0  0  0  0
   21.6598    8.9503   55.2288 C   0  0  0  0  0  0  0  0  0  0  0  0
   20.2071    9.2608   55.4368 C   0  0  0  0  0  0  0  0  0  0  0  0
   19.8045   10.4614   56.2410 C   0  0  0  0  0  0  0  0  0  0  0  0
   20.8545   11.3512   56.8372 C   0  0  0  0  0  0  0  0  0  0  0  0
   22.3072   11.0407   56.6291 C   0  0  0  0  0  0  0  0  0  0  0  0
   22.7098    9.8402   55.8249 C   0  0  0  0  0  0  0  0  0  0  0  0
   24.0531    9.2856   55.4533 C   0  0  0  0  0  0  0  0  0  0  0  0
   25.5922    9.5890   55.6566 C   0  0  0  0  0  0  0  0  0  0  0  0
   26.1990   10.7287   56.4201 C   0  0  0  0  0  0  0  0  0  0  0  0
   27.6911   10.6015   56.3349 N   0  0  0  0  0  0  0  0  0  0  0  0
   28.0066    9.3832   55.5187 C   0  0  0  0  0  0  0  0  0  0  0  0
   29.3784    8.8791   55.1810 O   0  0  0  0  0  0  0  0  0  0  0  0
   26.7095    8.7573   55.0994 C   0  0  0  0  0  0  0  0  0  0  0  0
   26.4012    7.5377   54.2824 C   0  0  0  0  0  0  0  0  0  0  0  0
   27.2118    6.4892   53.5800 C   0  0  0  0  0  0  0  0  0  0  0  0
   28.6921    6.2881   53.4452 C   0  0  0  0  0  0  0  0  0  0  0  0
   29.2227    5.1224   52.6644 C   0  0  0  0  0  0  0  0  0  0  0  0
   28.2729    4.1579   52.0182 C   0  0  0  0  0  0  0  0  0  0  0  0
   26.7925    4.3590   52.1529 C   0  0  0  0  0  0  0  0  0  0  0  0
   26.2620    5.5247   52.9338 C   0  0  0  0  0  0  0  0  0  0  0  0
   24.8643    5.9771   53.2369 N   0  0  0  0  0  0  0  0  0  0  0  0
   24.9504    7.2212   54.0704 C   0  0  0  0  0  0  0  0  0  0  0  0
   23.8332    8.0528   54.6275 C   0  0  0  0  0  0  0  0  0  0  0  0
   28.6921   11.5296   56.9566 H   0  0  0  0  0  0  0  0  0  0  0  0
   19.5204    3.4978   53.1162 C   0  0  0  0  0  0  0  0  0  0  0  0
   20.1414    4.6060   52.3184 N   0  0  0  0  0  0  0  0  0  0  0  0
   19.8487    4.5641   51.1399 H   0  0  0  0  0  0  0  0  0  0  0  0
 32 33  1  0  0  0
 33  1  1  0  0  0
  1  2  1  0  0  0
  2  3  1  0  0  0
  3  4  1  0  0  0
  4  5  1  0  0  0
  5  6  1  0  0  0
  5  7  1  0  0  0
  7  8  1  0  0  0
  8  9  2  0  0  0
  9 10  1  0  0  0
 10 11  2  0  0  0
 11 12  1  0  0  0
 12 13  2  0  0  0
 13 14  1  0  0  0
 14 15  2  0  0  0
 15 16  1  0  0  0
 16 17  1  0  0  0
 17 18  1  0  0  0
 18 19  2  0  0  0
 18 20  1  0  0  0
 20 21  2  0  0  0
 21 22  1  0  0  0
 22 23  2  0  0  0
 23 24  1  0  0  0
 24 25  2  0  0  0
 25 26  1  0  0  0
 26 27  2  0  0  0
 27 28  1  0  0  0
 28 29  1  0  0  0
 29 30  2  0  0  0
  5  1  1  0  0  0
 30  7  1  0  0  0
 28  3  1  0  0  0
 13  8  1  0  0  0
 30 14  1  0  0  0
 20 15  1  0  0  0
 29 21  1  0  0  0
 27 22  1  0  0  0
 33 34  1  0  0  0
 17 31  1  0  0  0
M  END
> <minimizedAffinity>
89.41876

> <CNNscore>
0.1661675423

> <CNNaffinity>
5.4286289215

> <CNN_VS>
0.9020619392

> <CNNaffinity_variance>
1.3969662189

$$$$
[H]c1c([H])c([H])c2c(c1[H])c1c3c(c4c5c([H])c([H])c([H])c([H])c5n5c4c1n2[C@@]1([H])O[C@@]5(C([H])([H])[H])[C@]([H])(N([H])C([H])([H])[H])C1([H])[H])C([H])([H])N([H])C3=O


 34 41  0  0  0  0  0  0  0  0999 V2000
   25.9352    4.2854   52.6962 C   0  0  0  0  0  0  0  0  0  0  0  0
   24.5351    3.8102   52.4435 C   0  0  0  0  0  0  0  0  0  0  0  0
   23.5907    4.8547   52.9605 C   0  0  0  0  0  0  0  0  0  0  0  0
   24.4072    5.9754   53.5327 O   0  0  0  0  0  0  0  0  0  0  0  0
   25.8562    5.6235   53.3694 C   0  0  0  0  0  0  0  0  0  0  0  0
   27.0215    6.4625   53.8031 C   0  0  0  0  0  0  0  0  0  0  0  0
   25.6432    6.9504   54.0356 N   0  0  0  0  0  0  0  0  0  0  0  0
   26.7650    7.8355   54.4921 C   0  0  0  0  0  0  0  0  0  0  0  0
   28.2556    7.6801   54.4281 C   0  0  0  0  0  0  0  0  0  0  0  0
   29.1459    8.7549   54.9780 C   0  0  0  0  0  0  0  0  0  0  0  0
   28.5456    9.9849   55.5917 C   0  0  0  0  0  0  0  0  0  0  0  0
   27.0550   10.1402   55.6556 C   0  0  0  0  0  0  0  0  0  0  0  0
   26.1648    9.0654   55.1058 C   0  0  0  0  0  0  0  0  0  0  0  0
   24.6719    8.9407   55.0287 C   0  0  0  0  0  0  0  0  0  0  0  0
   23.3634    9.7395   55.4185 C   0  0  0  0  0  0  0  0  0  0  0  0
   23.2844   11.0777   56.0917 C   0  0  0  0  0  0  0  0  0  0  0  0
   21.8354   11.4296   56.2550 N   0  0  0  0  0  0  0  0  0  0  0  0
   21.0189   10.3089   55.6828 C   0  0  0  0  0  0  0  0  0  0  0  0
   19.5211   10.2440   55.6358 O   0  0  0  0  0  0  0  0  0  0  0  0
   21.9633    9.2644   55.1658 C   0  0  0  0  0  0  0  0  0  0  0  0
   21.7291    7.9420   54.4976 C   0  0  0  0  0  0  0  0  0  0  0  0
   20.5227    7.1507   54.0875 C   0  0  0  0  0  0  0  0  0  0  0  0
   19.0531    7.4246   54.2114 C   0  0  0  0  0  0  0  0  0  0  0  0
   18.0582    6.4259   53.6989 C   0  0  0  0  0  0  0  0  0  0  0  0
   18.5328    5.1533   53.0625 C   0  0  0  0  0  0  0  0  0  0  0  0
   20.0024    4.8793   52.9386 C   0  0  0  0  0  0  0  0  0  0  0  0
   20.9972    5.8781   53.4511 C   0  0  0  0  0  0  0  0  0  0  0  0
   22.4972    5.8828   53.4678 N   0  0  0  0  0  0  0  0  0  0  0  0
   22.9495    7.1584   54.1146 C   0  0  0  0  0  0  0  0  0  0  0  0
   24.3496    7.6335   54.3673 C   0  0  0  0  0  0  0  0  0  0  0  0
   21.2974   12.6821   56.8807 H   0  0  0  0  0  0  0  0  0  0  0  0
   26.0028    1.6883   52.7202 C   0  0  0  0  0  0  0  0  0  0  0  0
   26.3239    2.9899   52.0475 N   0  0  0  0  0  0  0  0  0  0  0  0
   26.8985    2.8469   50.9865 H   0  0  0  0  0  0  0  0  0  0  0  0
 32 33  1  0  0  0
 33  1  1  0  0  0
  1  2  1  0  0  0
  2  3  1  0  0  0
  3  4  1  0  0  0
  4  5  1  0  0  0
  5  6  1  0  0  0
  5  7  1  0  0  0
  7  8  1  0  0  0
  8  9  2  0  0  0
  9 10  1  0  0  0
 10 11  2  0  0  0
 11 12  1  0  0  0
 12 13  2  0  0  0
 13 14  1  0  0  0
 14 15  2  0  0  0
 15 16  1  0  0  0
 16 17  1  0  0  0
 17 18  1  0  0  0
 18 19  2  0  0  0
 18 20  1  0  0  0
 20 21  2  0  0  0
 21 22  1  0  0  0
 22 23  2  0  0  0
 23 24  1  0  0  0
 24 25  2  0  0  0
 25 26  1  0  0  0
 26 27  2  0  0  0
 27 28  1  0  0  0
 28 29  1  0  0  0
 29 30  2  0  0  0
  5  1  1  0  0  0
 30  7  1  0  0  0
 28  3  1  0  0  0
 13  8  1  0  0  0
 30 14  1  0  0  0
 20 15  1  0  0  0
 29 21  1  0  0  0
 27 22  1  0  0  0
 33 34  1  0  0  0
 17 31  1  0  0  0
M  END
> <minimizedAffinity>
79.04810

> <CNNscore>
0.1477153897

> <CNNaffinity>
5.4053487778

> <CNN_VS>
0.7984532118

> <CNNaffinity_variance>
0.4516372085

$$$$
[H]c1c([H])c([H])c2c(c1[H])c1c3c(c4c5c([H])c([H])c([H])c([H])c5n5c4c1n2[C@@]1([H])O[C@@]5(C([H])([H])[H])[C@]([H])(N([H])C([H])([H])[H])C1([H])[H])C([H])([H])N([H])C3=O


 34 41  0  0  0  0  0  0  0  0999 V2000
   19.6690    5.2794   53.5765 C   0  0  0  0  0  0  0  0  0  0  0  0
   20.4339    4.0616   53.1502 C   0  0  0  0  0  0  0  0  0  0  0  0
   21.8965    4.3902   53.2044 C   0  0  0  0  0  0  0  0  0  0  0  0
   22.0355    5.8112   53.6642 O   0  0  0  0  0  0  0  0  0  0  0  0
   20.6589    6.3608   53.8941 C   0  0  0  0  0  0  0  0  0  0  0  0
   20.3299    7.7481   54.3599 C   0  0  0  0  0  0  0  0  0  0  0  0
   21.7456    7.3545   54.1796 N   0  0  0  0  0  0  0  0  0  0  0  0
   21.4826    8.7552   54.6474 C   0  0  0  0  0  0  0  0  0  0  0  0
   20.2098    9.4947   54.9356 C   0  0  0  0  0  0  0  0  0  0  0  0
   20.2593   10.9202   55.4002 C   0  0  0  0  0  0  0  0  0  0  0  0
   21.5815   11.6060   55.5764 C   0  0  0  0  0  0  0  0  0  0  0  0
   22.8544   10.8665   55.2881 C   0  0  0  0  0  0  0  0  0  0  0  0
   22.8048    9.4411   54.8236 C   0  0  0  0  0  0  0  0  0  0  0  0
   23.8852    8.4643   54.4647 C   0  0  0  0  0  0  0  0  0  0  0  0
   25.4620    8.3734   54.3776 C   0  0  0  0  0  0  0  0  0  0  0  0
   26.4519    9.4547   54.6952 C   0  0  0  0  0  0  0  0  0  0  0  0
   27.8285    8.9052   54.4653 N   0  0  0  0  0  0  0  0  0  0  0  0
   27.6895    7.4841   54.0055 C   0  0  0  0  0  0  0  0  0  0  0  0
   28.8153    6.5549   53.6606 O   0  0  0  0  0  0  0  0  0  0  0  0
   26.2269    7.1554   53.9513 C   0  0  0  0  0  0  0  0  0  0  0  0
   25.4928    5.9045   53.5688 C   0  0  0  0  0  0  0  0  0  0  0  0
   25.8871    4.5334   53.1059 C   0  0  0  0  0  0  0  0  0  0  0  0
   27.2257    3.9060   52.8520 C   0  0  0  0  0  0  0  0  0  0  0  0
   27.3108    2.4836   52.3836 C   0  0  0  0  0  0  0  0  0  0  0  0
   26.0572    1.6884   52.1691 C   0  0  0  0  0  0  0  0  0  0  0  0
   24.7184    2.3157   52.4231 C   0  0  0  0  0  0  0  0  0  0  0  0
   24.6335    3.7381   52.8914 C   0  0  0  0  0  0  0  0  0  0  0  0
   23.4643    4.6179   53.2218 N   0  0  0  0  0  0  0  0  0  0  0  0
   23.9954    5.9568   53.6405 C   0  0  0  0  0  0  0  0  0  0  0  0
   23.2305    7.1747   54.0667 C   0  0  0  0  0  0  0  0  0  0  0  0
   29.1178    9.6464   54.6608 H   0  0  0  0  0  0  0  0  0  0  0  0
   17.6440    3.9371   54.4971 C   0  0  0  0  0  0  0  0  0  0  0  0
   18.4668    4.4149   53.3374 N   0  0  0  0  0  0  0  0  0  0  0  0
   18.0462    4.0274   52.2654 H   0  0  0  0  0  0  0  0  0  0  0  0
 32 33  1  0  0  0
 33  1  1  0  0  0
  1  2  1  0  0  0
  2  3  1  0  0  0
  3  4  1  0  0  0
  4  5  1  0  0  0
  5  6  1  0  0  0
  5  7  1  0  0  0
  7  8  1  0  0  0
  8  9  2  0  0  0
  9 10  1  0  0  0
 10 11  2  0  0  0
 11 12  1  0  0  0
 12 13  2  0  0  0
 13 14  1  0  0  0
 14 15  2  0  0  0
 15 16  1  0  0  0
 16 17  1  0  0  0
 17 18  1  0  0  0
 18 19  2  0  0  0
 18 20  1  0  0  0
 20 21  2  0  0  0
 21 22  1  0  0  0
 22 23  2  0  0  0
 23 24  1  0  0  0
 24 25  2  0  0  0
 25 26  1  0  0  0
 26 27  2  0  0  0
 27 28  1  0  0  0
 28 29  1  0  0  0
 29 30  2  0  0  0
  5  1  1  0  0  0
 30  7  1  0  0  0
 28  3  1  0  0  0
 13  8  1  0  0  0
 30 14  1  0  0  0
 20 15  1  0  0  0
 29 21  1  0  0  0
 27 22  1  0  0  0
 33 34  1  0  0  0
 17 31  1  0  0  0
M  END
> <minimizedAffinity>
83.67155

> <CNNscore>
0.1452823430

> <CNNaffinity>
5.7634363174

> <CNN_VS>
0.8373255134

> <CNNaffinity_variance>
1.1090208292

$$$$
[H]c1c([H])c([H])c2c(c1[H])c1c3c(c4c5c([H])c([H])c([H])c([H])c5n5c4c1n2[C@@]1([H])O[C@@]5(C([H])([H])[H])[C@]([H])(N([H])C([H])([H])[H])C1([H])[H])C([H])([H])N([H])C3=O


 34 41  0  0  0  0  0  0  0  0999 V2000
   25.6171    8.6432   54.1386 C   0  0  0  0  0  0  0  0  0  0  0  0
   26.0744    7.6850   55.1981 C   0  0  0  0  0  0  0  0  0  0  0  0
   24.9546    6.7244   55.4689 C   0  0  0  0  0  0  0  0  0  0  0  0
   23.8052    7.0890   54.5767 O   0  0  0  0  0  0  0  0  0  0  0  0
   24.2147    8.2749   53.7546 C   0  0  0  0  0  0  0  0  0  0  0  0
   23.3700    8.9703   52.7285 C   0  0  0  0  0  0  0  0  0  0  0  0
   22.8201    7.8070   53.4607 N   0  0  0  0  0  0  0  0  0  0  0  0
   21.9260    8.4586   52.4478 C   0  0  0  0  0  0  0  0  0  0  0  0
   22.1310    9.6310   51.5349 C   0  0  0  0  0  0  0  0  0  0  0  0
   21.0317   10.0624   50.6098 C   0  0  0  0  0  0  0  0  0  0  0  0
   19.7276    9.3215   50.5979 C   0  0  0  0  0  0  0  0  0  0  0  0
   19.5227    8.1491   51.5109 C   0  0  0  0  0  0  0  0  0  0  0  0
   20.6219    7.7177   52.4359 C   0  0  0  0  0  0  0  0  0  0  0  0
   20.7099    6.6081   53.4414 C   0  0  0  0  0  0  0  0  0  0  0  0
   19.8367    5.4264   54.0274 C   0  0  0  0  0  0  0  0  0  0  0  0
   18.4343    5.0580   53.6433 C   0  0  0  0  0  0  0  0  0  0  0  0
   18.0248    3.8721   54.4655 N   0  0  0  0  0  0  0  0  0  0  0  0
   19.1742    3.5075   55.3577 C   0  0  0  0  0  0  0  0  0  0  0  0
   19.1994    2.3803   56.3470 O   0  0  0  0  0  0  0  0  0  0  0  0
   20.2941    4.4681   55.0870 C   0  0  0  0  0  0  0  0  0  0  0  0
   21.6711    4.5940   55.6683 C   0  0  0  0  0  0  0  0  0  0  0  0
   22.4646    3.8562   56.7054 C   0  0  0  0  0  0  0  0  0  0  0  0
   22.1362    2.6725   57.5663 C   0  0  0  0  0  0  0  0  0  0  0  0
   23.1529    2.1438   58.5342 C   0  0  0  0  0  0  0  0  0  0  0  0
   24.4980    2.7987   58.6412 C   0  0  0  0  0  0  0  0  0  0  0  0
   24.8266    3.9825   57.7804 C   0  0  0  0  0  0  0  0  0  0  0  0
   23.8099    4.5111   56.8125 C   0  0  0  0  0  0  0  0  0  0  0  0
   23.8476    5.6538   55.8414 N   0  0  0  0  0  0  0  0  0  0  0  0
   22.5258    5.7050   55.1343 C   0  0  0  0  0  0  0  0  0  0  0  0
   22.0685    6.6633   54.0748 C   0  0  0  0  0  0  0  0  0  0  0  0
   16.6988    3.1734   54.4060 H   0  0  0  0  0  0  0  0  0  0  0  0
   28.1574    8.3497   54.5973 C   0  0  0  0  0  0  0  0  0  0  0  0
   26.9836    9.2379   54.3086 N   0  0  0  0  0  0  0  0  0  0  0  0
   27.2834   10.4133   54.2393 H   0  0  0  0  0  0  0  0  0  0  0  0
 32 33  1  0  0  0
 33  1  1  0  0  0
  1  2  1  0  0  0
  2  3  1  0  0  0
  3  4  1  0  0  0
  4  5  1  0  0  0
  5  6  1  0  0  0
  5  7  1  0  0  0
  7  8  1  0  0  0
  8  9  2  0  0  0
  9 10  1  0  0  0
 10 11  2  0  0  0
 11 12  1  0  0  0
 12 13  2  0  0  0
 13 14  1  0  0  0
 14 15  2  0  0  0
 15 16  1  0  0  0
 16 17  1  0  0  0
 17 18  1  0  0  0
 18 19  2  0  0  0
 18 20  1  0  0  0
 20 21  2  0  0  0
 21 22  1  0  0  0
 22 23  2  0  0  0
 23 24  1  0  0  0
 24 25  2  0  0  0
 25 26  1  0  0  0
 26 27  2  0  0  0
 27 28  1  0  0  0
 28 29  1  0  0  0
 29 30  2  0  0  0
  5  1  1  0  0  0
 30  7  1  0  0  0
 28  3  1  0  0  0
 13  8  1  0  0  0
 30 14  1  0  0  0
 20 15  1  0  0  0
 29 21  1  0  0  0
 27 22  1  0  0  0
 33 34  1  0  0  0
 17 31  1  0  0  0
M  END
> <minimizedAffinity>
86.26914

> <CNNscore>
0.1186903641

> <CNNaffinity>
5.6265382767

> <CNN_VS>
0.6678158641

> <CNNaffinity_variance>
1.0104739666

$$$$
[H]c1c([H])c([H])c2c(c1[H])c1c3c(c4c5c([H])c([H])c([H])c([H])c5n5c4c1n2[C@@]1([H])O[C@@]5(C([H])([H])[H])[C@]([H])(N([H])C([H])([H])[H])C1([H])[H])C([H])([H])N([H])C3=O


 34 41  0  0  0  0  0  0  0  0999 V2000
   21.9034   10.5055   55.2649 C   0  0  0  0  0  0  0  0  0  0  0  0
   20.5387    9.9081   55.0900 C   0  0  0  0  0  0  0  0  0  0  0  0
   20.7089    8.4851   54.6471 C   0  0  0  0  0  0  0  0  0  0  0  0
   22.1789    8.2030   54.5484 O   0  0  0  0  0  0  0  0  0  0  0  0
   22.9171    9.4517   54.9302 C   0  0  0  0  0  0  0  0  0  0  0  0
   24.4074    9.6175   54.9703 C   0  0  0  0  0  0  0  0  0  0  0  0
   23.8276    8.3152   54.5706 N   0  0  0  0  0  0  0  0  0  0  0  0
   25.3240    8.4170   54.5908 C   0  0  0  0  0  0  0  0  0  0  0  0
   26.2486    9.5471   54.9344 C   0  0  0  0  0  0  0  0  0  0  0  0
   27.7338    9.3495   54.8617 C   0  0  0  0  0  0  0  0  0  0  0  0
   28.2943    8.0220   54.4455 C   0  0  0  0  0  0  0  0  0  0  0  0
   27.3697    6.8919   54.1019 C   0  0  0  0  0  0  0  0  0  0  0  0
   25.8846    7.0894   54.1746 C   0  0  0  0  0  0  0  0  0  0  0  0
   24.7346    6.1671   53.8971 C   0  0  0  0  0  0  0  0  0  0  0  0
   24.4524    4.6799   53.4378 C   0  0  0  0  0  0  0  0  0  0  0  0
   25.4661    3.6261   53.1031 C   0  0  0  0  0  0  0  0  0  0  0  0
   24.7278    2.3774   52.7213 N   0  0  0  0  0  0  0  0  0  0  0  0
   23.2579    2.6595   52.8200 C   0  0  0  0  0  0  0  0  0  0  0  0
   22.1523    1.6889   52.5273 O   0  0  0  0  0  0  0  0  0  0  0  0
   23.0876    4.0825   53.2629 C   0  0  0  0  0  0  0  0  0  0  0  0
   21.8662    4.9114   53.5294 C   0  0  0  0  0  0  0  0  0  0  0  0
   20.3852    4.6820   53.4695 C   0  0  0  0  0  0  0  0  0  0  0  0
   19.5701    3.4776   53.1020 C   0  0  0  0  0  0  0  0  0  0  0  0
   18.0721    3.5471   53.1350 C   0  0  0  0  0  0  0  0  0  0  0  0
   17.3891    4.8210   53.5355 C   0  0  0  0  0  0  0  0  0  0  0  0
   18.2041    6.0255   53.9031 C   0  0  0  0  0  0  0  0  0  0  0  0
   19.7021    5.9560   53.8700 C   0  0  0  0  0  0  0  0  0  0  0  0
   20.7611    6.9728   54.1775 N   0  0  0  0  0  0  0  0  0  0  0  0
   22.0986    6.3273   53.9670 C   0  0  0  0  0  0  0  0  0  0  0  0
   23.4633    6.9247   54.1419 C   0  0  0  0  0  0  0  0  0  0  0  0
   25.3502    1.0753   52.3125 H   0  0  0  0  0  0  0  0  0  0  0  0
   20.3580   12.4919   54.6200 C   0  0  0  0  0  0  0  0  0  0  0  0
   21.1418   11.7380   55.6532 N   0  0  0  0  0  0  0  0  0  0  0  0
   21.0715   12.2361   56.7592 H   0  0  0  0  0  0  0  0  0  0  0  0
 32 33  1  0  0  0
 33  1  1  0  0  0
  1  2  1  0  0  0
  2  3  1  0  0  0
  3  4  1  0  0  0
  4  5  1  0  0  0
  5  6  1  0  0  0
  5  7  1  0  0  0
  7  8  1  0  0  0
  8  9  2  0  0  0
  9 10  1  0  0  0
 10 11  2  0  0  0
 11 12  1  0  0  0
 12 13  2  0  0  0
 13 14  1  0  0  0
 14 15  2  0  0  0
 15 16  1  0  0  0
 16 17  1  0  0  0
 17 18  1  0  0  0
 18 19  2  0  0  0
 18 20  1  0  0  0
 20 21  2  0  0  0
 21 22  1  0  0  0
 22 23  2  0  0  0
 23 24  1  0  0  0
 24 25  2  0  0  0
 25 26  1  0  0  0
 26 27  2  0  0  0
 27 28  1  0  0  0
 28 29  1  0  0  0
 29 30  2  0  0  0
  5  1  1  0  0  0
 30  7  1  0  0  0
 28  3  1  0  0  0
 13  8  1  0  0  0
 30 14  1  0  0  0
 20 15  1  0  0  0
 29 21  1  0  0  0
 27 22  1  0  0  0
 33 34  1  0  0  0
 17 31  1  0  0  0
M  END
> <minimizedAffinity>
79.64358

> <CNNscore>
0.0927492231

> <CNNaffinity>
5.5613498688

> <CNN_VS>
0.5158109069

> <CNNaffinity_variance>
0.3700759113

$$$$
[H]c1c([H])c([H])c2c(c1[H])c1c3c(c4c5c([H])c([H])c([H])c([H])c5n5c4c1n2[C@@]1([H])O[C@@]5(C([H])([H])[H])[C@]([H])(N([H])C([H])([H])[H])C1([H])[H])C([H])([H])N([H])C3=O


 34 41  0  0  0  0  0  0  0  0999 V2000
   26.5440    9.2204   55.0930 C   0  0  0  0  0  0  0  0  0  0  0  0
   27.2014    7.9541   54.6303 C   0  0  0  0  0  0  0  0  0  0  0  0
   26.1227    6.9865   54.2428 C   0  0  0  0  0  0  0  0  0  0  0  0
   24.7985    7.6549   54.4659 O   0  0  0  0  0  0  0  0  0  0  0  0
   25.0589    9.0355   54.9914 C   0  0  0  0  0  0  0  0  0  0  0  0
   24.0170   10.0526   55.3520 C   0  0  0  0  0  0  0  0  0  0  0  0
   23.5985    8.7266   54.8437 N   0  0  0  0  0  0  0  0  0  0  0  0
   22.5093    9.6993   55.1865 C   0  0  0  0  0  0  0  0  0  0  0  0
   22.5467   11.1024   55.7156 C   0  0  0  0  0  0  0  0  0  0  0  0
   21.2669   11.8434   55.9671 C   0  0  0  0  0  0  0  0  0  0  0  0
   19.9499   11.1814   55.6894 C   0  0  0  0  0  0  0  0  0  0  0  0
   19.9126    9.7783   55.1603 C   0  0  0  0  0  0  0  0  0  0  0  0
   21.1923    9.0373   54.9088 C   0  0  0  0  0  0  0  0  0  0  0  0
   21.4674    7.6554   54.3944 C   0  0  0  0  0  0  0  0  0  0  0  0
   20.6958    6.3686   53.8933 C   0  0  0  0  0  0  0  0  0  0  0  0
   19.2107    6.1837   53.7917 C   0  0  0  0  0  0  0  0  0  0  0  0
   18.9503    4.8031   53.2662 N   0  0  0  0  0  0  0  0  0  0  0  0
   20.2745    4.1347   53.0431 C   0  0  0  0  0  0  0  0  0  0  0  0
   20.4833    2.7431   52.5236 O   0  0  0  0  0  0  0  0  0  0  0  0
   21.3533    5.1022   53.4306 C   0  0  0  0  0  0  0  0  0  0  0  0
   22.8493    4.9937   53.4219 C   0  0  0  0  0  0  0  0  0  0  0  0
   23.8417    3.9343   53.0444 C   0  0  0  0  0  0  0  0  0  0  0  0
   23.6702    2.5409   52.5160 C   0  0  0  0  0  0  0  0  0  0  0  0
   24.8746    1.6960   52.2238 C   0  0  0  0  0  0  0  0  0  0  0  0
   26.2506    2.2444   52.4599 C   0  0  0  0  0  0  0  0  0  0  0  0
   26.4222    3.6378   52.9883 C   0  0  0  0  0  0  0  0  0  0  0  0
   25.2178    4.4827   53.2805 C   0  0  0  0  0  0  0  0  0  0  0  0
   25.0758    5.8812   53.8040 N   0  0  0  0  0  0  0  0  0  0  0  0
   23.6121    6.1970   53.8914 C   0  0  0  0  0  0  0  0  0  0  0  0
   22.9546    7.4634   54.3541 C   0  0  0  0  0  0  0  0  0  0  0  0
   17.6025    4.1972   53.0091 H   0  0  0  0  0  0  0  0  0  0  0  0
   29.1018    8.7752   54.9955 C   0  0  0  0  0  0  0  0  0  0  0  0
   27.9532    9.6906   55.3004 N   0  0  0  0  0  0  0  0  0  0  0  0
   28.3086   10.7791   55.7066 H   0  0  0  0  0  0  0  0  0  0  0  0
 32 33  1  0  0  0
 33  1  1  0  0  0
  1  2  1  0  0  0
  2  3  1  0  0  0
  3  4  1  0  0  0
  4  5  1  0  0  0
  5  6  1  0  0  0
  5  7  1  0  0  0
  7  8  1  0  0  0
  8  9  2  0  0  0
  9 10  1  0  0  0
 10 11  2  0  0  0
 11 12  1  0  0  0
 12 13  2  0  0  0
 13 14  1  0  0  0
 14 15  2  0  0  0
 15 16  1  0  0  0
 16 17  1  0  0  0
 17 18  1  0  0  0
 18 19  2  0  0  0
 18 20  1  0  0  0
 20 21  2  0  0  0
 21 22  1  0  0  0
 22 23  2  0  0  0
 23 24  1  0  0  0
 24 25  2  0  0  0
 25 26  1  0  0  0
 26 27  2  0  0  0
 27 28  1  0  0  0
 28 29  1  0  0  0
 29 30  2  0  0  0
  5  1  1  0  0  0
 30  7  1  0  0  0
 28  3  1  0  0  0
 13  8  1  0  0  0
 30 14  1  0  0  0
 20 15  1  0  0  0
 29 21  1  0  0  0
 27 22  1  0  0  0
 33 34  1  0  0  0
 17 31  1  0  0  0
M  END
> <minimizedAffinity>
88.19944

> <CNNscore>
0.0903813615

> <CNNaffinity>
5.7484383583

> <CNN_VS>
0.5195516944

> <CNNaffinity_variance>
1.0763411522

$$$$
[H]c1c([H])c([H])c2c(c1[H])c1c3c(c4c5c([H])c([H])c([H])c([H])c5n5c4c1n2[C@@]1([H])O[C@@]5(C([H])([H])[H])[C@]([H])(N([H])C([H])([H])[H])C1([H])[H])C([H])([H])N([H])C3=O


 34 41  0  0  0  0  0  0  0  0999 V2000
   28.3452    6.4910   53.7374 C   0  0  0  0  0  0  0  0  0  0  0  0
   27.3723    5.5184   53.1396 C   0  0  0  0  0  0  0  0  0  0  0  0
   25.9858    6.0086   53.4353 C   0  0  0  0  0  0  0  0  0  0  0  0
   26.1019    7.2843   54.2159 O   0  0  0  0  0  0  0  0  0  0  0  0
   27.5601    7.5823   54.4026 C   0  0  0  0  0  0  0  0  0  0  0  0
   28.1326    8.7643   55.1272 C   0  0  0  0  0  0  0  0  0  0  0  0
   26.6636    8.6094   55.0281 N   0  0  0  0  0  0  0  0  0  0  0  0
   27.1733    9.8123   55.7653 C   0  0  0  0  0  0  0  0  0  0  0  0
   28.5627   10.2925   56.0632 C   0  0  0  0  0  0  0  0  0  0  0  0
   28.7681   11.5599   56.8390 C   0  0  0  0  0  0  0  0  0  0  0  0
   27.5840   12.3469   57.3168 C   0  0  0  0  0  0  0  0  0  0  0  0
   26.1945   11.8666   57.0189 C   0  0  0  0  0  0  0  0  0  0  0  0
   25.9892   10.5993   56.2431 C   0  0  0  0  0  0  0  0  0  0  0  0
   24.7475    9.8830   55.8013 C   0  0  0  0  0  0  0  0  0  0  0  0
   23.1733   10.0178   55.8790 C   0  0  0  0  0  0  0  0  0  0  0  0
   22.3882   11.1092   56.5442 C   0  0  0  0  0  0  0  0  0  0  0  0
   20.9300   10.8111   56.3575 N   0  0  0  0  0  0  0  0  0  0  0  0
   20.8139    9.5354   55.5769 C   0  0  0  0  0  0  0  0  0  0  0  0
   19.5358    8.8673   55.1645 O   0  0  0  0  0  0  0  0  0  0  0  0
   22.2004    9.0451   55.2812 C   0  0  0  0  0  0  0  0  0  0  0  0
   22.7026    7.8387   54.5448 C   0  0  0  0  0  0  0  0  0  0  0  0
   22.0685    6.6799   53.8342 C   0  0  0  0  0  0  0  0  0  0  0  0
   20.6340    6.3078   53.6023 C   0  0  0  0  0  0  0  0  0  0  0  0
   20.2963    5.0616   52.8390 C   0  0  0  0  0  0  0  0  0  0  0  0
   21.3931    4.1873   52.3076 C   0  0  0  0  0  0  0  0  0  0  0  0
   22.8277    4.5592   52.5394 C   0  0  0  0  0  0  0  0  0  0  0  0
   23.1653    5.8055   53.3027 C   0  0  0  0  0  0  0  0  0  0  0  0
   24.4774    6.4240   53.6849 N   0  0  0  0  0  0  0  0  0  0  0  0
   24.1914    7.6805   54.4525 C   0  0  0  0  0  0  0  0  0  0  0  0
   25.1643    8.6531   55.0503 C   0  0  0  0  0  0  0  0  0  0  0  0
   19.7884   11.6425   56.8626 H   0  0  0  0  0  0  0  0  0  0  0  0
   29.0757    4.7633   51.9398 C   0  0  0  0  0  0  0  0  0  0  0  0
   29.3789    5.5623   53.1725 N   0  0  0  0  0  0  0  0  0  0  0  0
   30.4953    5.3597   53.6070 H   0  0  0  0  0  0  0  0  0  0  0  0
 32 33  1  0  0  0
 33  1  1  0  0  0
  1  2  1  0  0  0
  2  3  1  0  0  0
  3  4  1  0  0  0
  4  5  1  0  0  0
  5  6  1  0  0  0
  5  7  1  0  0  0
  7  8  1  0  0  0
  8  9  2  0  0  0
  9 10  1  0  0  0
 10 11  2  0  0  0
 11 12  1  0  0  0
 12 13  2  0  0  0
 13 14  1  0  0  0
 14 15  2  0  0  0
 15 16  1  0  0  0
 16 17  1  0  0  0
 17 18  1  0  0  0
 18 19  2  0  0  0
 18 20  1  0  0  0
 20 21  2  0  0  0
 21 22  1  0  0  0
 22 23  2  0  0  0
 23 24  1  0  0  0
 24 25  2  0  0  0
 25 26  1  0  0  0
 26 27  2  0  0  0
 27 28  1  0  0  0
 28 29  1  0  0  0
 29 30  2  0  0  0
  5  1  1  0  0  0
 30  7  1  0  0  0
 28  3  1  0  0  0
 13  8  1  0  0  0
 30 14  1  0  0  0
 20 15  1  0  0  0
 29 21  1  0  0  0
 27 22  1  0  0  0
 33 34  1  0  0  0
 17 31  1  0  0  0
M  END
> <minimizedAffinity>
83.83448

> <CNNscore>
0.0814414471

> <CNNaffinity>
5.1252889633

> <CNN_VS>
0.4174109399

> <CNNaffinity_variance>
0.6982239485

$$$$
[H]c1c([H])c([H])c2c(c1[H])c1c3c(c4c5c([H])c([H])c([H])c([H])c5n5c4c1n2[C@@]1([H])O[C@@]5(C([H])([H])[H])[C@]([H])(N([H])C([H])([H])[H])C1([H])[H])C([H])([H])N([H])C3=O


 34 41  0  0  0  0  0  0  0  0999 V2000
   20.5383   10.3115   55.8900 C   0  0  0  0  0  0  0  0  0  0  0  0
   21.4964   11.2859   56.5085 C   0  0  0  0  0  0  0  0  0  0  0  0
   22.8895   10.7916   56.2537 C   0  0  0  0  0  0  0  0  0  0  0  0
   22.7924    9.5116   55.4777 O   0  0  0  0  0  0  0  0  0  0  0  0
   21.3393    9.2149   55.2529 C   0  0  0  0  0  0  0  0  0  0  0  0
   20.7846    8.0297   54.5198 C   0  0  0  0  0  0  0  0  0  0  0  0
   22.2506    8.1826   54.6581 N   0  0  0  0  0  0  0  0  0  0  0  0
   21.7590    6.9764   53.9142 C   0  0  0  0  0  0  0  0  0  0  0  0
   20.3773    6.4968   53.5813 C   0  0  0  0  0  0  0  0  0  0  0  0
   20.1909    5.2253   52.8075 C   0  0  0  0  0  0  0  0  0  0  0  0
   21.3861    4.4335   52.3668 C   0  0  0  0  0  0  0  0  0  0  0  0
   22.7678    4.9131   52.6998 C   0  0  0  0  0  0  0  0  0  0  0  0
   22.9543    6.1846   53.4735 C   0  0  0  0  0  0  0  0  0  0  0  0
   24.1847    6.9013   53.9450 C   0  0  0  0  0  0  0  0  0  0  0  0
   25.7602    6.7634   53.9110 C   0  0  0  0  0  0  0  0  0  0  0  0
   26.5611    5.6668   53.2739 C   0  0  0  0  0  0  0  0  0  0  0  0
   28.0142    5.9635   53.4987 N   0  0  0  0  0  0  0  0  0  0  0  0
   28.1113    7.2434   54.2747 C   0  0  0  0  0  0  0  0  0  0  0  0
   29.3789    7.9118   54.7180 O   0  0  0  0  0  0  0  0  0  0  0  0
   26.7183    7.7379   54.5296 C   0  0  0  0  0  0  0  0  0  0  0  0
   26.1984    8.9494   55.2450 C   0  0  0  0  0  0  0  0  0  0  0  0
   26.8150   10.1112   55.9659 C   0  0  0  0  0  0  0  0  0  0  0  0
   28.2433   10.4822   56.2348 C   0  0  0  0  0  0  0  0  0  0  0  0
   28.5624   11.7324   56.9997 C   0  0  0  0  0  0  0  0  0  0  0  0
   27.4531   12.6116   57.4959 C   0  0  0  0  0  0  0  0  0  0  0  0
   26.0247   12.2408   57.2272 C   0  0  0  0  0  0  0  0  0  0  0  0
   25.7057   10.9906   56.4622 C   0  0  0  0  0  0  0  0  0  0  0  0
   24.4034   10.3721   56.0479 N   0  0  0  0  0  0  0  0  0  0  0  0
   24.7079    9.1107   55.2956 C   0  0  0  0  0  0  0  0  0  0  0  0
   23.7498    8.1362   54.6771 C   0  0  0  0  0  0  0  0  0  0  0  0
   29.1677    5.1271   53.0298 H   0  0  0  0  0  0  0  0  0  0  0  0
   18.4219   10.7295   57.3379 C   0  0  0  0  0  0  0  0  0  0  0  0
   19.4913   11.2452   56.4211 N   0  0  0  0  0  0  0  0  0  0  0  0
   19.3887   12.4343   56.1935 H   0  0  0  0  0  0  0  0  0  0  0  0
 32 33  1  0  0  0
 33  1  1  0  0  0
  1  2  1  0  0  0
  2  3  1  0  0  0
  3  4  1  0  0  0
  4  5  1  0  0  0
  5  6  1  0  0  0
  5  7  1  0  0  0
  7  8  1  0  0  0
  8  9  2  0  0  0
  9 10  1  0  0  0
 10 11  2  0  0  0
 11 12  1  0  0  0
 12 13  2  0  0  0
 13 14  1  0  0  0
 14 15  2  0  0  0
 15 16  1  0  0  0
 16 17  1  0  0  0
 17 18  1  0  0  0
 18 19  2  0  0  0
 18 20  1  0  0  0
 20 21  2  0  0  0
 21 22  1  0  0  0
 22 23  2  0  0  0
 23 24  1  0  0  0
 24 25  2  0  0  0
 25 26  1  0  0  0
 26 27  2  0  0  0
 27 28  1  0  0  0
 28 29  1  0  0  0
 29 30  2  0  0  0
  5  1  1  0  0  0
 30  7  1  0  0  0
 28  3  1  0  0  0
 13  8  1  0  0  0
 30 14  1  0  0  0
 20 15  1  0  0  0
 29 21  1  0  0  0
 27 22  1  0  0  0
 33 34  1  0  0  0
 17 31  1  0  0  0
M  END
> <minimizedAffinity>
86.66699

> <CNNscore>
0.0517828874

> <CNNaffinity>
5.1679172516

> <CNN_VS>
0.2676096857

> <CNNaffinity_variance>
0.7414000034

$$$$
[H]ON([H])C(=O)C([H])([H])C([H])([H])C([H])([H])C([H])([H])C([H])([H])C([H])([H])C(=O)N([H])c1c([H])c([H])c([H])c(-c2nnn(-c3c([H])c([H])c([H])c([H])c3[H])c2[H])c1[H]


 33 35  0  0  0  0  0  0  0  0999 V2000
   24.3136    7.4296   54.3503 C   0  0  0  0  0  0  0  0  0  0  0  0
   23.5394    6.3117   54.4565 C   0  0  0  0  0  0  0  0  0  0  0  0
   22.2369    6.2270   53.9367 C   0  0  0  0  0  0  0  0  0  0  0  0
   21.7011    7.3101   53.2873 C   0  0  0  0  0  0  0  0  0  0  0  0
   22.4438    8.4681   53.1513 C   0  0  0  0  0  0  0  0  0  0  0  0
   23.7043    8.5072   53.6714 C   0  0  0  0  0  0  0  0  0  0  0  0
   21.8551    9.6153   52.4540 C   0  0  0  0  0  0  0  0  0  0  0  0
   21.8307   10.9391   52.8301 C   0  0  0  0  0  0  0  0  0  0  0  0
   21.1736   11.6603   51.8744 N   0  0  0  0  0  0  0  0  0  0  0  0
   20.8134   10.7946   50.9500 N   0  0  0  0  0  0  0  0  0  0  0  0
   21.2120    9.5622   51.2774 N   0  0  0  0  0  0  0  0  0  0  0  0
   20.9014   13.0538   51.8262 C   0  0  0  0  0  0  0  0  0  0  0  0
   20.2040   13.6759   52.8436 C   0  0  0  0  0  0  0  0  0  0  0  0
   19.9440   15.0280   52.7892 C   0  0  0  0  0  0  0  0  0  0  0  0
   20.3585   15.8181   51.7355 C   0  0  0  0  0  0  0  0  0  0  0  0
   21.0555   15.2001   50.7172 C   0  0  0  0  0  0  0  0  0  0  0  0
   21.3162   13.8474   50.7707 C   0  0  0  0  0  0  0  0  0  0  0  0
   26.6638    8.1874   54.1443 C   0  0  0  0  0  0  0  0  0  0  0  0
   26.5637    8.6082   52.9930 O   0  0  0  0  0  0  0  0  0  0  0  0
   25.6246    7.6035   54.8621 N   0  0  0  0  0  0  0  0  0  0  0  0
   25.8120    7.2604   55.8691 H   0  0  0  0  0  0  0  0  0  0  0  0
   28.0067    8.3209   54.8048 C   0  0  0  0  0  0  0  0  0  0  0  0
   28.0493    9.5976   55.5907 C   0  0  0  0  0  0  0  0  0  0  0  0
   27.5553    9.2925   57.0024 C   0  0  0  0  0  0  0  0  0  0  0  0
   28.4100   10.1323   57.9402 C   0  0  0  0  0  0  0  0  0  0  0  0
   28.8032    9.3812   59.1630 C   0  0  0  0  0  0  0  0  0  0  0  0
   29.1455   10.2005   60.3542 C   0  0  0  0  0  0  0  0  0  0  0  0
   32.8583   10.6189   60.6421 O   0  0  0  0  0  0  0  0  0  0  0  0
   31.5981   10.7274   60.1743 N   0  0  0  0  0  0  0  0  0  0  0  0
   30.5144   10.0910   60.8503 C   0  0  0  0  0  0  0  0  0  0  0  0
   30.7594    9.4308   61.8858 O   0  0  0  0  0  0  0  0  0  0  0  0
   32.8679   10.5244   61.6249 H   0  0  0  0  0  0  0  0  0  0  0  0
   31.4106   11.2715   59.3241 H   0  0  0  0  0  0  0  0  0  0  0  0
 28 29  1  0  0  0
 29 30  1  0  0  0
 30 31  2  0  0  0
 30 27  1  0  0  0
 27 26  1  0  0  0
 26 25  1  0  0  0
 25 24  1  0  0  0
 24 23  1  0  0  0
 23 22  1  0  0  0
 22 18  1  0  0  0
 18 19  2  0  0  0
 18 20  1  0  0  0
 20  1  1  0  0  0
  1  2  2  0  0  0
  2  3  1  0  0  0
  3  4  2  0  0  0
  4  5  1  0  0  0
  5  6  2  0  0  0
  5  7  1  0  0  0
  7  8  2  0  0  0
  8  9  1  0  0  0
  9 10  1  0  0  0
 10 11  2  0  0  0
  9 12  1  0  0  0
 12 13  2  0  0  0
 13 14  1  0  0  0
 14 15  2  0  0  0
 15 16  1  0  0  0
 16 17  2  0  0  0
  6  1  1  0  0  0
 11  7  1  0  0  0
 17 12  1  0  0  0
 28 32  1  0  0  0
 29 33  1  0  0  0
 20 21  1  0  0  0
M  END
> <minimizedAffinity>
7.43058

> <CNNscore>
0.7019870281

> <CNNaffinity>
6.2678480148

> <CNN_VS>
4.3999481201

> <CNNaffinity_variance>
0.2157140076

$$$$
[H]ON([H])C(=O)C([H])([H])C([H])([H])C([H])([H])C([H])([H])C([H])([H])C([H])([H])C(=O)N([H])c1c([H])c([H])c([H])c(-c2nnn(-c3c([H])c([H])c([H])c([H])c3[H])c2[H])c1[H]


 33 35  0  0  0  0  0  0  0  0999 V2000
   24.1735    9.1415   55.1179 C   0  0  0  0  0  0  0  0  0  0  0  0
   23.6465   10.3535   55.4553 C   0  0  0  0  0  0  0  0  0  0  0  0
   22.3054   10.7004   55.2207 C   0  0  0  0  0  0  0  0  0  0  0  0
   21.4703    9.7894   54.6254 C   0  0  0  0  0  0  0  0  0  0  0  0
   21.9535    8.5457   54.2640 C   0  0  0  0  0  0  0  0  0  0  0  0
   23.2624    8.2505   54.5098 C   0  0  0  0  0  0  0  0  0  0  0  0
   21.0464    7.5848   53.6292 C   0  0  0  0  0  0  0  0  0  0  0  0
   20.3421    6.5496   54.2008 C   0  0  0  0  0  0  0  0  0  0  0  0
   19.6219    5.9133   53.2304 N   0  0  0  0  0  0  0  0  0  0  0  0
   19.8859    6.5480   52.1074 N   0  0  0  0  0  0  0  0  0  0  0  0
   20.7380    7.5540   52.3235 N   0  0  0  0  0  0  0  0  0  0  0  0
   18.7518    4.7958   53.3414 C   0  0  0  0  0  0  0  0  0  0  0  0
   17.5009    4.9248   53.9134 C   0  0  0  0  0  0  0  0  0  0  0  0
   16.6629    3.8361   54.0174 C   0  0  0  0  0  0  0  0  0  0  0  0
   17.0214    2.5820   53.5643 C   0  0  0  0  0  0  0  0  0  0  0  0
   18.2703    2.4492   52.9922 C   0  0  0  0  0  0  0  0  0  0  0  0
   19.1095    3.5380   52.8877 C   0  0  0  0  0  0  0  0  0  0  0  0
   26.3804    8.4179   54.2541 C   0  0  0  0  0  0  0  0  0  0  0  0
   26.0781    8.4742   53.0632 O   0  0  0  0  0  0  0  0  0  0  0  0
   25.5152    8.7209   55.3010 N   0  0  0  0  0  0  0  0  0  0  0  0
   25.8732    8.6377   56.3167 H   0  0  0  0  0  0  0  0  0  0  0  0
   27.7831    7.9909   54.5822 C   0  0  0  0  0  0  0  0  0  0  0  0
   28.4724    9.0876   55.3382 C   0  0  0  0  0  0  0  0  0  0  0  0
   27.6005    9.4451   56.5390 C   0  0  0  0  0  0  0  0  0  0  0  0
   28.3586    8.9679   57.7690 C   0  0  0  0  0  0  0  0  0  0  0  0
   28.5412   10.0533   58.7703 C   0  0  0  0  0  0  0  0  0  0  0  0
   28.8362    9.6203   60.1605 C   0  0  0  0  0  0  0  0  0  0  0  0
   32.1931   11.2514   60.4979 O   0  0  0  0  0  0  0  0  0  0  0  0
   31.0281   10.8369   59.9595 N   0  0  0  0  0  0  0  0  0  0  0  0
   30.1007   10.0751   60.7315 C   0  0  0  0  0  0  0  0  0  0  0  0
   30.3922    9.8008   61.9181 O   0  0  0  0  0  0  0  0  0  0  0  0
   32.1025   11.4079   61.4686 H   0  0  0  0  0  0  0  0  0  0  0  0
   30.8010   11.0684   58.9853 H   0  0  0  0  0  0  0  0  0  0  0  0
 28 29  1  0  0  0
 29 30  1  0  0  0
 30 31  2  0  0  0
 30 27  1  0  0  0
 27 26  1  0  0  0
 26 25  1  0  0  0
 25 24  1  0  0  0
 24 23  1  0  0  0
 23 22  1  0  0  0
 22 18  1  0  0  0
 18 19  2  0  0  0
 18 20  1  0  0  0
 20  1  1  0  0  0
  1  2  2  0  0  0
  2  3  1  0  0  0
  3  4  2  0  0  0
  4  5  1  0  0  0
  5  6  2  0  0  0
  5  7  1  0  0  0
  7  8  2  0  0  0
  8  9  1  0  0  0
  9 10  1  0  0  0
 10 11  2  0  0  0
  9 12  1  0  0  0
 12 13  2  0  0  0
 13 14  1  0  0  0
 14 15  2  0  0  0
 15 16  1  0  0  0
 16 17  2  0  0  0
  6  1  1  0  0  0
 11  7  1  0  0  0
 17 12  1  0  0  0
 28 32  1  0  0  0
 29 33  1  0  0  0
 20 21  1  0  0  0
M  END
> <minimizedAffinity>
13.14414

> <CNNscore>
0.6360051632

> <CNNaffinity>
6.4143500328

> <CNN_VS>
4.0795598030

> <CNNaffinity_variance>
0.3545846641

$$$$
[H]ON([H])C(=O)C([H])([H])C([H])([H])C([H])([H])C([H])([H])C([H])([H])C([H])([H])C(=O)N([H])c1c([H])c([H])c([H])c(-c2nnn(-c3c([H])c([H])c([H])c([H])c3[H])c2[H])c1[H]


 33 35  0  0  0  0  0  0  0  0999 V2000
   22.9222    8.5285   53.6652 C   0  0  0  0  0  0  0  0  0  0  0  0
   21.9914    7.5640   53.4123 C   0  0  0  0  0  0  0  0  0  0  0  0
   20.8838    7.7667   52.5721 C   0  0  0  0  0  0  0  0  0  0  0  0
   20.7137    8.9862   51.9675 C   0  0  0  0  0  0  0  0  0  0  0  0
   21.6286    9.9985   52.1894 C   0  0  0  0  0  0  0  0  0  0  0  0
   22.6895    9.7588   53.0129 C   0  0  0  0  0  0  0  0  0  0  0  0
   21.4309   11.2950   51.5346 C   0  0  0  0  0  0  0  0  0  0  0  0
   21.7518   12.5538   51.9894 C   0  0  0  0  0  0  0  0  0  0  0  0
   21.3868   13.4728   51.0473 N   0  0  0  0  0  0  0  0  0  0  0  0
   20.8615   12.7859   50.0545 N   0  0  0  0  0  0  0  0  0  0  0  0
   20.8778   11.4778   50.3256 N   0  0  0  0  0  0  0  0  0  0  0  0
   21.5180   14.8872   51.0707 C   0  0  0  0  0  0  0  0  0  0  0  0
   20.7597   15.6558   51.9326 C   0  0  0  0  0  0  0  0  0  0  0  0
   20.8928   17.0271   51.9491 C   0  0  0  0  0  0  0  0  0  0  0  0
   21.7741   17.6937   51.1212 C   0  0  0  0  0  0  0  0  0  0  0  0
   22.5334   16.9293   50.2588 C   0  0  0  0  0  0  0  0  0  0  0  0
   22.4009   15.5571   50.2415 C   0  0  0  0  0  0  0  0  0  0  0  0
   25.3165    8.0336   54.0685 C   0  0  0  0  0  0  0  0  0  0  0  0
   25.5889    7.7533   52.9024 O   0  0  0  0  0  0  0  0  0  0  0  0
   24.0533    8.4123   54.5125 N   0  0  0  0  0  0  0  0  0  0  0  0
   23.9119    8.6360   55.5597 H   0  0  0  0  0  0  0  0  0  0  0  0
   26.4358    7.9564   55.0678 C   0  0  0  0  0  0  0  0  0  0  0  0
   26.5337    9.2583   55.8060 C   0  0  0  0  0  0  0  0  0  0  0  0
   28.0032    9.4912   56.1470 C   0  0  0  0  0  0  0  0  0  0  0  0
   28.0159   10.4371   57.3389 C   0  0  0  0  0  0  0  0  0  0  0  0
   27.9532    9.7070   58.6339 C   0  0  0  0  0  0  0  0  0  0  0  0
   29.2123    9.6583   59.4210 C   0  0  0  0  0  0  0  0  0  0  0  0
   28.3865   11.3697   62.6508 O   0  0  0  0  0  0  0  0  0  0  0  0
   28.2975   10.5399   61.5915 N   0  0  0  0  0  0  0  0  0  0  0  0
   29.2969   10.5514   60.5729 C   0  0  0  0  0  0  0  0  0  0  0  0
   30.2569   11.3478   60.6848 O   0  0  0  0  0  0  0  0  0  0  0  0
   29.3284   11.5619   62.8761 H   0  0  0  0  0  0  0  0  0  0  0  0
   27.5053    9.8917   61.5115 H   0  0  0  0  0  0  0  0  0  0  0  0
 28 29  1  0  0  0
 29 30  1  0  0  0
 30 31  2  0  0  0
 30 27  1  0  0  0
 27 26  1  0  0  0
 26 25  1  0  0  0
 25 24  1  0  0  0
 24 23  1  0  0  0
 23 22  1  0  0  0
 22 18  1  0  0  0
 18 19  2  0  0  0
 18 20  1  0  0  0
 20  1  1  0  0  0
  1  2  2  0  0  0
  2  3  1  0  0  0
  3  4  2  0  0  0
  4  5  1  0  0  0
  5  6  2  0  0  0
  5  7  1  0  0  0
  7  8  2  0  0  0
  8  9  1  0  0  0
  9 10  1  0  0  0
 10 11  2  0  0  0
  9 12  1  0  0  0
 12 13  2  0  0  0
 13 14  1  0  0  0
 14 15  2  0  0  0
 15 16  1  0  0  0
 16 17  2  0  0  0
  6  1  1  0  0  0
 11  7  1  0  0  0
 17 12  1  0  0  0
 28 32  1  0  0  0
 29 33  1  0  0  0
 20 21  1  0  0  0
M  END
> <minimizedAffinity>
12.80551

> <CNNscore>
0.6062210202

> <CNNaffinity>
6.0023217201

> <CNN_VS>
3.6387336254

> <CNNaffinity_variance>
0.4154137969

$$$$
[H]ON([H])C(=O)C([H])([H])C([H])([H])C([H])([H])C([H])([H])C([H])([H])C([H])([H])C(=O)N([H])c1c([H])c([H])c([H])c(-c2nnn(-c3c([H])c([H])c([H])c([H])c3[H])c2[H])c1[H]


 33 35  0  0  0  0  0  0  0  0999 V2000
   20.9888    9.7176   51.5586 C   0  0  0  0  0  0  0  0  0  0  0  0
   20.0603    8.7185   51.5449 C   0  0  0  0  0  0  0  0  0  0  0  0
   20.2913    7.4473   52.0967 C   0  0  0  0  0  0  0  0  0  0  0  0
   21.5025    7.1793   52.6822 C   0  0  0  0  0  0  0  0  0  0  0  0
   22.4788    8.1572   52.7237 C   0  0  0  0  0  0  0  0  0  0  0  0
   22.2124    9.3777   52.1757 C   0  0  0  0  0  0  0  0  0  0  0  0
   23.7669    7.8530   53.3539 C   0  0  0  0  0  0  0  0  0  0  0  0
   24.5899    8.6780   54.0863 C   0  0  0  0  0  0  0  0  0  0  0  0
   25.6904    7.9715   54.4801 N   0  0  0  0  0  0  0  0  0  0  0  0
   25.5332    6.7563   53.9981 N   0  0  0  0  0  0  0  0  0  0  0  0
   24.3863    6.6631   53.3194 N   0  0  0  0  0  0  0  0  0  0  0  0
   26.8064    8.3975   55.2490 C   0  0  0  0  0  0  0  0  0  0  0  0
   28.0955    8.2316   54.7806 C   0  0  0  0  0  0  0  0  0  0  0  0
   29.1726    8.6474   55.5326 C   0  0  0  0  0  0  0  0  0  0  0  0
   29.0243    9.2409   56.7704 C   0  0  0  0  0  0  0  0  0  0  0  0
   27.7380    9.4083   57.2417 C   0  0  0  0  0  0  0  0  0  0  0  0
   26.6596    8.9926   56.4901 C   0  0  0  0  0  0  0  0  0  0  0  0
   21.2908   12.1759   51.6346 C   0  0  0  0  0  0  0  0  0  0  0  0
   21.8519   12.2036   52.7287 O   0  0  0  0  0  0  0  0  0  0  0  0
   20.8433   11.0165   51.0087 N   0  0  0  0  0  0  0  0  0  0  0  0
   20.3574   11.0949   50.0472 H   0  0  0  0  0  0  0  0  0  0  0  0
   21.0828   13.4925   50.9413 C   0  0  0  0  0  0  0  0  0  0  0  0
   19.9430   14.2208   51.5893 C   0  0  0  0  0  0  0  0  0  0  0  0
   20.3565   15.6809   51.7539 C   0  0  0  0  0  0  0  0  0  0  0  0
   21.1543   16.0374   50.5083 C   0  0  0  0  0  0  0  0  0  0  0  0
   22.2384   17.0145   50.7983 C   0  0  0  0  0  0  0  0  0  0  0  0
   22.6487   17.8924   49.6720 C   0  0  0  0  0  0  0  0  0  0  0  0
   25.8547   17.1437   47.8822 O   0  0  0  0  0  0  0  0  0  0  0  0
   24.5434   17.1442   48.1971 N   0  0  0  0  0  0  0  0  0  0  0  0
   24.0657   17.8836   49.3203 C   0  0  0  0  0  0  0  0  0  0  0  0
   24.8900   18.5309   50.0056 O   0  0  0  0  0  0  0  0  0  0  0  0
   26.2848   17.9939   48.1412 H   0  0  0  0  0  0  0  0  0  0  0  0
   23.8777   16.6092   47.6272 H   0  0  0  0  0  0  0  0  0  0  0  0
 28 29  1  0  0  0
 29 30  1  0  0  0
 30 31  2  0  0  0
 30 27  1  0  0  0
 27 26  1  0  0  0
 26 25  1  0  0  0
 25 24  1  0  0  0
 24 23  1  0  0  0
 23 22  1  0  0  0
 22 18  1  0  0  0
 18 19  2  0  0  0
 18 20  1  0  0  0
 20  1  1  0  0  0
  1  2  2  0  0  0
  2  3  1  0  0  0
  3  4  2  0  0  0
  4  5  1  0  0  0
  5  6  2  0  0  0
  5  7  1  0  0  0
  7  8  2  0  0  0
  8  9  1  0  0  0
  9 10  1  0  0  0
 10 11  2  0  0  0
  9 12  1  0  0  0
 12 13  2  0  0  0
 13 14  1  0  0  0
 14 15  2  0  0  0
 15 16  1  0  0  0
 16 17  2  0  0  0
  6  1  1  0  0  0
 11  7  1  0  0  0
 17 12  1  0  0  0
 28 32  1  0  0  0
 29 33  1  0  0  0
 20 21  1  0  0  0
M  END
> <minimizedAffinity>
10.35677

> <CNNscore>
0.5774367452

> <CNNaffinity>
6.1805748940

> <CNN_VS>
3.5688910484

> <CNNaffinity_variance>
0.1712308675

$$$$
[H]ON([H])C(=O)C([H])([H])C([H])([H])C([H])([H])C([H])([H])C([H])([H])C([H])([H])C(=O)N([H])c1c([H])c([H])c([H])c(-c2nnn(-c3c([H])c([H])c([H])c([H])c3[H])c2[H])c1[H]


 33 35  0  0  0  0  0  0  0  0999 V2000
   25.3857    8.5924   54.7319 C   0  0  0  0  0  0  0  0  0  0  0  0
   26.2649    8.1122   53.8061 C   0  0  0  0  0  0  0  0  0  0  0  0
   27.6531    8.0648   54.0170 C   0  0  0  0  0  0  0  0  0  0  0  0
   28.1678    8.5182   55.2050 C   0  0  0  0  0  0  0  0  0  0  0  0
   27.3205    9.0145   56.1780 C   0  0  0  0  0  0  0  0  0  0  0  0
   25.9791    9.0425   55.9315 C   0  0  0  0  0  0  0  0  0  0  0  0
   27.8884    9.4942   57.4414 C   0  0  0  0  0  0  0  0  0  0  0  0
   28.1842   10.7825   57.8251 C   0  0  0  0  0  0  0  0  0  0  0  0
   28.6988   10.7620   59.0901 N   0  0  0  0  0  0  0  0  0  0  0  0
   28.7118    9.4974   59.4563 N   0  0  0  0  0  0  0  0  0  0  0  0
   28.2301    8.7196   58.4827 N   0  0  0  0  0  0  0  0  0  0  0  0
   29.1455   11.8417   59.8981 C   0  0  0  0  0  0  0  0  0  0  0  0
   30.1869   11.6762   60.7907 C   0  0  0  0  0  0  0  0  0  0  0  0
   30.6143   12.7284   61.5709 C   0  0  0  0  0  0  0  0  0  0  0  0
   30.0359   13.9804   61.5038 C   0  0  0  0  0  0  0  0  0  0  0  0
   28.9952   14.1496   60.6133 C   0  0  0  0  0  0  0  0  0  0  0  0
   28.5669   13.0974   59.8322 C   0  0  0  0  0  0  0  0  0  0  0  0
   23.1928    9.5967   55.2998 C   0  0  0  0  0  0  0  0  0  0  0  0
   23.6272   10.3976   56.1260 O   0  0  0  0  0  0  0  0  0  0  0  0
   23.9784    8.6931   54.5909 N   0  0  0  0  0  0  0  0  0  0  0  0
   23.5028    8.0255   53.8874 H   0  0  0  0  0  0  0  0  0  0  0  0
   21.7109    9.6088   55.0521 C   0  0  0  0  0  0  0  0  0  0  0  0
   21.4530    9.5328   53.5766 C   0  0  0  0  0  0  0  0  0  0  0  0
   20.5015    8.3651   53.3294 C   0  0  0  0  0  0  0  0  0  0  0  0
   21.2698    7.3670   52.4759 C   0  0  0  0  0  0  0  0  0  0  0  0
   21.0929    5.9688   52.9534 C   0  0  0  0  0  0  0  0  0  0  0  0
   19.7530    5.6258   53.4961 C   0  0  0  0  0  0  0  0  0  0  0  0
   19.8614    1.9396   52.8301 O   0  0  0  0  0  0  0  0  0  0  0  0
   20.2475    3.2288   52.9169 N   0  0  0  0  0  0  0  0  0  0  0  0
   19.3475    4.2266   53.3973 C   0  0  0  0  0  0  0  0  0  0  0  0
   18.1932    3.8788   53.7361 O   0  0  0  0  0  0  0  0  0  0  0  0
   19.1934    1.7192   53.5230 H   0  0  0  0  0  0  0  0  0  0  0  0
   21.1968    3.5011   52.6358 H   0  0  0  0  0  0  0  0  0  0  0  0
 28 29  1  0  0  0
 29 30  1  0  0  0
 30 31  2  0  0  0
 30 27  1  0  0  0
 27 26  1  0  0  0
 26 25  1  0  0  0
 25 24  1  0  0  0
 24 23  1  0  0  0
 23 22  1  0  0  0
 22 18  1  0  0  0
 18 19  2  0  0  0
 18 20  1  0  0  0
 20  1  1  0  0  0
  1  2  2  0  0  0
  2  3  1  0  0  0
  3  4  2  0  0  0
  4  5  1  0  0  0
  5  6  2  0  0  0
  5  7  1  0  0  0
  7  8  2  0  0  0
  8  9  1  0  0  0
  9 10  1  0  0  0
 10 11  2  0  0  0
  9 12  1  0  0  0
 12 13  2  0  0  0
 13 14  1  0  0  0
 14 15  2  0  0  0
 15 16  1  0  0  0
 16 17  2  0  0  0
  6  1  1  0  0  0
 11  7  1  0  0  0
 17 12  1  0  0  0
 28 32  1  0  0  0
 29 33  1  0  0  0
 20 21  1  0  0  0
M  END
> <minimizedAffinity>
4.58458

> <CNNscore>
0.5638971925

> <CNNaffinity>
6.2425384521

> <CNN_VS>
3.5201499462

> <CNNaffinity_variance>
0.0958743244

$$$$
[H]ON([H])C(=O)C([H])([H])C([H])([H])C([H])([H])C([H])([H])C([H])([H])C([H])([H])C(=O)N([H])c1c([H])c([H])c([H])c(-c2nnn(-c3c([H])c([H])c([H])c([H])c3[H])c2[H])c1[H]


 33 35  0  0  0  0  0  0  0  0999 V2000
   25.0833    8.7256   55.1214 C   0  0  0  0  0  0  0  0  0  0  0  0
   25.8093    8.3000   54.0480 C   0  0  0  0  0  0  0  0  0  0  0  0
   27.2140    8.2966   54.0231 C   0  0  0  0  0  0  0  0  0  0  0  0
   27.9063    8.7383   55.1219 C   0  0  0  0  0  0  0  0  0  0  0  0
   27.2191    9.1800   56.2371 C   0  0  0  0  0  0  0  0  0  0  0  0
   25.8551    9.1665   56.2185 C   0  0  0  0  0  0  0  0  0  0  0  0
   27.9755    9.6480   57.4022 C   0  0  0  0  0  0  0  0  0  0  0  0
   28.6765    8.9146   58.3324 C   0  0  0  0  0  0  0  0  0  0  0  0
   29.2273    9.7668   59.2465 N   0  0  0  0  0  0  0  0  0  0  0  0
   28.8676   10.9781   58.8763 N   0  0  0  0  0  0  0  0  0  0  0  0
   28.1164   10.9302   57.7725 N   0  0  0  0  0  0  0  0  0  0  0  0
   30.0298    9.4739   60.3816 C   0  0  0  0  0  0  0  0  0  0  0  0
   30.6508   10.4837   61.0909 C   0  0  0  0  0  0  0  0  0  0  0  0
   31.4276   10.1913   62.1908 C   0  0  0  0  0  0  0  0  0  0  0  0
   31.6231    8.8984   62.6343 C   0  0  0  0  0  0  0  0  0  0  0  0
   31.0044    7.8869   61.9282 C   0  0  0  0  0  0  0  0  0  0  0  0
   30.2269    8.1785   60.8275 C   0  0  0  0  0  0  0  0  0  0  0  0
   22.9500    9.9608   55.3730 C   0  0  0  0  0  0  0  0  0  0  0  0
   23.4559   11.0794   55.4460 O   0  0  0  0  0  0  0  0  0  0  0  0
   23.6698    8.7798   55.2200 N   0  0  0  0  0  0  0  0  0  0  0  0
   23.1342    7.8432   55.1693 H   0  0  0  0  0  0  0  0  0  0  0  0
   21.4518    9.8830   55.4567 C   0  0  0  0  0  0  0  0  0  0  0  0
   20.9255    9.1385   54.2659 C   0  0  0  0  0  0  0  0  0  0  0  0
   21.4056    9.8653   53.0124 C   0  0  0  0  0  0  0  0  0  0  0  0
   21.6623    8.7866   51.9704 C   0  0  0  0  0  0  0  0  0  0  0  0
   21.3886    7.4223   52.4977 C   0  0  0  0  0  0  0  0  0  0  0  0
   22.5766    6.5679   52.7547 C   0  0  0  0  0  0  0  0  0  0  0  0
   22.0799    6.0969   56.4390 O   0  0  0  0  0  0  0  0  0  0  0  0
   21.8578    6.4722   55.1629 N   0  0  0  0  0  0  0  0  0  0  0  0
   22.8050    6.1673   54.1400 C   0  0  0  0  0  0  0  0  0  0  0  0
   23.8453    5.5445   54.4534 O   0  0  0  0  0  0  0  0  0  0  0  0
   22.6101    5.2649   56.4798 H   0  0  0  0  0  0  0  0  0  0  0  0
   21.0009    6.9825   54.9190 H   0  0  0  0  0  0  0  0  0  0  0  0
 28 29  1  0  0  0
 29 30  1  0  0  0
 30 31  2  0  0  0
 30 27  1  0  0  0
 27 26  1  0  0  0
 26 25  1  0  0  0
 25 24  1  0  0  0
 24 23  1  0  0  0
 23 22  1  0  0  0
 22 18  1  0  0  0
 18 19  2  0  0  0
 18 20  1  0  0  0
 20  1  1  0  0  0
  1  2  2  0  0  0
  2  3  1  0  0  0
  3  4  2  0  0  0
  4  5  1  0  0  0
  5  6  2  0  0  0
  5  7  1  0  0  0
  7  8  2  0  0  0
  8  9  1  0  0  0
  9 10  1  0  0  0
 10 11  2  0  0  0
  9 12  1  0  0  0
 12 13  2  0  0  0
 13 14  1  0  0  0
 14 15  2  0  0  0
 15 16  1  0  0  0
 16 17  2  0  0  0
  6  1  1  0  0  0
 11  7  1  0  0  0
 17 12  1  0  0  0
 28 32  1  0  0  0
 29 33  1  0  0  0
 20 21  1  0  0  0
M  END
> <minimizedAffinity>
-3.27025

> <CNNscore>
0.5626239777

> <CNNaffinity>
6.6680245399

> <CNN_VS>
3.7515904903

> <CNNaffinity_variance>
0.5214564800

$$$$
[H]ON([H])C(=O)C([H])([H])C([H])([H])C([H])([H])C([H])([H])C([H])([H])C([H])([H])C(=O)N([H])c1c([H])c([H])c([H])c(-c2nnn(-c3c([H])c([H])c([H])c([H])c3[H])c2[H])c1[H]


 33 35  0  0  0  0  0  0  0  0999 V2000
   22.1862    5.8830   53.6578 C   0  0  0  0  0  0  0  0  0  0  0  0
   23.5274    5.7446   53.4515 C   0  0  0  0  0  0  0  0  0  0  0  0
   24.3979    6.8368   53.2987 C   0  0  0  0  0  0  0  0  0  0  0  0
   23.8934    8.1111   53.3575 C   0  0  0  0  0  0  0  0  0  0  0  0
   22.5410    8.3075   53.5655 C   0  0  0  0  0  0  0  0  0  0  0  0
   21.7315    7.2187   53.7084 C   0  0  0  0  0  0  0  0  0  0  0  0
   22.0198    9.6762   53.6259 C   0  0  0  0  0  0  0  0  0  0  0  0
   21.8598   10.5887   52.6078 C   0  0  0  0  0  0  0  0  0  0  0  0
   21.3388   11.7415   53.1224 N   0  0  0  0  0  0  0  0  0  0  0  0
   21.1898   11.5280   54.4131 N   0  0  0  0  0  0  0  0  0  0  0  0
   21.5920   10.2958   54.7367 N   0  0  0  0  0  0  0  0  0  0  0  0
   21.0044   12.9529   52.4601 C   0  0  0  0  0  0  0  0  0  0  0  0
   20.1343   13.8590   53.0350 C   0  0  0  0  0  0  0  0  0  0  0  0
   19.8151   15.0318   52.3860 C   0  0  0  0  0  0  0  0  0  0  0  0
   20.3376   15.3580   51.1503 C   0  0  0  0  0  0  0  0  0  0  0  0
   21.2072   14.4553   50.5727 C   0  0  0  0  0  0  0  0  0  0  0  0
   21.5272   13.2816   51.2213 C   0  0  0  0  0  0  0  0  0  0  0  0
   19.9093    4.9385   53.4053 C   0  0  0  0  0  0  0  0  0  0  0  0
   19.4093    5.9404   52.8965 O   0  0  0  0  0  0  0  0  0  0  0  0
   21.2393    4.8373   53.8016 N   0  0  0  0  0  0  0  0  0  0  0  0
   21.5850    3.9143   54.2434 H   0  0  0  0  0  0  0  0  0  0  0  0
   19.0081    3.7531   53.6051 C   0  0  0  0  0  0  0  0  0  0  0  0
   19.4143    2.6561   52.6665 C   0  0  0  0  0  0  0  0  0  0  0  0
   20.0065    1.5238   53.5016 C   0  0  0  0  0  0  0  0  0  0  0  0
   19.7219    0.2402   52.7357 C   0  0  0  0  0  0  0  0  0  0  0  0
   19.0272   -0.7716   53.5771 C   0  0  0  0  0  0  0  0  0  0  0  0
   18.0116   -1.6104   52.8897 C   0  0  0  0  0  0  0  0  0  0  0  0
   14.6779   -1.7869   54.5920 O   0  0  0  0  0  0  0  0  0  0  0  0
   15.6975   -1.3333   53.8349 N   0  0  0  0  0  0  0  0  0  0  0  0
   16.9004   -2.0902   53.7063 C   0  0  0  0  0  0  0  0  0  0  0  0
   16.9878   -3.1832   54.3112 O   0  0  0  0  0  0  0  0  0  0  0  0
   14.6516   -2.7739   54.6019 H   0  0  0  0  0  0  0  0  0  0  0  0
   15.6133   -0.4355   53.3440 H   0  0  0  0  0  0  0  0  0  0  0  0
 28 29  1  0  0  0
 29 30  1  0  0  0
 30 31  2  0  0  0
 30 27  1  0  0  0
 27 26  1  0  0  0
 26 25  1  0  0  0
 25 24  1  0  0  0
 24 23  1  0  0  0
 23 22  1  0  0  0
 22 18  1  0  0  0
 18 19  2  0  0  0
 18 20  1  0  0  0
 20  1  1  0  0  0
  1  2  2  0  0  0
  2  3  1  0  0  0
  3  4  2  0  0  0
  4  5  1  0  0  0
  5  6  2  0  0  0
  5  7  1  0  0  0
  7  8  2  0  0  0
  8  9  1  0  0  0
  9 10  1  0  0  0
 10 11  2  0  0  0
  9 12  1  0  0  0
 12 13  2  0  0  0
 13 14  1  0  0  0
 14 15  2  0  0  0
 15 16  1  0  0  0
 16 17  2  0  0  0
  6  1  1  0  0  0
 11  7  1  0  0  0
 17 12  1  0  0  0
 28 32  1  0  0  0
 29 33  1  0  0  0
 20 21  1  0  0  0
M  END
> <minimizedAffinity>
31.62591

> <CNNscore>
0.5530409217

> <CNNaffinity>
6.1547880173

> <CNN_VS>
3.4038496017

> <CNNaffinity_variance>
0.1298684627

$$$$
[H]ON([H])C(=O)C([H])([H])C([H])([H])C([H])([H])C([H])([H])C([H])([H])C([H])([H])C(=O)N([H])c1c([H])c([H])c([H])c(-c2nnn(-c3c([H])c([H])c([H])c([H])c3[H])c2[H])c1[H]


 33 35  0  0  0  0  0  0  0  0999 V2000
   25.6694    8.5692   54.6725 C   0  0  0  0  0  0  0  0  0  0  0  0
   26.5995    8.2985   53.7123 C   0  0  0  0  0  0  0  0  0  0  0  0
   27.9829    8.4149   53.9282 C   0  0  0  0  0  0  0  0  0  0  0  0
   28.4393    8.8182   55.1573 C   0  0  0  0  0  0  0  0  0  0  0  0
   27.5388    9.1046   56.1663 C   0  0  0  0  0  0  0  0  0  0  0  0
   26.2041    8.9786   55.9135 C   0  0  0  0  0  0  0  0  0  0  0  0
   28.0447    9.5338   57.4735 C   0  0  0  0  0  0  0  0  0  0  0  0
   28.0768   10.7973   58.0183 C   0  0  0  0  0  0  0  0  0  0  0  0
   28.6367   10.7305   59.2623 N   0  0  0  0  0  0  0  0  0  0  0  0
   28.9326    9.4627   59.4595 N   0  0  0  0  0  0  0  0  0  0  0  0
   28.5861    8.7273   58.3994 N   0  0  0  0  0  0  0  0  0  0  0  0
   28.8781   11.7715   60.1983 C   0  0  0  0  0  0  0  0  0  0  0  0
   28.8042   13.0978   59.8189 C   0  0  0  0  0  0  0  0  0  0  0  0
   29.0399   14.1017   60.7328 C   0  0  0  0  0  0  0  0  0  0  0  0
   29.3564   13.8409   62.0512 C   0  0  0  0  0  0  0  0  0  0  0  0
   29.4312   12.5171   62.4340 C   0  0  0  0  0  0  0  0  0  0  0  0
   29.1955   11.5119   61.5203 C   0  0  0  0  0  0  0  0  0  0  0  0
   23.5605    7.3053   54.3636 C   0  0  0  0  0  0  0  0  0  0  0  0
   24.0825    6.1928   54.3133 O   0  0  0  0  0  0  0  0  0  0  0  0
   24.2603    8.4963   54.5311 N   0  0  0  0  0  0  0  0  0  0  0  0
   23.7116    9.4263   54.5593 H   0  0  0  0  0  0  0  0  0  0  0  0
   22.0648    7.3633   54.2335 C   0  0  0  0  0  0  0  0  0  0  0  0
   21.6166    6.3693   53.2038 C   0  0  0  0  0  0  0  0  0  0  0  0
   21.4403    5.0231   53.9014 C   0  0  0  0  0  0  0  0  0  0  0  0
   20.1926    4.3946   53.2985 C   0  0  0  0  0  0  0  0  0  0  0  0
   18.9504    5.0914   53.7295 C   0  0  0  0  0  0  0  0  0  0  0  0
   17.9616    4.2691   54.4734 C   0  0  0  0  0  0  0  0  0  0  0  0
   14.5043    3.8605   53.0866 O   0  0  0  0  0  0  0  0  0  0  0  0
   15.5393    4.3470   53.8013 N   0  0  0  0  0  0  0  0  0  0  0  0
   16.8328    3.7521   53.7050 C   0  0  0  0  0  0  0  0  0  0  0  0
   16.9851    2.7699   52.9432 O   0  0  0  0  0  0  0  0  0  0  0  0
   14.8118    3.4666   52.2350 H   0  0  0  0  0  0  0  0  0  0  0  0
   15.4013    5.1528   54.4225 H   0  0  0  0  0  0  0  0  0  0  0  0
 28 29  1  0  0  0
 29 30  1  0  0  0
 30 31  2  0  0  0
 30 27  1  0  0  0
 27 26  1  0  0  0
 26 25  1  0  0  0
 25 24  1  0  0  0
 24 23  1  0  0  0
 23 22  1  0  0  0
 22 18  1  0  0  0
 18 19  2  0  0  0
 18 20  1  0  0  0
 20  1  1  0  0  0
  1  2  2  0  0  0
  2  3  1  0  0  0
  3  4  2  0  0  0
  4  5  1  0  0  0
  5  6  2  0  0  0
  5  7  1  0  0  0
  7  8  2  0  0  0
  8  9  1  0  0  0
  9 10  1  0  0  0
 10 11  2  0  0  0
  9 12  1  0  0  0
 12 13  2  0  0  0
 13 14  1  0  0  0
 14 15  2  0  0  0
 15 16  1  0  0  0
 16 17  2  0  0  0
  6  1  1  0  0  0
 11  7  1  0  0  0
 17 12  1  0  0  0
 28 32  1  0  0  0
 29 33  1  0  0  0
 20 21  1  0  0  0
M  END
> <minimizedAffinity>
7.57390

> <CNNscore>
0.5489040613

> <CNNaffinity>
6.0996880531

> <CNN_VS>
3.3481435776

> <CNNaffinity_variance>
0.1235162243

$$$$
[H]ON([H])C(=O)C([H])([H])C([H])([H])C([H])([H])C([H])([H])C([H])([H])C([H])([H])C(=O)N([H])c1c([H])c([H])c([H])c(-c2nnn(-c3c([H])c([H])c([H])c([H])c3[H])c2[H])c1[H]


 33 35  0  0  0  0  0  0  0  0999 V2000
   25.8234    8.4205   54.6547 C   0  0  0  0  0  0  0  0  0  0  0  0
   26.7775    8.2739   53.6910 C   0  0  0  0  0  0  0  0  0  0  0  0
   28.1373    8.5533   53.9074 C   0  0  0  0  0  0  0  0  0  0  0  0
   28.5442    8.9951   55.1406 C   0  0  0  0  0  0  0  0  0  0  0  0
   27.6177    9.1603   56.1532 C   0  0  0  0  0  0  0  0  0  0  0  0
   26.3074    8.8776   55.8998 C   0  0  0  0  0  0  0  0  0  0  0  0
   28.0709    9.6329   57.4647 C   0  0  0  0  0  0  0  0  0  0  0  0
   28.3594   10.9157   57.8717 C   0  0  0  0  0  0  0  0  0  0  0  0
   28.7470   10.8897   59.1810 N   0  0  0  0  0  0  0  0  0  0  0  0
   28.6930    9.6271   59.5506 N   0  0  0  0  0  0  0  0  0  0  0  0
   28.2899    8.8560   58.5368 N   0  0  0  0  0  0  0  0  0  0  0  0
   29.1390   11.9626   60.0257 C   0  0  0  0  0  0  0  0  0  0  0  0
   30.1957   11.8237   60.9048 C   0  0  0  0  0  0  0  0  0  0  0  0
   30.5696   12.8691   61.7208 C   0  0  0  0  0  0  0  0  0  0  0  0
   29.9210   14.0879   61.7038 C   0  0  0  0  0  0  0  0  0  0  0  0
   28.8649   14.2305   60.8269 C   0  0  0  0  0  0  0  0  0  0  0  0
   28.4900   13.1850   60.0101 C   0  0  0  0  0  0  0  0  0  0  0  0
   23.8467    6.9262   54.6526 C   0  0  0  0  0  0  0  0  0  0  0  0
   24.4649    5.8934   54.9053 O   0  0  0  0  0  0  0  0  0  0  0  0
   24.4330    8.1804   54.5132 N   0  0  0  0  0  0  0  0  0  0  0  0
   23.8050    9.0295   54.2866 H   0  0  0  0  0  0  0  0  0  0  0  0
   22.3583    6.8067   54.4861 C   0  0  0  0  0  0  0  0  0  0  0  0
   21.6929    8.0095   55.0860 C   0  0  0  0  0  0  0  0  0  0  0  0
   20.3661    8.2183   54.3607 C   0  0  0  0  0  0  0  0  0  0  0  0
   20.5541    7.6478   52.9627 C   0  0  0  0  0  0  0  0  0  0  0  0
   21.5612    8.4112   52.1771 C   0  0  0  0  0  0  0  0  0  0  0  0
   21.0577    9.6044   51.4489 C   0  0  0  0  0  0  0  0  0  0  0  0
   21.9916   13.2304   51.5987 O   0  0  0  0  0  0  0  0  0  0  0  0
   21.6153   12.0327   51.1061 N   0  0  0  0  0  0  0  0  0  0  0  0
   21.4644   10.9065   51.9694 C   0  0  0  0  0  0  0  0  0  0  0  0
   21.6887   11.0550   53.1925 O   0  0  0  0  0  0  0  0  0  0  0  0
   21.6770   13.3500   52.5269 H   0  0  0  0  0  0  0  0  0  0  0  0
   21.4345   11.9240   50.1013 H   0  0  0  0  0  0  0  0  0  0  0  0
 28 29  1  0  0  0
 29 30  1  0  0  0
 30 31  2  0  0  0
 30 27  1  0  0  0
 27 26  1  0  0  0
 26 25  1  0  0  0
 25 24  1  0  0  0
 24 23  1  0  0  0
 23 22  1  0  0  0
 22 18  1  0  0  0
 18 19  2  0  0  0
 18 20  1  0  0  0
 20  1  1  0  0  0
  1  2  2  0  0  0
  2  3  1  0  0  0
  3  4  2  0  0  0
  4  5  1  0  0  0
  5  6  2  0  0  0
  5  7  1  0  0  0
  7  8  2  0  0  0
  8  9  1  0  0  0
  9 10  1  0  0  0
 10 11  2  0  0  0
  9 12  1  0  0  0
 12 13  2  0  0  0
 13 14  1  0  0  0
 14 15  2  0  0  0
 15 16  1  0  0  0
 16 17  2  0  0  0
  6  1  1  0  0  0
 11  7  1  0  0  0
 17 12  1  0  0  0
 28 32  1  0  0  0
 29 33  1  0  0  0
 20 21  1  0  0  0
M  END
> <minimizedAffinity>
-2.20414

> <CNNscore>
0.5478276014

> <CNNaffinity>
6.4871244431

> <CNN_VS>
3.5538258553

> <CNNaffinity_variance>
0.1376118362

$$$$
