[H]c1c([H])c([H])c(N([H])C(=O)[C@]2([H])C([H])([H])[C@@]3([H])N([H])[C@@]([H])(N([H])C(=O)c4c([H])c([H])c(C(F)(F)F)c([H])c4[H])C([H])([H])[C@@]23[H])c([H])c1[H]


 32 35  0  0  0  0  0  0  0  0999 V2000
   21.6677    8.8686   53.9793 C   0  0  0  0  0  0  0  0  0  0  0  0
   20.2058    8.3565   53.8596 C   0  0  0  0  0  0  0  0  0  0  0  0
   20.4873    6.8625   54.0236 C   0  0  0  0  0  0  0  0  0  0  0  0
   19.7833    6.0073   53.0140 C   0  0  0  0  0  0  0  0  0  0  0  0
   21.0401    6.1513   52.1424 C   0  0  0  0  0  0  0  0  0  0  0  0
   21.8199    6.6932   53.3296 C   0  0  0  0  0  0  0  0  0  0  0  0
   22.3704    8.0123   53.1165 N   0  0  0  0  0  0  0  0  0  0  0  0
   22.2188    8.2251   52.0892 H   0  0  0  0  0  0  0  0  0  0  0  0
   21.4871   10.7762   52.3658 C   0  0  0  0  0  0  0  0  0  0  0  0
   21.3012    9.9357   51.4072 O   0  0  0  0  0  0  0  0  0  0  0  0
   21.6685   10.2850   53.6438 N   0  0  0  0  0  0  0  0  0  0  0  0
   21.8065   10.9379   54.4568 H   0  0  0  0  0  0  0  0  0  0  0  0
   21.4637   14.8955   51.1999 C   0  0  0  0  0  0  0  0  0  0  0  0
   22.2988   13.9574   50.6121 C   0  0  0  0  0  0  0  0  0  0  0  0
   22.3255   12.6378   50.9718 C   0  0  0  0  0  0  0  0  0  0  0  0
   21.4837   12.1591   51.9841 C   0  0  0  0  0  0  0  0  0  0  0  0
   20.6519   13.1042   52.5681 C   0  0  0  0  0  0  0  0  0  0  0  0
   20.6373   14.4175   52.1976 C   0  0  0  0  0  0  0  0  0  0  0  0
   22.6898   16.8897   50.8079 F   0  0  0  0  0  0  0  0  0  0  0  0
   21.4472   16.3383   50.7841 C   0  0  0  0  0  0  0  0  0  0  0  0
   20.6214   17.0630   51.6306 F   0  0  0  0  0  0  0  0  0  0  0  0
   20.9355   16.4422   49.5146 F   0  0  0  0  0  0  0  0  0  0  0  0
   19.5763    4.5908   53.4550 C   0  0  0  0  0  0  0  0  0  0  0  0
   18.4467    4.2572   53.8823 O   0  0  0  0  0  0  0  0  0  0  0  0
   20.6411    3.6611   53.3864 N   0  0  0  0  0  0  0  0  0  0  0  0
   21.5548    4.0645   52.9885 H   0  0  0  0  0  0  0  0  0  0  0  0
   20.6387    2.3207   53.7627 C   0  0  0  0  0  0  0  0  0  0  0  0
   20.3416    1.8601   55.0086 C   0  0  0  0  0  0  0  0  0  0  0  0
   20.3483    0.4889   55.2720 C   0  0  0  0  0  0  0  0  0  0  0  0
   20.6500   -0.4174   54.2945 C   0  0  0  0  0  0  0  0  0  0  0  0
   20.9551    0.0183   53.0228 C   0  0  0  0  0  0  0  0  0  0  0  0
   20.9405    1.3672   52.7934 C   0  0  0  0  0  0  0  0  0  0  0  0
 19 20  1  0  0  0
 20 21  1  0  0  0
 20 22  1  0  0  0
 20 13  1  0  0  0
 13 14  2  0  0  0
 14 15  1  0  0  0
 15 16  2  0  0  0
 16 17  1  0  0  0
 17 18  2  0  0  0
 16  9  1  0  0  0
  9 10  2  0  0  0
  9 11  1  0  0  0
 11  1  1  0  0  0
  1  2  1  0  0  0
  2  3  1  0  0  0
  3  4  1  0  0  0
  4  5  1  0  0  0
  5  6  1  0  0  0
  6  7  1  0  0  0
  4 23  1  0  0  0
 23 24  2  0  0  0
 23 25  1  0  0  0
 25 27  1  0  0  0
 27 28  2  0  0  0
 28 29  1  0  0  0
 29 30  2  0  0  0
 30 31  1  0  0  0
 31 32  2  0  0  0
 18 13  1  0  0  0
  7  1  1  0  0  0
 32 27  1  0  0  0
  6  3  1  0  0  0
 11 12  1  0  0  0
  7  8  1  0  0  0
 25 26  1  0  0  0
M  END
> <minimizedAffinity>
50.51622

> <CNNscore>
0.5180541277

> <CNNaffinity>
5.6631331444

> <CNN_VS>
2.9338095188

> <CNNaffinity_variance>
0.1237598881

$$$$
[H]c1c([H])c([H])c(N([H])C(=O)[C@]2([H])C([H])([H])[C@@]3([H])N([H])[C@@]([H])(N([H])C(=O)c4c([H])c([H])c(C(F)(F)F)c([H])c4[H])C([H])([H])[C@@]23[H])c([H])c1[H]


 32 35  0  0  0  0  0  0  0  0999 V2000
   25.9193    8.7729   54.6804 C   0  0  0  0  0  0  0  0  0  0  0  0
   25.6916    9.0414   56.1936 C   0  0  0  0  0  0  0  0  0  0  0  0
   26.9370    9.8903   56.4511 C   0  0  0  0  0  0  0  0  0  0  0  0
   27.6885    9.4903   57.6846 C   0  0  0  0  0  0  0  0  0  0  0  0
   28.5077    8.5579   56.7794 C   0  0  0  0  0  0  0  0  0  0  0  0
   27.9681    9.2589   55.5431 C   0  0  0  0  0  0  0  0  0  0  0  0
   27.2673    8.3832   54.6316 N   0  0  0  0  0  0  0  0  0  0  0  0
   27.4393    7.3997   54.9878 H   0  0  0  0  0  0  0  0  0  0  0  0
   23.5761    7.9136   54.4662 C   0  0  0  0  0  0  0  0  0  0  0  0
   23.1451    8.9636   55.0759 O   0  0  0  0  0  0  0  0  0  0  0  0
   24.9350    7.7893   54.2533 N   0  0  0  0  0  0  0  0  0  0  0  0
   25.3261    6.9559   53.7446 H   0  0  0  0  0  0  0  0  0  0  0  0
   20.5660    5.0968   53.3115 C   0  0  0  0  0  0  0  0  0  0  0  0
   21.8264    4.7094   53.7408 C   0  0  0  0  0  0  0  0  0  0  0  0
   22.8039    5.5923   54.1104 C   0  0  0  0  0  0  0  0  0  0  0  0
   22.5685    6.9726   54.0694 C   0  0  0  0  0  0  0  0  0  0  0  0
   21.3053    7.3521   53.6376 C   0  0  0  0  0  0  0  0  0  0  0  0
   20.3408    6.4586   53.2722 C   0  0  0  0  0  0  0  0  0  0  0  0
   19.1340    4.2534   51.6168 F   0  0  0  0  0  0  0  0  0  0  0  0
   19.5061    4.1090   52.9165 C   0  0  0  0  0  0  0  0  0  0  0  0
   18.3881    4.2709   53.7212 F   0  0  0  0  0  0  0  0  0  0  0  0
   19.9757    2.8336   53.1088 F   0  0  0  0  0  0  0  0  0  0  0  0
   28.5349   10.5827   58.2626 C   0  0  0  0  0  0  0  0  0  0  0  0
   28.8171   11.5659   57.5390 O   0  0  0  0  0  0  0  0  0  0  0  0
   28.9995   10.4932   59.5964 N   0  0  0  0  0  0  0  0  0  0  0  0
   28.6778    9.6098   60.1178 H   0  0  0  0  0  0  0  0  0  0  0  0
   29.8011   11.3952   60.2908 C   0  0  0  0  0  0  0  0  0  0  0  0
   31.0919   11.1696   60.6590 C   0  0  0  0  0  0  0  0  0  0  0  0
   31.8130   12.1552   61.3358 C   0  0  0  0  0  0  0  0  0  0  0  0
   31.2467   13.3607   61.6425 C   0  0  0  0  0  0  0  0  0  0  0  0
   29.9413   13.6190   61.2827 C   0  0  0  0  0  0  0  0  0  0  0  0
   29.2590   12.6351   60.6202 C   0  0  0  0  0  0  0  0  0  0  0  0
 19 20  1  0  0  0
 20 21  1  0  0  0
 20 22  1  0  0  0
 20 13  1  0  0  0
 13 14  2  0  0  0
 14 15  1  0  0  0
 15 16  2  0  0  0
 16 17  1  0  0  0
 17 18  2  0  0  0
 16  9  1  0  0  0
  9 10  2  0  0  0
  9 11  1  0  0  0
 11  1  1  0  0  0
  1  2  1  0  0  0
  2  3  1  0  0  0
  3  4  1  0  0  0
  4  5  1  0  0  0
  5  6  1  0  0  0
  6  7  1  0  0  0
  4 23  1  0  0  0
 23 24  2  0  0  0
 23 25  1  0  0  0
 25 27  1  0  0  0
 27 28  2  0  0  0
 28 29  1  0  0  0
 29 30  2  0  0  0
 30 31  1  0  0  0
 31 32  2  0  0  0
 18 13  1  0  0  0
  7  1  1  0  0  0
 32 27  1  0  0  0
  6  3  1  0  0  0
 11 12  1  0  0  0
  7  8  1  0  0  0
 25 26  1  0  0  0
M  END
> <minimizedAffinity>
12.92013

> <CNNscore>
0.5151566267

> <CNNaffinity>
5.5510568619

> <CNN_VS>
2.8596637249

> <CNNaffinity_variance>
0.0141301807

$$$$
[H]c1c([H])c([H])c(N([H])C(=O)[C@]2([H])C([H])([H])[C@@]3([H])N([H])[C@@]([H])(N([H])C(=O)c4c([H])c([H])c(C(F)(F)F)c([H])c4[H])C([H])([H])[C@@]23[H])c([H])c1[H]


 32 35  0  0  0  0  0  0  0  0999 V2000
   27.4158    9.3051   55.8069 C   0  0  0  0  0  0  0  0  0  0  0  0
   26.8690   10.2347   56.9253 C   0  0  0  0  0  0  0  0  0  0  0  0
   28.2016   10.5721   57.5950 C   0  0  0  0  0  0  0  0  0  0  0  0
   28.1647   10.4610   59.0892 C   0  0  0  0  0  0  0  0  0  0  0  0
   28.6217    9.0058   58.9066 C   0  0  0  0  0  0  0  0  0  0  0  0
   28.9830    9.2851   57.4566 C   0  0  0  0  0  0  0  0  0  0  0  0
   28.2827    8.4507   56.5068 N   0  0  0  0  0  0  0  0  0  0  0  0
   27.7820    7.7157   57.0837 H   0  0  0  0  0  0  0  0  0  0  0  0
   24.9681    9.1051   55.3134 C   0  0  0  0  0  0  0  0  0  0  0  0
   24.7386   10.1048   56.0931 O   0  0  0  0  0  0  0  0  0  0  0  0
   26.2741    8.6873   55.1485 N   0  0  0  0  0  0  0  0  0  0  0  0
   26.5061    7.8860   54.5079 H   0  0  0  0  0  0  0  0  0  0  0  0
   21.5147    7.3616   53.4797 C   0  0  0  0  0  0  0  0  0  0  0  0
   22.7668    6.7676   53.4306 C   0  0  0  0  0  0  0  0  0  0  0  0
   23.8838    7.3090   54.0058 C   0  0  0  0  0  0  0  0  0  0  0  0
   23.8110    8.5283   54.6918 C   0  0  0  0  0  0  0  0  0  0  0  0
   22.5548    9.1168   54.7355 C   0  0  0  0  0  0  0  0  0  0  0  0
   21.4500    8.5636   54.1563 C   0  0  0  0  0  0  0  0  0  0  0  0
   20.2772    5.3944   52.9974 F   0  0  0  0  0  0  0  0  0  0  0  0
   20.3008    6.7453   52.8459 C   0  0  0  0  0  0  0  0  0  0  0  0
   20.2743    7.0429   51.4915 F   0  0  0  0  0  0  0  0  0  0  0  0
   19.1696    7.2792   53.4111 F   0  0  0  0  0  0  0  0  0  0  0  0
   29.2047   11.2833   59.7863 C   0  0  0  0  0  0  0  0  0  0  0  0
   30.2003   10.6991   60.2734 O   0  0  0  0  0  0  0  0  0  0  0  0
   29.0532   12.6869   59.8864 N   0  0  0  0  0  0  0  0  0  0  0  0
   28.1655   13.0700   59.4163 H   0  0  0  0  0  0  0  0  0  0  0  0
   29.9009   13.6020   60.5049 C   0  0  0  0  0  0  0  0  0  0  0  0
   31.0242   13.2780   61.2020 C   0  0  0  0  0  0  0  0  0  0  0  0
   31.8163   14.2805   61.7651 C   0  0  0  0  0  0  0  0  0  0  0  0
   31.4874   15.6003   61.6316 C   0  0  0  0  0  0  0  0  0  0  0  0
   30.3559   15.9599   60.9312 C   0  0  0  0  0  0  0  0  0  0  0  0
   29.5988   14.9567   60.3900 C   0  0  0  0  0  0  0  0  0  0  0  0
 19 20  1  0  0  0
 20 21  1  0  0  0
 20 22  1  0  0  0
 20 13  1  0  0  0
 13 14  2  0  0  0
 14 15  1  0  0  0
 15 16  2  0  0  0
 16 17  1  0  0  0
 17 18  2  0  0  0
 16  9  1  0  0  0
  9 10  2  0  0  0
  9 11  1  0  0  0
 11  1  1  0  0  0
  1  2  1  0  0  0
  2  3  1  0  0  0
  3  4  1  0  0  0
  4  5  1  0  0  0
  5  6  1  0  0  0
  6  7  1  0  0  0
  4 23  1  0  0  0
 23 24  2  0  0  0
 23 25  1  0  0  0
 25 27  1  0  0  0
 27 28  2  0  0  0
 28 29  1  0  0  0
 29 30  2  0  0  0
 30 31  1  0  0  0
 31 32  2  0  0  0
 18 13  1  0  0  0
  7  1  1  0  0  0
 32 27  1  0  0  0
  6  3  1  0  0  0
 11 12  1  0  0  0
  7  8  1  0  0  0
 25 26  1  0  0  0
M  END
> <minimizedAffinity>
6.51530

> <CNNscore>
0.4828362465

> <CNNaffinity>
5.5849633217

> <CNN_VS>
2.6966226101

> <CNNaffinity_variance>
0.0809842199

$$$$
[H]c1c([H])c([H])c(N([H])C(=O)[C@]2([H])C([H])([H])[C@@]3([H])N([H])[C@@]([H])(N([H])C(=O)c4c([H])c([H])c(C(F)(F)F)c([H])c4[H])C([H])([H])[C@@]23[H])c([H])c1[H]


 32 35  0  0  0  0  0  0  0  0999 V2000
   24.3113    8.6083   53.9956 C   0  0  0  0  0  0  0  0  0  0  0  0
   24.5036    8.3805   55.5204 C   0  0  0  0  0  0  0  0  0  0  0  0
   25.7914    9.1858   55.6974 C   0  0  0  0  0  0  0  0  0  0  0  0
   26.8367    8.4726   56.5005 C   0  0  0  0  0  0  0  0  0  0  0  0
   27.3620    7.9202   55.1668 C   0  0  0  0  0  0  0  0  0  0  0  0
   26.5268    8.9333   54.4006 C   0  0  0  0  0  0  0  0  0  0  0  0
   25.5878    8.3396   53.4762 N   0  0  0  0  0  0  0  0  0  0  0  0
   25.8266    7.3072   53.4464 H   0  0  0  0  0  0  0  0  0  0  0  0
   22.7867    6.6374   54.2521 C   0  0  0  0  0  0  0  0  0  0  0  0
   23.3641    6.3473   55.3667 O   0  0  0  0  0  0  0  0  0  0  0  0
   23.2265    7.7444   53.5533 N   0  0  0  0  0  0  0  0  0  0  0  0
   22.7710    8.0254   52.6478 H   0  0  0  0  0  0  0  0  0  0  0  0
   19.6240    3.9908   53.1026 C   0  0  0  0  0  0  0  0  0  0  0  0
   20.9042    3.5436   53.3924 C   0  0  0  0  0  0  0  0  0  0  0  0
   21.9300    4.3718   53.7575 C   0  0  0  0  0  0  0  0  0  0  0  0
   21.7272    5.7543   53.8572 C   0  0  0  0  0  0  0  0  0  0  0  0
   20.4438    6.1940   53.5645 C   0  0  0  0  0  0  0  0  0  0  0  0
   19.4310    5.3546   53.2015 C   0  0  0  0  0  0  0  0  0  0  0  0
   18.7126    1.8003   53.1748 F   0  0  0  0  0  0  0  0  0  0  0  0
   18.5113    3.0620   52.7097 C   0  0  0  0  0  0  0  0  0  0  0  0
   18.4022    3.0158   51.3277 F   0  0  0  0  0  0  0  0  0  0  0  0
   17.3228    3.5376   53.2049 F   0  0  0  0  0  0  0  0  0  0  0  0
   27.8315    9.3843   57.1508 C   0  0  0  0  0  0  0  0  0  0  0  0
   28.4129   10.2375   56.4411 O   0  0  0  0  0  0  0  0  0  0  0  0
   28.0999    9.2730   58.5359 N   0  0  0  0  0  0  0  0  0  0  0  0
   27.5270    8.5139   59.0373 H   0  0  0  0  0  0  0  0  0  0  0  0
   28.9945   10.0160   59.3015 C   0  0  0  0  0  0  0  0  0  0  0  0
   30.2190    9.5839   59.7097 C   0  0  0  0  0  0  0  0  0  0  0  0
   31.0473   10.4223   60.4584 C   0  0  0  0  0  0  0  0  0  0  0  0
   30.6537   11.6865   60.7969 C   0  0  0  0  0  0  0  0  0  0  0  0
   29.4192   12.1527   60.3981 C   0  0  0  0  0  0  0  0  0  0  0  0
   28.6288   11.3097   59.6653 C   0  0  0  0  0  0  0  0  0  0  0  0
 19 20  1  0  0  0
 20 21  1  0  0  0
 20 22  1  0  0  0
 20 13  1  0  0  0
 13 14  2  0  0  0
 14 15  1  0  0  0
 15 16  2  0  0  0
 16 17  1  0  0  0
 17 18  2  0  0  0
 16  9  1  0  0  0
  9 10  2  0  0  0
  9 11  1  0  0  0
 11  1  1  0  0  0
  1  2  1  0  0  0
  2  3  1  0  0  0
  3  4  1  0  0  0
  4  5  1  0  0  0
  5  6  1  0  0  0
  6  7  1  0  0  0
  4 23  1  0  0  0
 23 24  2  0  0  0
 23 25  1  0  0  0
 25 27  1  0  0  0
 27 28  2  0  0  0
 28 29  1  0  0  0
 29 30  2  0  0  0
 30 31  1  0  0  0
 31 32  2  0  0  0
 18 13  1  0  0  0
  7  1  1  0  0  0
 32 27  1  0  0  0
  6  3  1  0  0  0
 11 12  1  0  0  0
  7  8  1  0  0  0
 25 26  1  0  0  0
M  END
> <minimizedAffinity>
26.26374

> <CNNscore>
0.4811173677

> <CNNaffinity>
5.7786607742

> <CNN_VS>
2.7802140713

> <CNNaffinity_variance>
0.1752095819

$$$$
[H]c1c([H])c([H])c(N([H])C(=O)[C@]2([H])C([H])([H])[C@@]3([H])N([H])[C@@]([H])(N([H])C(=O)c4c([H])c([H])c(C(F)(F)F)c([H])c4[H])C([H])([H])[C@@]23[H])c([H])c1[H]


 32 35  0  0  0  0  0  0  0  0999 V2000
   26.4633    8.8136   54.8495 C   0  0  0  0  0  0  0  0  0  0  0  0
   25.9909    9.5939   56.1072 C   0  0  0  0  0  0  0  0  0  0  0  0
   27.3643   10.0339   56.6156 C   0  0  0  0  0  0  0  0  0  0  0  0
   27.5556    9.8151   58.0859 C   0  0  0  0  0  0  0  0  0  0  0  0
   28.1294    8.4381   57.7192 C   0  0  0  0  0  0  0  0  0  0  0  0
   28.2463    8.8576   56.2627 C   0  0  0  0  0  0  0  0  0  0  0  0
   27.5060    8.0171   55.3493 N   0  0  0  0  0  0  0  0  0  0  0  0
   27.1727    7.1910   55.9241 H   0  0  0  0  0  0  0  0  0  0  0  0
   24.0777    8.0535   54.9257 C   0  0  0  0  0  0  0  0  0  0  0  0
   23.9339    8.6484   56.0594 O   0  0  0  0  0  0  0  0  0  0  0  0
   25.3084    8.1169   54.3023 N   0  0  0  0  0  0  0  0  0  0  0  0
   25.4627    7.6591   53.3680 H   0  0  0  0  0  0  0  0  0  0  0  0
   20.6112    6.0425   53.4196 C   0  0  0  0  0  0  0  0  0  0  0  0
   20.7836    7.4144   53.3147 C   0  0  0  0  0  0  0  0  0  0  0  0
   21.8808    8.0776   53.7922 C   0  0  0  0  0  0  0  0  0  0  0  0
   22.9129    7.3779   54.4307 C   0  0  0  0  0  0  0  0  0  0  0  0
   22.7324    6.0056   54.5327 C   0  0  0  0  0  0  0  0  0  0  0  0
   21.6315    5.3589   54.0510 C   0  0  0  0  0  0  0  0  0  0  0  0
   18.3007    5.5512   53.6515 F   0  0  0  0  0  0  0  0  0  0  0  0
   19.4006    5.3351   52.8821 C   0  0  0  0  0  0  0  0  0  0  0  0
   19.6411    3.9704   52.8209 F   0  0  0  0  0  0  0  0  0  0  0  0
   19.1465    5.7702   51.6053 F   0  0  0  0  0  0  0  0  0  0  0  0
   28.5950   10.7001   58.7026 C   0  0  0  0  0  0  0  0  0  0  0  0
   29.1235   11.5859   57.9914 O   0  0  0  0  0  0  0  0  0  0  0  0
   28.9631   10.5280   60.0582 N   0  0  0  0  0  0  0  0  0  0  0  0
   28.4280    9.7455   60.5653 H   0  0  0  0  0  0  0  0  0  0  0  0
   29.9108   11.2389   60.7895 C   0  0  0  0  0  0  0  0  0  0  0  0
   30.8628   10.6798   61.5857 C   0  0  0  0  0  0  0  0  0  0  0  0
   31.7804   11.4884   62.2591 C   0  0  0  0  0  0  0  0  0  0  0  0
   31.7469   12.8492   62.1369 C   0  0  0  0  0  0  0  0  0  0  0  0
   30.7947   13.4450   61.3378 C   0  0  0  0  0  0  0  0  0  0  0  0
   29.9087   12.6281   60.6897 C   0  0  0  0  0  0  0  0  0  0  0  0
 19 20  1  0  0  0
 20 21  1  0  0  0
 20 22  1  0  0  0
 20 13  1  0  0  0
 13 14  2  0  0  0
 14 15  1  0  0  0
 15 16  2  0  0  0
 16 17  1  0  0  0
 17 18  2  0  0  0
 16  9  1  0  0  0
  9 10  2  0  0  0
  9 11  1  0  0  0
 11  1  1  0  0  0
  1  2  1  0  0  0
  2  3  1  0  0  0
  3  4  1  0  0  0
  4  5  1  0  0  0
  5  6  1  0  0  0
  6  7  1  0  0  0
  4 23  1  0  0  0
 23 24  2  0  0  0
 23 25  1  0  0  0
 25 27  1  0  0  0
 27 28  2  0  0  0
 28 29  1  0  0  0
 29 30  2  0  0  0
 30 31  1  0  0  0
 31 32  2  0  0  0
 18 13  1  0  0  0
  7  1  1  0  0  0
 32 27  1  0  0  0
  6  3  1  0  0  0
 11 12  1  0  0  0
  7  8  1  0  0  0
 25 26  1  0  0  0
M  END
> <minimizedAffinity>
17.03545

> <CNNscore>
0.4757463038

> <CNNaffinity>
5.4940466881

> <CNN_VS>
2.6137723923

> <CNNaffinity_variance>
0.0387893543

$$$$
[H]c1c([H])c([H])c(N([H])C(=O)[C@]2([H])C([H])([H])[C@@]3([H])N([H])[C@@]([H])(N([H])C(=O)c4c([H])c([H])c(C(F)(F)F)c([H])c4[H])C([H])([H])[C@@]23[H])c([H])c1[H]


 32 35  0  0  0  0  0  0  0  0999 V2000
   25.3845    7.6245   54.2586 C   0  0  0  0  0  0  0  0  0  0  0  0
   24.4200    6.7235   55.0783 C   0  0  0  0  0  0  0  0  0  0  0  0
   23.3342    6.5487   54.0159 C   0  0  0  0  0  0  0  0  0  0  0  0
   21.9454    6.7512   54.5417 C   0  0  0  0  0  0  0  0  0  0  0  0
   22.1018    8.2265   54.1431 C   0  0  0  0  0  0  0  0  0  0  0  0
   23.3308    7.8884   53.3148 C   0  0  0  0  0  0  0  0  0  0  0  0
   24.5241    8.5952   53.7210 N   0  0  0  0  0  0  0  0  0  0  0  0
   24.2042    9.3184   54.4270 H   0  0  0  0  0  0  0  0  0  0  0  0
   26.2104    9.0087   56.1761 C   0  0  0  0  0  0  0  0  0  0  0  0
   25.0202    9.4736   56.3412 O   0  0  0  0  0  0  0  0  0  0  0  0
   26.4239    8.0956   55.1622 N   0  0  0  0  0  0  0  0  0  0  0  0
   27.3769    7.6793   55.0046 H   0  0  0  0  0  0  0  0  0  0  0  0
   29.1415   10.5110   58.9112 C   0  0  0  0  0  0  0  0  0  0  0  0
   28.5798   11.2937   57.9138 C   0  0  0  0  0  0  0  0  0  0  0  0
   27.6452   10.8332   57.0271 C   0  0  0  0  0  0  0  0  0  0  0  0
   27.1998    9.5063   57.0880 C   0  0  0  0  0  0  0  0  0  0  0  0
   27.7675    8.7293   58.0880 C   0  0  0  0  0  0  0  0  0  0  0  0
   28.6991    9.2040   58.9650 C   0  0  0  0  0  0  0  0  0  0  0  0
   31.4030   11.1005   59.3260 F   0  0  0  0  0  0  0  0  0  0  0  0
   30.1617   11.0402   59.8776 C   0  0  0  0  0  0  0  0  0  0  0  0
   30.2119   10.2282   61.0010 F   0  0  0  0  0  0  0  0  0  0  0  0
   29.7929   12.2967   60.2889 F   0  0  0  0  0  0  0  0  0  0  0  0
   20.8836    6.0703   53.7337 C   0  0  0  0  0  0  0  0  0  0  0  0
   20.5579    6.5712   52.6324 O   0  0  0  0  0  0  0  0  0  0  0  0
   20.2698    4.8896   54.2155 N   0  0  0  0  0  0  0  0  0  0  0  0
   20.6459    4.5518   55.1643 H   0  0  0  0  0  0  0  0  0  0  0  0
   19.2645    4.1360   53.6157 C   0  0  0  0  0  0  0  0  0  0  0  0
   19.4500    3.2665   52.5851 C   0  0  0  0  0  0  0  0  0  0  0  0
   18.3716    2.5432   52.0720 C   0  0  0  0  0  0  0  0  0  0  0  0
   17.1140    2.6880   52.5870 C   0  0  0  0  0  0  0  0  0  0  0  0
   16.8943    3.5608   53.6311 C   0  0  0  0  0  0  0  0  0  0  0  0
   17.9694    4.2561   54.1140 C   0  0  0  0  0  0  0  0  0  0  0  0
 19 20  1  0  0  0
 20 21  1  0  0  0
 20 22  1  0  0  0
 20 13  1  0  0  0
 13 14  2  0  0  0
 14 15  1  0  0  0
 15 16  2  0  0  0
 16 17  1  0  0  0
 17 18  2  0  0  0
 16  9  1  0  0  0
  9 10  2  0  0  0
  9 11  1  0  0  0
 11  1  1  0  0  0
  1  2  1  0  0  0
  2  3  1  0  0  0
  3  4  1  0  0  0
  4  5  1  0  0  0
  5  6  1  0  0  0
  6  7  1  0  0  0
  4 23  1  0  0  0
 23 24  2  0  0  0
 23 25  1  0  0  0
 25 27  1  0  0  0
 27 28  2  0  0  0
 28 29  1  0  0  0
 29 30  2  0  0  0
 30 31  1  0  0  0
 31 32  2  0  0  0
 18 13  1  0  0  0
  7  1  1  0  0  0
 32 27  1  0  0  0
  6  3  1  0  0  0
 11 12  1  0  0  0
  7  8  1  0  0  0
 25 26  1  0  0  0
M  END
> <minimizedAffinity>
20.43419

> <CNNscore>
0.4698105454

> <CNNaffinity>
5.7271246910

> <CNN_VS>
2.6906635761

> <CNNaffinity_variance>
0.2934505939

$$$$
[H]c1c([H])c([H])c(N([H])C(=O)[C@]2([H])C([H])([H])[C@@]3([H])N([H])[C@@]([H])(N([H])C(=O)c4c([H])c([H])c(C(F)(F)F)c([H])c4[H])C([H])([H])[C@@]23[H])c([H])c1[H]


 32 35  0  0  0  0  0  0  0  0999 V2000
   22.1682    7.0898   52.5425 C   0  0  0  0  0  0  0  0  0  0  0  0
   22.1982    5.5443   52.6981 C   0  0  0  0  0  0  0  0  0  0  0  0
   20.6899    5.2952   52.6613 C   0  0  0  0  0  0  0  0  0  0  0  0
   20.2111    4.3666   53.7359 C   0  0  0  0  0  0  0  0  0  0  0  0
   19.9862    5.6181   54.5979 C   0  0  0  0  0  0  0  0  0  0  0  0
   20.1315    6.5067   53.3731 C   0  0  0  0  0  0  0  0  0  0  0  0
   21.1956    7.4791   53.4773 N   0  0  0  0  0  0  0  0  0  0  0  0
   21.5292    7.4343   54.4825 H   0  0  0  0  0  0  0  0  0  0  0  0
   24.1688    7.5517   53.9775 C   0  0  0  0  0  0  0  0  0  0  0  0
   23.5456    7.0556   54.9901 O   0  0  0  0  0  0  0  0  0  0  0  0
   23.5211    7.5818   52.7581 N   0  0  0  0  0  0  0  0  0  0  0  0
   24.0006    7.9630   51.9032 H   0  0  0  0  0  0  0  0  0  0  0  0
   28.1306    8.9545   54.7927 C   0  0  0  0  0  0  0  0  0  0  0  0
   27.0170    9.4248   55.4721 C   0  0  0  0  0  0  0  0  0  0  0  0
   25.7424    8.9935   55.2251 C   0  0  0  0  0  0  0  0  0  0  0  0
   25.4965    8.0267   54.2416 C   0  0  0  0  0  0  0  0  0  0  0  0
   26.6159    7.5620   53.5655 C   0  0  0  0  0  0  0  0  0  0  0  0
   27.8813    8.0026   53.8239 C   0  0  0  0  0  0  0  0  0  0  0  0
   30.1307    9.9392   53.9779 F   0  0  0  0  0  0  0  0  0  0  0  0
   29.5218    9.4382   55.0855 C   0  0  0  0  0  0  0  0  0  0  0  0
   30.2885    8.3947   55.5825 F   0  0  0  0  0  0  0  0  0  0  0  0
   29.4727   10.4140   56.0496 F   0  0  0  0  0  0  0  0  0  0  0  0
   18.9201    3.6782   53.4142 C   0  0  0  0  0  0  0  0  0  0  0  0
   18.9640    2.5420   52.8881 O   0  0  0  0  0  0  0  0  0  0  0  0
   17.6862    4.3087   53.7022 N   0  0  0  0  0  0  0  0  0  0  0  0
   17.7810    5.2738   54.1662 H   0  0  0  0  0  0  0  0  0  0  0  0
   16.4000    3.8329   53.4618 C   0  0  0  0  0  0  0  0  0  0  0  0
   15.2793    4.6037   53.4111 C   0  0  0  0  0  0  0  0  0  0  0  0
   14.0383    4.0240   53.1402 C   0  0  0  0  0  0  0  0  0  0  0  0
   13.9184    2.6804   52.9207 C   0  0  0  0  0  0  0  0  0  0  0  0
   15.0352    1.8735   52.9653 C   0  0  0  0  0  0  0  0  0  0  0  0
   16.2379    2.4687   53.2324 C   0  0  0  0  0  0  0  0  0  0  0  0
 19 20  1  0  0  0
 20 21  1  0  0  0
 20 22  1  0  0  0
 20 13  1  0  0  0
 13 14  2  0  0  0
 14 15  1  0  0  0
 15 16  2  0  0  0
 16 17  1  0  0  0
 17 18  2  0  0  0
 16  9  1  0  0  0
  9 10  2  0  0  0
  9 11  1  0  0  0
 11  1  1  0  0  0
  1  2  1  0  0  0
  2  3  1  0  0  0
  3  4  1  0  0  0
  4  5  1  0  0  0
  5  6  1  0  0  0
  6  7  1  0  0  0
  4 23  1  0  0  0
 23 24  2  0  0  0
 23 25  1  0  0  0
 25 27  1  0  0  0
 27 28  2  0  0  0
 28 29  1  0  0  0
 29 30  2  0  0  0
 30 31  1  0  0  0
 31 32  2  0  0  0
 18 13  1  0  0  0
  7  1  1  0  0  0
 32 27  1  0  0  0
  6  3  1  0  0  0
 11 12  1  0  0  0
  7  8  1  0  0  0
 25 26  1  0  0  0
M  END
> <minimizedAffinity>
39.20129

> <CNNscore>
0.4623156488

> <CNNaffinity>
5.7789111137

> <CNN_VS>
2.6716809273

> <CNNaffinity_variance>
0.4023815691

$$$$
[H]c1c([H])c([H])c(N([H])C(=O)[C@]2([H])C([H])([H])[C@@]3([H])N([H])[C@@]([H])(N([H])C(=O)c4c([H])c([H])c(C(F)(F)F)c([H])c4[H])C([H])([H])[C@@]23[H])c([H])c1[H]


 32 35  0  0  0  0  0  0  0  0999 V2000
   26.2701    8.7946   55.9630 C   0  0  0  0  0  0  0  0  0  0  0  0
   26.1000    9.3961   57.3853 C   0  0  0  0  0  0  0  0  0  0  0  0
   27.4424   10.1230   57.4733 C   0  0  0  0  0  0  0  0  0  0  0  0
   28.1595    9.8992   58.7702 C   0  0  0  0  0  0  0  0  0  0  0  0
   28.8464    8.7076   58.0860 C   0  0  0  0  0  0  0  0  0  0  0  0
   28.3757    9.1974   56.7260 C   0  0  0  0  0  0  0  0  0  0  0  0
   27.5606    8.2432   56.0092 N   0  0  0  0  0  0  0  0  0  0  0  0
   27.6186    7.3414   56.5633 H   0  0  0  0  0  0  0  0  0  0  0  0
   24.4533    7.7910   54.5606 C   0  0  0  0  0  0  0  0  0  0  0  0
   24.7784    8.5773   53.5931 O   0  0  0  0  0  0  0  0  0  0  0  0
   25.1681    7.8702   55.7396 N   0  0  0  0  0  0  0  0  0  0  0  0
   24.9458    7.2347   56.5476 H   0  0  0  0  0  0  0  0  0  0  0  0
   21.1744    5.1614   53.7465 C   0  0  0  0  0  0  0  0  0  0  0  0
   21.0663    6.2479   54.6013 C   0  0  0  0  0  0  0  0  0  0  0  0
   22.1016    7.0982   54.8785 C   0  0  0  0  0  0  0  0  0  0  0  0
   23.3592    6.9023   54.2932 C   0  0  0  0  0  0  0  0  0  0  0  0
   23.4596    5.8123   53.4400 C   0  0  0  0  0  0  0  0  0  0  0  0
   22.4168    4.9733   53.1738 C   0  0  0  0  0  0  0  0  0  0  0  0
   19.2686    4.6913   52.4120 F   0  0  0  0  0  0  0  0  0  0  0  0
   20.0219    4.2449   53.4521 C   0  0  0  0  0  0  0  0  0  0  0  0
   19.2124    4.1313   54.5727 F   0  0  0  0  0  0  0  0  0  0  0  0
   20.4985    2.9925   53.1548 F   0  0  0  0  0  0  0  0  0  0  0  0
   29.1401   10.9772   59.1172 C   0  0  0  0  0  0  0  0  0  0  0  0
   30.1081   11.1746   58.3468 O   0  0  0  0  0  0  0  0  0  0  0  0
   28.9657   11.7467   60.2921 N   0  0  0  0  0  0  0  0  0  0  0  0
   28.0900   11.4918   60.8612 H   0  0  0  0  0  0  0  0  0  0  0  0
   29.7754   12.7693   60.7790 C   0  0  0  0  0  0  0  0  0  0  0  0
   31.0719   12.6212   61.1662 C   0  0  0  0  0  0  0  0  0  0  0  0
   31.8006   13.7222   61.6202 C   0  0  0  0  0  0  0  0  0  0  0  0
   31.2363   14.9652   61.6864 C   0  0  0  0  0  0  0  0  0  0  0  0
   29.9253   15.1470   61.3012 C   0  0  0  0  0  0  0  0  0  0  0  0
   29.2355   14.0506   60.8602 C   0  0  0  0  0  0  0  0  0  0  0  0
 19 20  1  0  0  0
 20 21  1  0  0  0
 20 22  1  0  0  0
 20 13  1  0  0  0
 13 14  2  0  0  0
 14 15  1  0  0  0
 15 16  2  0  0  0
 16 17  1  0  0  0
 17 18  2  0  0  0
 16  9  1  0  0  0
  9 10  2  0  0  0
  9 11  1  0  0  0
 11  1  1  0  0  0
  1  2  1  0  0  0
  2  3  1  0  0  0
  3  4  1  0  0  0
  4  5  1  0  0  0
  5  6  1  0  0  0
  6  7  1  0  0  0
  4 23  1  0  0  0
 23 24  2  0  0  0
 23 25  1  0  0  0
 25 27  1  0  0  0
 27 28  2  0  0  0
 28 29  1  0  0  0
 29 30  2  0  0  0
 30 31  1  0  0  0
 31 32  2  0  0  0
 18 13  1  0  0  0
  7  1  1  0  0  0
 32 27  1  0  0  0
  6  3  1  0  0  0
 11 12  1  0  0  0
  7  8  1  0  0  0
 25 26  1  0  0  0
M  END
> <minimizedAffinity>
24.12411

> <CNNscore>
0.4534904361

> <CNNaffinity>
5.2702775002

> <CNN_VS>
2.3900203705

> <CNNaffinity_variance>
0.1816777885

$$$$
[H]c1c([H])c([H])c(N([H])C(=O)[C@]2([H])C([H])([H])[C@@]3([H])N([H])[C@@]([H])(N([H])C(=O)c4c([H])c([H])c(C(F)(F)F)c([H])c4[H])C([H])([H])[C@@]23[H])c([H])c1[H]


 32 35  0  0  0  0  0  0  0  0999 V2000
   21.8213    6.5701   53.1253 C   0  0  0  0  0  0  0  0  0  0  0  0
   20.6545    7.5866   53.2639 C   0  0  0  0  0  0  0  0  0  0  0  0
   21.3319    8.7838   52.5960 C   0  0  0  0  0  0  0  0  0  0  0  0
   21.1760   10.0626   53.3618 C   0  0  0  0  0  0  0  0  0  0  0  0
   22.4950    9.7037   54.0626 C   0  0  0  0  0  0  0  0  0  0  0  0
   22.7754    8.6333   53.0202 C   0  0  0  0  0  0  0  0  0  0  0  0
   22.9312    7.3059   53.5702 N   0  0  0  0  0  0  0  0  0  0  0  0
   22.9643    7.4323   54.6222 H   0  0  0  0  0  0  0  0  0  0  0  0
   22.2910    4.2852   54.0383 C   0  0  0  0  0  0  0  0  0  0  0  0
   23.4452    4.3039   53.4661 O   0  0  0  0  0  0  0  0  0  0  0  0
   21.4681    5.3848   53.8927 N   0  0  0  0  0  0  0  0  0  0  0  0
   20.5251    5.4166   54.3575 H   0  0  0  0  0  0  0  0  0  0  0  0
   21.4094    0.7169   56.2333 C   0  0  0  0  0  0  0  0  0  0  0  0
   21.1491    0.8433   54.8772 C   0  0  0  0  0  0  0  0  0  0  0  0
   21.4189    1.9751   54.1575 C   0  0  0  0  0  0  0  0  0  0  0  0
   21.9879    3.0944   54.7787 C   0  0  0  0  0  0  0  0  0  0  0  0
   22.2443    2.9603   56.1361 C   0  0  0  0  0  0  0  0  0  0  0  0
   21.9691    1.8240   56.8398 C   0  0  0  0  0  0  0  0  0  0  0  0
   19.7815   -0.6771   57.2534 F   0  0  0  0  0  0  0  0  0  0  0  0
   21.1104   -0.5382   57.0017 C   0  0  0  0  0  0  0  0  0  0  0  0
   21.7940   -0.5258   58.2085 F   0  0  0  0  0  0  0  0  0  0  0  0
   21.5470   -1.6261   56.2876 F   0  0  0  0  0  0  0  0  0  0  0  0
   21.3143   11.2954   52.5221 C   0  0  0  0  0  0  0  0  0  0  0  0
   22.0089   11.2342   51.4812 O   0  0  0  0  0  0  0  0  0  0  0  0
   20.6709   12.4954   52.9080 N   0  0  0  0  0  0  0  0  0  0  0  0
   20.0930   12.4161   53.8110 H   0  0  0  0  0  0  0  0  0  0  0  0
   20.6987   13.7312   52.2673 C   0  0  0  0  0  0  0  0  0  0  0  0
   21.4505   14.0257   51.1714 C   0  0  0  0  0  0  0  0  0  0  0  0
   21.3854   15.2953   50.5941 C   0  0  0  0  0  0  0  0  0  0  0  0
   20.5724   16.2655   51.1094 C   0  0  0  0  0  0  0  0  0  0  0  0
   19.7990   15.9976   52.2185 C   0  0  0  0  0  0  0  0  0  0  0  0
   19.8826   14.7451   52.7631 C   0  0  0  0  0  0  0  0  0  0  0  0
 19 20  1  0  0  0
 20 21  1  0  0  0
 20 22  1  0  0  0
 20 13  1  0  0  0
 13 14  2  0  0  0
 14 15  1  0  0  0
 15 16  2  0  0  0
 16 17  1  0  0  0
 17 18  2  0  0  0
 16  9  1  0  0  0
  9 10  2  0  0  0
  9 11  1  0  0  0
 11  1  1  0  0  0
  1  2  1  0  0  0
  2  3  1  0  0  0
  3  4  1  0  0  0
  4  5  1  0  0  0
  5  6  1  0  0  0
  6  7  1  0  0  0
  4 23  1  0  0  0
 23 24  2  0  0  0
 23 25  1  0  0  0
 25 27  1  0  0  0
 27 28  2  0  0  0
 28 29  1  0  0  0
 29 30  2  0  0  0
 30 31  1  0  0  0
 31 32  2  0  0  0
 18 13  1  0  0  0
  7  1  1  0  0  0
 32 27  1  0  0  0
  6  3  1  0  0  0
 11 12  1  0  0  0
  7  8  1  0  0  0
 25 26  1  0  0  0
M  END
> <minimizedAffinity>
79.82694

> <CNNscore>
0.4457626045

> <CNNaffinity>
5.5878176689

> <CNN_VS>
2.4908401966

> <CNNaffinity_variance>
0.2764763534

$$$$
[H]c1c([H])c([H])c(N([H])C(=O)[C@]2([H])C([H])([H])[C@@]3([H])N([H])[C@@]([H])(N([H])C(=O)c4c([H])c([H])c(C(F)(F)F)c([H])c4[H])C([H])([H])[C@]23[H])c([H])c1[H]


 32 35  0  0  0  0  0  0  0  0999 V2000
   20.2792    7.5341   52.9293 C   0  0  0  0  0  0  0  0  0  0  0  0
   20.1507    8.5442   54.0487 C   0  0  0  0  0  0  0  0  0  0  0  0
   21.4810    8.4900   54.6443 C   0  0  0  0  0  0  0  0  0  0  0  0
   22.4169    9.5110   54.9216 C   0  0  0  0  0  0  0  0  0  0  0  0
   23.4077    8.5555   54.1662 C   0  0  0  0  0  0  0  0  0  0  0  0
   22.2644    8.3413   53.2989 C   0  0  0  0  0  0  0  0  0  0  0  0
   21.7091    7.1305   52.9254 N   0  0  0  0  0  0  0  0  0  0  0  0
   21.8527    6.4223   53.6979 H   0  0  0  0  0  0  0  0  0  0  0  0
   19.6497    5.1083   53.4204 C   0  0  0  0  0  0  0  0  0  0  0  0
   20.7944    4.7573   53.8766 O   0  0  0  0  0  0  0  0  0  0  0  0
   19.4366    6.3899   52.9899 N   0  0  0  0  0  0  0  0  0  0  0  0
   18.4390    6.6019   52.6020 H   0  0  0  0  0  0  0  0  0  0  0  0
   16.6732    2.0389   53.3642 C   0  0  0  0  0  0  0  0  0  0  0  0
   16.5010    3.2254   54.0441 C   0  0  0  0  0  0  0  0  0  0  0  0
   17.4341    4.2195   54.0705 C   0  0  0  0  0  0  0  0  0  0  0  0
   18.6350    4.0708   53.3908 C   0  0  0  0  0  0  0  0  0  0  0  0
   18.8117    2.8809   52.7060 C   0  0  0  0  0  0  0  0  0  0  0  0
   17.8512    1.8859   52.6933 C   0  0  0  0  0  0  0  0  0  0  0  0
   16.1345   -0.2219   52.9084 F   0  0  0  0  0  0  0  0  0  0  0  0
   15.6184    0.9592   53.3828 C   0  0  0  0  0  0  0  0  0  0  0  0
   14.5179    1.3343   52.6888 F   0  0  0  0  0  0  0  0  0  0  0  0
   15.3099    0.7417   54.7347 F   0  0  0  0  0  0  0  0  0  0  0  0
   22.4243   10.8486   54.2929 C   0  0  0  0  0  0  0  0  0  0  0  0
   23.0967   11.8319   54.6326 O   0  0  0  0  0  0  0  0  0  0  0  0
   21.5612   11.0261   53.1757 N   0  0  0  0  0  0  0  0  0  0  0  0
   20.9677   10.2101   52.8346 H   0  0  0  0  0  0  0  0  0  0  0  0
   21.4295   12.2513   52.4950 C   0  0  0  0  0  0  0  0  0  0  0  0
   22.0735   12.5934   51.3202 C   0  0  0  0  0  0  0  0  0  0  0  0
   21.8673   13.8545   50.7274 C   0  0  0  0  0  0  0  0  0  0  0  0
   21.0257   14.7677   51.2949 C   0  0  0  0  0  0  0  0  0  0  0  0
   20.3721   14.4446   52.4662 C   0  0  0  0  0  0  0  0  0  0  0  0
   20.5829   13.2064   53.0390 C   0  0  0  0  0  0  0  0  0  0  0  0
 19 20  1  0  0  0
 20 21  1  0  0  0
 20 22  1  0  0  0
 20 13  1  0  0  0
 13 14  2  0  0  0
 14 15  1  0  0  0
 15 16  2  0  0  0
 16 17  1  0  0  0
 17 18  2  0  0  0
 16  9  1  0  0  0
  9 10  2  0  0  0
  9 11  1  0  0  0
 11  1  1  0  0  0
  1  2  1  0  0  0
  2  3  1  0  0  0
  3  4  1  0  0  0
  4  5  1  0  0  0
  5  6  1  0  0  0
  6  7  1  0  0  0
  4 23  1  0  0  0
 23 24  2  0  0  0
 23 25  1  0  0  0
 25 27  1  0  0  0
 27 28  2  0  0  0
 28 29  1  0  0  0
 29 30  2  0  0  0
 30 31  1  0  0  0
 31 32  2  0  0  0
 18 13  1  0  0  0
  7  1  1  0  0  0
 32 27  1  0  0  0
  6  3  1  0  0  0
 11 12  1  0  0  0
  7  8  1  0  0  0
 25 26  1  0  0  0
M  END
> <minimizedAffinity>
43.53664

> <CNNscore>
0.5679776669

> <CNNaffinity>
6.1907730103

> <CNN_VS>
3.5162208080

> <CNNaffinity_variance>
0.2507356107

$$$$
[H]c1c([H])c([H])c(N([H])C(=O)[C@]2([H])C([H])([H])[C@@]3([H])N([H])[C@@]([H])(N([H])C(=O)c4c([H])c([H])c(C(F)(F)F)c([H])c4[H])C([H])([H])[C@]23[H])c([H])c1[H]


 32 35  0  0  0  0  0  0  0  0999 V2000
   23.8974    6.2736   53.1769 C   0  0  0  0  0  0  0  0  0  0  0  0
   24.0997    7.7137   52.7587 C   0  0  0  0  0  0  0  0  0  0  0  0
   24.8356    8.2477   53.8991 C   0  0  0  0  0  0  0  0  0  0  0  0
   26.0627    8.9440   53.9693 C   0  0  0  0  0  0  0  0  0  0  0  0
   26.4007    7.8679   55.0616 C   0  0  0  0  0  0  0  0  0  0  0  0
   25.7124    6.9766   54.1467 C   0  0  0  0  0  0  0  0  0  0  0  0
   24.6675    6.1178   54.4378 N   0  0  0  0  0  0  0  0  0  0  0  0
   24.0895    6.5192   55.2276 H   0  0  0  0  0  0  0  0  0  0  0  0
   21.3494    6.4189   53.0834 C   0  0  0  0  0  0  0  0  0  0  0  0
   21.2958    7.5943   52.5760 O   0  0  0  0  0  0  0  0  0  0  0  0
   22.5566    5.8325   53.3518 N   0  0  0  0  0  0  0  0  0  0  0  0
   22.5136    4.8374   53.7974 H   0  0  0  0  0  0  0  0  0  0  0  0
   17.5878    4.5569   53.8998 C   0  0  0  0  0  0  0  0  0  0  0  0
   17.7283    5.9230   53.7834 C   0  0  0  0  0  0  0  0  0  0  0  0
   18.9165    6.5370   53.5177 C   0  0  0  0  0  0  0  0  0  0  0  0
   20.0708    5.7852   53.3485 C   0  0  0  0  0  0  0  0  0  0  0  0
   19.9340    4.4126   53.4639 C   0  0  0  0  0  0  0  0  0  0  0  0
   18.7182    3.8113   53.7342 C   0  0  0  0  0  0  0  0  0  0  0  0
   15.2317    4.6781   53.6908 F   0  0  0  0  0  0  0  0  0  0  0  0
   16.2536    3.9255   54.2161 C   0  0  0  0  0  0  0  0  0  0  0  0
   16.1001    3.7413   55.5488 F   0  0  0  0  0  0  0  0  0  0  0  0
   16.2334    2.6993   53.5337 F   0  0  0  0  0  0  0  0  0  0  0  0
   27.1008    8.9415   52.9172 C   0  0  0  0  0  0  0  0  0  0  0  0
   28.2881    8.6096   53.0376 O   0  0  0  0  0  0  0  0  0  0  0  0
   26.6904    9.3709   51.6242 N   0  0  0  0  0  0  0  0  0  0  0  0
   25.6777    9.6580   51.4620 H   0  0  0  0  0  0  0  0  0  0  0  0
   27.5714    9.4590   50.5296 C   0  0  0  0  0  0  0  0  0  0  0  0
   27.9995    8.3984   49.7527 C   0  0  0  0  0  0  0  0  0  0  0  0
   28.8883    8.6049   48.6795 C   0  0  0  0  0  0  0  0  0  0  0  0
   29.3458    9.8555   48.3780 C   0  0  0  0  0  0  0  0  0  0  0  0
   28.9288   10.9274   49.1400 C   0  0  0  0  0  0  0  0  0  0  0  0
   28.0589   10.7128   50.1903 C   0  0  0  0  0  0  0  0  0  0  0  0
 19 20  1  0  0  0
 20 21  1  0  0  0
 20 22  1  0  0  0
 20 13  1  0  0  0
 13 14  2  0  0  0
 14 15  1  0  0  0
 15 16  2  0  0  0
 16 17  1  0  0  0
 17 18  2  0  0  0
 16  9  1  0  0  0
  9 10  2  0  0  0
  9 11  1  0  0  0
 11  1  1  0  0  0
  1  2  1  0  0  0
  2  3  1  0  0  0
  3  4  1  0  0  0
  4  5  1  0  0  0
  5  6  1  0  0  0
  6  7  1  0  0  0
  4 23  1  0  0  0
 23 24  2  0  0  0
 23 25  1  0  0  0
 25 27  1  0  0  0
 27 28  2  0  0  0
 28 29  1  0  0  0
 29 30  2  0  0  0
 30 31  1  0  0  0
 31 32  2  0  0  0
 18 13  1  0  0  0
  7  1  1  0  0  0
 32 27  1  0  0  0
  6  3  1  0  0  0
 11 12  1  0  0  0
  7  8  1  0  0  0
 25 26  1  0  0  0
M  END
> <minimizedAffinity>
32.94168

> <CNNscore>
0.5525888205

> <CNNaffinity>
5.6581430435

> <CNN_VS>
3.1266264915

> <CNNaffinity_variance>
0.3030067980

$$$$
[H]c1c([H])c([H])c(N([H])C(=O)[C@]2([H])C([H])([H])[C@@]3([H])N([H])[C@@]([H])(N([H])C(=O)c4c([H])c([H])c(C(F)(F)F)c([H])c4[H])C([H])([H])[C@]23[H])c([H])c1[H]


 32 35  0  0  0  0  0  0  0  0999 V2000
   24.3000    8.1455   54.7443 C   0  0  0  0  0  0  0  0  0  0  0  0
   22.8337    8.1866   55.1162 C   0  0  0  0  0  0  0  0  0  0  0  0
   22.2980    9.0755   54.0914 C   0  0  0  0  0  0  0  0  0  0  0  0
   21.2297    8.9081   53.1825 C   0  0  0  0  0  0  0  0  0  0  0  0
   22.2967    9.3692   52.1271 C   0  0  0  0  0  0  0  0  0  0  0  0
   23.1840    8.5388   52.9198 C   0  0  0  0  0  0  0  0  0  0  0  0
   24.4034    8.8966   53.4666 N   0  0  0  0  0  0  0  0  0  0  0  0
   24.4002    9.9302   53.6919 H   0  0  0  0  0  0  0  0  0  0  0  0
   26.5820    8.8240   55.6686 C   0  0  0  0  0  0  0  0  0  0  0  0
   27.2558    8.4968   54.6290 O   0  0  0  0  0  0  0  0  0  0  0  0
   25.2244    8.6525   55.6989 N   0  0  0  0  0  0  0  0  0  0  0  0
   24.7289    8.9417   56.6270 H   0  0  0  0  0  0  0  0  0  0  0  0
   28.8119   10.4201   58.9493 C   0  0  0  0  0  0  0  0  0  0  0  0
   28.4962    9.0823   58.8494 C   0  0  0  0  0  0  0  0  0  0  0  0
   27.7916    8.5513   57.8096 C   0  0  0  0  0  0  0  0  0  0  0  0
   27.3492    9.3647   56.7757 C   0  0  0  0  0  0  0  0  0  0  0  0
   27.6648   10.7091   56.8718 C   0  0  0  0  0  0  0  0  0  0  0  0
   28.3807   11.2258   57.9363 C   0  0  0  0  0  0  0  0  0  0  0  0
   29.3988   12.3219   60.2331 F   0  0  0  0  0  0  0  0  0  0  0  0
   29.5765   10.9637   60.1320 C   0  0  0  0  0  0  0  0  0  0  0  0
   30.8890   10.6386   60.0609 F   0  0  0  0  0  0  0  0  0  0  0  0
   28.9803   10.4007   61.2711 F   0  0  0  0  0  0  0  0  0  0  0  0
   20.6512    7.6078   52.7836 C   0  0  0  0  0  0  0  0  0  0  0  0
   20.2505    7.2802   51.6583 O   0  0  0  0  0  0  0  0  0  0  0  0
   20.5403    6.6254   53.8070 N   0  0  0  0  0  0  0  0  0  0  0  0
   20.8792    6.8505   54.7913 H   0  0  0  0  0  0  0  0  0  0  0  0
   19.9766    5.3535   53.5916 C   0  0  0  0  0  0  0  0  0  0  0  0
   20.6238    4.2710   53.0248 C   0  0  0  0  0  0  0  0  0  0  0  0
   19.9570    3.0419   52.8548 C   0  0  0  0  0  0  0  0  0  0  0  0
   18.6584    2.8878   53.2477 C   0  0  0  0  0  0  0  0  0  0  0  0
   17.9957    3.9554   53.8173 C   0  0  0  0  0  0  0  0  0  0  0  0
   18.6587    5.1557   53.9774 C   0  0  0  0  0  0  0  0  0  0  0  0
 19 20  1  0  0  0
 20 21  1  0  0  0
 20 22  1  0  0  0
 20 13  1  0  0  0
 13 14  2  0  0  0
 14 15  1  0  0  0
 15 16  2  0  0  0
 16 17  1  0  0  0
 17 18  2  0  0  0
 16  9  1  0  0  0
  9 10  2  0  0  0
  9 11  1  0  0  0
 11  1  1  0  0  0
  1  2  1  0  0  0
  2  3  1  0  0  0
  3  4  1  0  0  0
  4  5  1  0  0  0
  5  6  1  0  0  0
  6  7  1  0  0  0
  4 23  1  0  0  0
 23 24  2  0  0  0
 23 25  1  0  0  0
 25 27  1  0  0  0
 27 28  2  0  0  0
 28 29  1  0  0  0
 29 30  2  0  0  0
 30 31  1  0  0  0
 31 32  2  0  0  0
 18 13  1  0  0  0
  7  1  1  0  0  0
 32 27  1  0  0  0
  6  3  1  0  0  0
 11 12  1  0  0  0
  7  8  1  0  0  0
 25 26  1  0  0  0
M  END
> <minimizedAffinity>
15.01064

> <CNNscore>
0.5347695351

> <CNNaffinity>
5.9320082664

> <CNN_VS>
3.1722571850

> <CNNaffinity_variance>
0.1374298930

$$$$
[H]c1c([H])c([H])c(N([H])C(=O)[C@]2([H])C([H])([H])[C@@]3([H])N([H])[C@@]([H])(N([H])C(=O)c4c([H])c([H])c(C(F)(F)F)c([H])c4[H])C([H])([H])[C@]23[H])c([H])c1[H]


 32 35  0  0  0  0  0  0  0  0999 V2000
   23.6943    8.1609   54.5898 C   0  0  0  0  0  0  0  0  0  0  0  0
   24.8492    7.4681   55.2798 C   0  0  0  0  0  0  0  0  0  0  0  0
   25.8312    7.3968   54.2037 C   0  0  0  0  0  0  0  0  0  0  0  0
   27.1776    7.8200   54.1453 C   0  0  0  0  0  0  0  0  0  0  0  0
   26.7099    8.5155   52.8176 C   0  0  0  0  0  0  0  0  0  0  0  0
   25.5176    8.8021   53.5933 C   0  0  0  0  0  0  0  0  0  0  0  0
   24.2055    8.5347   53.2458 N   0  0  0  0  0  0  0  0  0  0  0  0
   24.1709    7.6750   52.6303 H   0  0  0  0  0  0  0  0  0  0  0  0
   21.9731    6.6230   53.4969 C   0  0  0  0  0  0  0  0  0  0  0  0
   22.6412    6.4061   52.4252 O   0  0  0  0  0  0  0  0  0  0  0  0
   22.4770    7.4339   54.4776 N   0  0  0  0  0  0  0  0  0  0  0  0
   21.8382    7.5785   55.3503 H   0  0  0  0  0  0  0  0  0  0  0  0
   18.1646    4.6993   53.7777 C   0  0  0  0  0  0  0  0  0  0  0  0
   18.2984    6.0683   53.6904 C   0  0  0  0  0  0  0  0  0  0  0  0
   19.5021    6.7018   53.5942 C   0  0  0  0  0  0  0  0  0  0  0  0
   20.6802    5.9683   53.5801 C   0  0  0  0  0  0  0  0  0  0  0  0
   20.5504    4.5930   53.6668 C   0  0  0  0  0  0  0  0  0  0  0  0
   19.3186    3.9717   53.7640 C   0  0  0  0  0  0  0  0  0  0  0  0
   16.7368    2.9362   53.0979 F   0  0  0  0  0  0  0  0  0  0  0  0
   16.8097    4.0458   53.9040 C   0  0  0  0  0  0  0  0  0  0  0  0
   15.8136    4.9222   53.6335 F   0  0  0  0  0  0  0  0  0  0  0  0
   16.7251    3.5812   55.2257 F   0  0  0  0  0  0  0  0  0  0  0  0
   27.7942    8.8143   55.0484 C   0  0  0  0  0  0  0  0  0  0  0  0
   28.6407    9.6695   54.7542 O   0  0  0  0  0  0  0  0  0  0  0  0
   27.3699    8.7828   56.4062 N   0  0  0  0  0  0  0  0  0  0  0  0
   26.6362    8.0739   56.7118 H   0  0  0  0  0  0  0  0  0  0  0  0
   27.8920    9.6404   57.3931 C   0  0  0  0  0  0  0  0  0  0  0  0
   27.8901   11.0222   57.3426 C   0  0  0  0  0  0  0  0  0  0  0  0
   28.4454   11.7815   58.3911 C   0  0  0  0  0  0  0  0  0  0  0  0
   28.9956   11.1735   59.4829 C   0  0  0  0  0  0  0  0  0  0  0  0
   29.0054    9.7956   59.5531 C   0  0  0  0  0  0  0  0  0  0  0  0
   28.4598    9.0617   58.5190 C   0  0  0  0  0  0  0  0  0  0  0  0
 19 20  1  0  0  0
 20 21  1  0  0  0
 20 22  1  0  0  0
 20 13  1  0  0  0
 13 14  2  0  0  0
 14 15  1  0  0  0
 15 16  2  0  0  0
 16 17  1  0  0  0
 17 18  2  0  0  0
 16  9  1  0  0  0
  9 10  2  0  0  0
  9 11  1  0  0  0
 11  1  1  0  0  0
  1  2  1  0  0  0
  2  3  1  0  0  0
  3  4  1  0  0  0
  4  5  1  0  0  0
  5  6  1  0  0  0
  6  7  1  0  0  0
  4 23  1  0  0  0
 23 24  2  0  0  0
 23 25  1  0  0  0
 25 27  1  0  0  0
 27 28  2  0  0  0
 28 29  1  0  0  0
 29 30  2  0  0  0
 30 31  1  0  0  0
 31 32  2  0  0  0
 18 13  1  0  0  0
  7  1  1  0  0  0
 32 27  1  0  0  0
  6  3  1  0  0  0
 11 12  1  0  0  0
  7  8  1  0  0  0
 25 26  1  0  0  0
M  END
> <minimizedAffinity>
18.40924

> <CNNscore>
0.5280244350

> <CNNaffinity>
5.7700805664

> <CNN_VS>
3.0467436314

> <CNNaffinity_variance>
0.2817099094

$$$$
[H]c1c([H])c([H])c(N([H])C(=O)[C@]2([H])C([H])([H])[C@@]3([H])N([H])[C@@]([H])(N([H])C(=O)c4c([H])c([H])c(C(F)(F)F)c([H])c4[H])C([H])([H])[C@]23[H])c([H])c1[H]


 32 35  0  0  0  0  0  0  0  0999 V2000
   23.0652    7.3620   54.9580 C   0  0  0  0  0  0  0  0  0  0  0  0
   24.3230    6.5345   54.8057 C   0  0  0  0  0  0  0  0  0  0  0  0
   24.9567    7.1758   53.6592 C   0  0  0  0  0  0  0  0  0  0  0  0
   26.2556    7.7049   53.4913 C   0  0  0  0  0  0  0  0  0  0  0  0
   25.4770    8.9610   52.9612 C   0  0  0  0  0  0  0  0  0  0  0  0
   24.5706    8.6405   54.0480 C   0  0  0  0  0  0  0  0  0  0  0  0
   23.1999    8.4677   53.9748 N   0  0  0  0  0  0  0  0  0  0  0  0
   22.9413    8.0921   53.0204 H   0  0  0  0  0  0  0  0  0  0  0  0
   21.1004    6.3539   53.6751 C   0  0  0  0  0  0  0  0  0  0  0  0
   21.5286    6.6556   52.5057 O   0  0  0  0  0  0  0  0  0  0  0  0
   21.8235    6.6897   54.7877 N   0  0  0  0  0  0  0  0  0  0  0  0
   21.3809    6.4100   55.7451 H   0  0  0  0  0  0  0  0  0  0  0  0
   17.3492    4.3045   53.7805 C   0  0  0  0  0  0  0  0  0  0  0  0
   18.5537    3.6405   53.6930 C   0  0  0  0  0  0  0  0  0  0  0  0
   19.7612    4.2736   53.6639 C   0  0  0  0  0  0  0  0  0  0  0  0
   19.8272    5.6586   53.7231 C   0  0  0  0  0  0  0  0  0  0  0  0
   18.6196    6.3294   53.8118 C   0  0  0  0  0  0  0  0  0  0  0  0
   17.4063    5.6663   53.8395 C   0  0  0  0  0  0  0  0  0  0  0  0
   15.0903    4.2492   53.0705 F   0  0  0  0  0  0  0  0  0  0  0  0
   16.0365    3.5589   53.7879 C   0  0  0  0  0  0  0  0  0  0  0  0
   15.6184    3.3114   55.0517 F   0  0  0  0  0  0  0  0  0  0  0  0
   16.2664    2.3623   53.0913 F   0  0  0  0  0  0  0  0  0  0  0  0
   27.1607    8.0969   54.5921 C   0  0  0  0  0  0  0  0  0  0  0  0
   28.3429    7.7603   54.7453 O   0  0  0  0  0  0  0  0  0  0  0  0
   26.6113    8.9535   55.5866 N   0  0  0  0  0  0  0  0  0  0  0  0
   25.6020    9.2820   55.4988 H   0  0  0  0  0  0  0  0  0  0  0  0
   27.3360    9.3830   56.7146 C   0  0  0  0  0  0  0  0  0  0  0  0
   27.7398    8.5809   57.7660 C   0  0  0  0  0  0  0  0  0  0  0  0
   28.4609    9.1220   58.8484 C   0  0  0  0  0  0  0  0  0  0  0  0
   28.7814   10.4487   58.8850 C   0  0  0  0  0  0  0  0  0  0  0  0
   28.3894   11.2654   57.8443 C   0  0  0  0  0  0  0  0  0  0  0  0
   27.6818   10.7245   56.7896 C   0  0  0  0  0  0  0  0  0  0  0  0
 19 20  1  0  0  0
 20 21  1  0  0  0
 20 22  1  0  0  0
 20 13  1  0  0  0
 13 14  2  0  0  0
 14 15  1  0  0  0
 15 16  2  0  0  0
 16 17  1  0  0  0
 17 18  2  0  0  0
 16  9  1  0  0  0
  9 10  2  0  0  0
  9 11  1  0  0  0
 11  1  1  0  0  0
  1  2  1  0  0  0
  2  3  1  0  0  0
  3  4  1  0  0  0
  4  5  1  0  0  0
  5  6  1  0  0  0
  6  7  1  0  0  0
  4 23  1  0  0  0
 23 24  2  0  0  0
 23 25  1  0  0  0
 25 27  1  0  0  0
 27 28  2  0  0  0
 28 29  1  0  0  0
 29 30  2  0  0  0
 30 31  1  0  0  0
 31 32  2  0  0  0
 18 13  1  0  0  0
  7  1  1  0  0  0
 32 27  1  0  0  0
  6  3  1  0  0  0
 11 12  1  0  0  0
  7  8  1  0  0  0
 25 26  1  0  0  0
M  END
> <minimizedAffinity>
21.06853

> <CNNscore>
0.5151795149

> <CNNaffinity>
5.6231069565

> <CNN_VS>
2.8969094753

> <CNNaffinity_variance>
0.1718022525

$$$$
[H]c1c([H])c([H])c(N([H])C(=O)[C@]2([H])C([H])([H])[C@@]3([H])N([H])[C@@]([H])(N([H])C(=O)c4c([H])c([H])c(C(F)(F)F)c([H])c4[H])C([H])([H])[C@]23[H])c([H])c1[H]


 32 35  0  0  0  0  0  0  0  0999 V2000
   25.9473    9.4170   55.8943 C   0  0  0  0  0  0  0  0  0  0  0  0
   25.9581    9.6319   57.3921 C   0  0  0  0  0  0  0  0  0  0  0  0
   27.1969    8.9631   57.7735 C   0  0  0  0  0  0  0  0  0  0  0  0
   28.3087    9.4199   58.5155 C   0  0  0  0  0  0  0  0  0  0  0  0
   29.1220    8.8558   57.2966 C   0  0  0  0  0  0  0  0  0  0  0  0
   28.0271    9.4193   56.5292 C   0  0  0  0  0  0  0  0  0  0  0  0
   27.2518    8.7799   55.5784 N   0  0  0  0  0  0  0  0  0  0  0  0
   27.1805    7.7511   55.8139 H   0  0  0  0  0  0  0  0  0  0  0  0
   23.5326    8.8980   55.2445 C   0  0  0  0  0  0  0  0  0  0  0  0
   23.0338    9.9976   55.6736 O   0  0  0  0  0  0  0  0  0  0  0  0
   24.8744    8.6529   55.3576 N   0  0  0  0  0  0  0  0  0  0  0  0
   25.2149    7.6868   54.9817 H   0  0  0  0  0  0  0  0  0  0  0  0
   20.7455    6.1359   53.5457 C   0  0  0  0  0  0  0  0  0  0  0  0
   20.4215    7.4503   53.8044 C   0  0  0  0  0  0  0  0  0  0  0  0
   21.2961    8.3491   54.3399 C   0  0  0  0  0  0  0  0  0  0  0  0
   22.5909    7.9628   54.6568 C   0  0  0  0  0  0  0  0  0  0  0  0
   22.9206    6.6436   54.3979 C   0  0  0  0  0  0  0  0  0  0  0  0
   22.0168    5.7490   53.8542 C   0  0  0  0  0  0  0  0  0  0  0  0
   19.5175    5.4440   51.6423 F   0  0  0  0  0  0  0  0  0  0  0  0
   19.7347    5.1730   52.9712 C   0  0  0  0  0  0  0  0  0  0  0  0
   18.5795    5.1931   53.6772 F   0  0  0  0  0  0  0  0  0  0  0  0
   20.3338    3.9048   53.0238 F   0  0  0  0  0  0  0  0  0  0  0  0
   28.6528   10.8396   58.7409 C   0  0  0  0  0  0  0  0  0  0  0  0
   28.6010   11.7626   57.9165 O   0  0  0  0  0  0  0  0  0  0  0  0
   29.0949   11.1821   60.0493 N   0  0  0  0  0  0  0  0  0  0  0  0
   29.1487   10.4289   60.8004 H   0  0  0  0  0  0  0  0  0  0  0  0
   29.4934   12.4838   60.4081 C   0  0  0  0  0  0  0  0  0  0  0  0
   28.7479   13.6338   60.2250 C   0  0  0  0  0  0  0  0  0  0  0  0
   29.2508   14.8884   60.6217 C   0  0  0  0  0  0  0  0  0  0  0  0
   30.4832   14.9999   61.1988 C   0  0  0  0  0  0  0  0  0  0  0  0
   31.2418   13.8638   61.3921 C   0  0  0  0  0  0  0  0  0  0  0  0
   30.7395   12.6398   60.9980 C   0  0  0  0  0  0  0  0  0  0  0  0
 19 20  1  0  0  0
 20 21  1  0  0  0
 20 22  1  0  0  0
 20 13  1  0  0  0
 13 14  2  0  0  0
 14 15  1  0  0  0
 15 16  2  0  0  0
 16 17  1  0  0  0
 17 18  2  0  0  0
 16  9  1  0  0  0
  9 10  2  0  0  0
  9 11  1  0  0  0
 11  1  1  0  0  0
  1  2  1  0  0  0
  2  3  1  0  0  0
  3  4  1  0  0  0
  4  5  1  0  0  0
  5  6  1  0  0  0
  6  7  1  0  0  0
  4 23  1  0  0  0
 23 24  2  0  0  0
 23 25  1  0  0  0
 25 27  1  0  0  0
 27 28  2  0  0  0
 28 29  1  0  0  0
 29 30  2  0  0  0
 30 31  1  0  0  0
 31 32  2  0  0  0
 18 13  1  0  0  0
  7  1  1  0  0  0
 32 27  1  0  0  0
  6  3  1  0  0  0
 11 12  1  0  0  0
  7  8  1  0  0  0
 25 26  1  0  0  0
M  END
> <minimizedAffinity>
15.22181

> <CNNscore>
0.4811023474

> <CNNaffinity>
5.4690122604

> <CNN_VS>
2.6311545372

> <CNNaffinity_variance>
0.0677001476

$$$$
[H]c1c([H])c([H])c(N([H])C(=O)[C@]2([H])C([H])([H])[C@@]3([H])N([H])[C@@]([H])(N([H])C(=O)c4c([H])c([H])c(C(F)(F)F)c([H])c4[H])C([H])([H])[C@]23[H])c([H])c1[H]


 32 35  0  0  0  0  0  0  0  0999 V2000
   26.1234    8.8690   56.2098 C   0  0  0  0  0  0  0  0  0  0  0  0
   24.7816    9.2544   55.6259 C   0  0  0  0  0  0  0  0  0  0  0  0
   25.0618    9.2067   54.1954 C   0  0  0  0  0  0  0  0  0  0  0  0
   24.4125    8.5224   53.1438 C   0  0  0  0  0  0  0  0  0  0  0  0
   25.8681    8.0434   52.8020 C   0  0  0  0  0  0  0  0  0  0  0  0
   25.9880    7.9475   54.2448 C   0  0  0  0  0  0  0  0  0  0  0  0
   26.9699    8.5045   55.0445 N   0  0  0  0  0  0  0  0  0  0  0  0
   27.3218    9.3984   54.6017 H   0  0  0  0  0  0  0  0  0  0  0  0
   27.8575    9.7602   57.8594 C   0  0  0  0  0  0  0  0  0  0  0  0
   28.4755    8.6500   58.0245 O   0  0  0  0  0  0  0  0  0  0  0  0
   26.7783    9.8365   57.0209 N   0  0  0  0  0  0  0  0  0  0  0  0
   26.3000   10.8146   56.9489 H   0  0  0  0  0  0  0  0  0  0  0  0
   29.3466   13.0800   60.1054 C   0  0  0  0  0  0  0  0  0  0  0  0
   29.7403   11.7824   60.3521 C   0  0  0  0  0  0  0  0  0  0  0  0
   29.2828   10.7102   59.6447 C   0  0  0  0  0  0  0  0  0  0  0  0
   28.3715   10.8890   58.6133 C   0  0  0  0  0  0  0  0  0  0  0  0
   27.9740   12.1908   58.3617 C   0  0  0  0  0  0  0  0  0  0  0  0
   28.4513   13.2635   59.0926 C   0  0  0  0  0  0  0  0  0  0  0  0
   30.9266   13.8268   61.7040 F   0  0  0  0  0  0  0  0  0  0  0  0
   29.8660   14.2321   60.9311 C   0  0  0  0  0  0  0  0  0  0  0  0
   28.8833   14.7798   61.6845 F   0  0  0  0  0  0  0  0  0  0  0  0
   30.3771   15.1655   60.0159 F   0  0  0  0  0  0  0  0  0  0  0  0
   23.5216    7.3554   53.3138 C   0  0  0  0  0  0  0  0  0  0  0  0
   23.8534    6.1936   53.5867 O   0  0  0  0  0  0  0  0  0  0  0  0
   22.1294    7.5935   53.1419 N   0  0  0  0  0  0  0  0  0  0  0  0
   21.7877    8.5767   52.9162 H   0  0  0  0  0  0  0  0  0  0  0  0
   21.1600    6.5768   53.2348 C   0  0  0  0  0  0  0  0  0  0  0  0
   19.7920    6.7576   53.1469 C   0  0  0  0  0  0  0  0  0  0  0  0
   18.9127    5.6626   53.2577 C   0  0  0  0  0  0  0  0  0  0  0  0
   19.3882    4.3974   53.4509 C   0  0  0  0  0  0  0  0  0  0  0  0
   20.7503    4.1958   53.5393 C   0  0  0  0  0  0  0  0  0  0  0  0
   21.6024    5.2765   53.4309 C   0  0  0  0  0  0  0  0  0  0  0  0
 19 20  1  0  0  0
 20 21  1  0  0  0
 20 22  1  0  0  0
 20 13  1  0  0  0
 13 14  2  0  0  0
 14 15  1  0  0  0
 15 16  2  0  0  0
 16 17  1  0  0  0
 17 18  2  0  0  0
 16  9  1  0  0  0
  9 10  2  0  0  0
  9 11  1  0  0  0
 11  1  1  0  0  0
  1  2  1  0  0  0
  2  3  1  0  0  0
  3  4  1  0  0  0
  4  5  1  0  0  0
  5  6  1  0  0  0
  6  7  1  0  0  0
  4 23  1  0  0  0
 23 24  2  0  0  0
 23 25  1  0  0  0
 25 27  1  0  0  0
 27 28  2  0  0  0
 28 29  1  0  0  0
 29 30  2  0  0  0
 30 31  1  0  0  0
 31 32  2  0  0  0
 18 13  1  0  0  0
  7  1  1  0  0  0
 32 27  1  0  0  0
  6  3  1  0  0  0
 11 12  1  0  0  0
  7  8  1  0  0  0
 25 26  1  0  0  0
M  END
> <minimizedAffinity>
15.42537

> <CNNscore>
0.4802170992

> <CNNaffinity>
5.4338173866

> <CNN_VS>
2.6094119549

> <CNNaffinity_variance>
0.1589268446

$$$$
[H]c1c([H])c([H])c(N([H])C(=O)[C@]2([H])C([H])([H])[C@@]3([H])N([H])[C@@]([H])(N([H])C(=O)c4c([H])c([H])c(C(F)(F)F)c([H])c4[H])C([H])([H])[C@]23[H])c([H])c1[H]


 32 35  0  0  0  0  0  0  0  0999 V2000
   24.9977    9.2403   55.4633 C   0  0  0  0  0  0  0  0  0  0  0  0
   25.5077    9.1032   56.8814 C   0  0  0  0  0  0  0  0  0  0  0  0
   26.8716    8.6376   56.6568 C   0  0  0  0  0  0  0  0  0  0  0  0
   28.1105    9.1331   57.1205 C   0  0  0  0  0  0  0  0  0  0  0  0
   28.5052    9.0456   55.6034 C   0  0  0  0  0  0  0  0  0  0  0  0
   27.1521    9.5296   55.4032 C   0  0  0  0  0  0  0  0  0  0  0  0
   26.1742    8.9784   54.5947 N   0  0  0  0  0  0  0  0  0  0  0  0
   26.3127    7.9313   54.5359 H   0  0  0  0  0  0  0  0  0  0  0  0
   23.5006    7.9092   53.8793 C   0  0  0  0  0  0  0  0  0  0  0  0
   24.1616    8.1685   52.8126 O   0  0  0  0  0  0  0  0  0  0  0  0
   23.9035    8.4136   55.0862 N   0  0  0  0  0  0  0  0  0  0  0  0
   23.2766    8.1579   55.9419 H   0  0  0  0  0  0  0  0  0  0  0  0
   20.0447    5.4352   53.4111 C   0  0  0  0  0  0  0  0  0  0  0  0
   19.9743    6.7204   53.9039 C   0  0  0  0  0  0  0  0  0  0  0  0
   21.0623    7.5283   54.0558 C   0  0  0  0  0  0  0  0  0  0  0  0
   22.3266    7.0729   53.7087 C   0  0  0  0  0  0  0  0  0  0  0  0
   22.4016    5.7828   53.2126 C   0  0  0  0  0  0  0  0  0  0  0  0
   21.2842    4.9808   53.0673 C   0  0  0  0  0  0  0  0  0  0  0  0
   18.7268    3.6999   54.3392 F   0  0  0  0  0  0  0  0  0  0  0  0
   18.8131    4.5719   53.2815 C   0  0  0  0  0  0  0  0  0  0  0  0
   18.7931    3.9179   52.0960 F   0  0  0  0  0  0  0  0  0  0  0  0
   17.7168    5.4409   53.3946 F   0  0  0  0  0  0  0  0  0  0  0  0
   28.3408   10.5028   57.6259 C   0  0  0  0  0  0  0  0  0  0  0  0
   28.1937   11.5646   57.0051 O   0  0  0  0  0  0  0  0  0  0  0  0
   28.7829   10.6125   58.9739 N   0  0  0  0  0  0  0  0  0  0  0  0
   28.9162    9.7314   59.5572 H   0  0  0  0  0  0  0  0  0  0  0  0
   29.0803   11.8450   59.5859 C   0  0  0  0  0  0  0  0  0  0  0  0
   30.2322   12.1360   60.2932 C   0  0  0  0  0  0  0  0  0  0  0  0
   30.4221   13.4082   60.8675 C   0  0  0  0  0  0  0  0  0  0  0  0
   29.4769   14.3849   60.7377 C   0  0  0  0  0  0  0  0  0  0  0  0
   28.3214   14.1150   60.0338 C   0  0  0  0  0  0  0  0  0  0  0  0
   28.1454   12.8642   59.4767 C   0  0  0  0  0  0  0  0  0  0  0  0
 19 20  1  0  0  0
 20 21  1  0  0  0
 20 22  1  0  0  0
 20 13  1  0  0  0
 13 14  2  0  0  0
 14 15  1  0  0  0
 15 16  2  0  0  0
 16 17  1  0  0  0
 17 18  2  0  0  0
 16  9  1  0  0  0
  9 10  2  0  0  0
  9 11  1  0  0  0
 11  1  1  0  0  0
  1  2  1  0  0  0
  2  3  1  0  0  0
  3  4  1  0  0  0
  4  5  1  0  0  0
  5  6  1  0  0  0
  6  7  1  0  0  0
  4 23  1  0  0  0
 23 24  2  0  0  0
 23 25  1  0  0  0
 25 27  1  0  0  0
 27 28  2  0  0  0
 28 29  1  0  0  0
 29 30  2  0  0  0
 30 31  1  0  0  0
 31 32  2  0  0  0
 18 13  1  0  0  0
  7  1  1  0  0  0
 32 27  1  0  0  0
  6  3  1  0  0  0
 11 12  1  0  0  0
  7  8  1  0  0  0
 25 26  1  0  0  0
M  END
> <minimizedAffinity>
20.59243

> <CNNscore>
0.4801350534

> <CNNaffinity>
5.3937482834

> <CNN_VS>
2.5897276402

> <CNNaffinity_variance>
0.0898395330

$$$$
[H]c1c([H])c([H])c(N([H])C(=O)[C@]2([H])C([H])([H])[C@@]3([H])N([H])[C@@]([H])(N([H])C(=O)c4c([H])c([H])c(C(F)(F)F)c([H])c4[H])C([H])([H])[C@]23[H])c([H])c1[H]


 32 35  0  0  0  0  0  0  0  0999 V2000
   26.1352   10.0552   56.1168 C   0  0  0  0  0  0  0  0  0  0  0  0
   26.3050    9.4475   57.4922 C   0  0  0  0  0  0  0  0  0  0  0  0
   27.5906    8.7723   57.3558 C   0  0  0  0  0  0  0  0  0  0  0  0
   28.7677    8.8498   58.1328 C   0  0  0  0  0  0  0  0  0  0  0  0
   29.4540    9.0759   56.7389 C   0  0  0  0  0  0  0  0  0  0  0  0
   28.2714    9.8765   56.4823 C   0  0  0  0  0  0  0  0  0  0  0  0
   27.4095    9.7795   55.4044 N   0  0  0  0  0  0  0  0  0  0  0  0
   27.3841    8.7794   55.0608 H   0  0  0  0  0  0  0  0  0  0  0  0
   23.6786    9.5961   55.5909 C   0  0  0  0  0  0  0  0  0  0  0  0
   23.2138   10.0405   56.6992 O   0  0  0  0  0  0  0  0  0  0  0  0
   25.0251    9.6122   55.3459 N   0  0  0  0  0  0  0  0  0  0  0  0
   25.3388    9.2013   54.3850 H   0  0  0  0  0  0  0  0  0  0  0  0
   20.7693    8.0719   52.8530 C   0  0  0  0  0  0  0  0  0  0  0  0
   20.5548    9.2059   53.6064 C   0  0  0  0  0  0  0  0  0  0  0  0
   21.4706    9.7124   54.4806 C   0  0  0  0  0  0  0  0  0  0  0  0
   22.6964    9.0848   54.6524 C   0  0  0  0  0  0  0  0  0  0  0  0
   22.9162    7.9458   53.8970 C   0  0  0  0  0  0  0  0  0  0  0  0
   21.9724    7.4498   53.0162 C   0  0  0  0  0  0  0  0  0  0  0  0
   20.2749    7.2091   50.7034 F   0  0  0  0  0  0  0  0  0  0  0  0
   19.7149    7.5382   51.9136 C   0  0  0  0  0  0  0  0  0  0  0  0
   18.6962    8.4180   51.7665 F   0  0  0  0  0  0  0  0  0  0  0  0
   19.2631    6.3364   52.4806 F   0  0  0  0  0  0  0  0  0  0  0  0
   29.1069    9.9577   59.0505 C   0  0  0  0  0  0  0  0  0  0  0  0
   29.9478    9.9458   59.9599 O   0  0  0  0  0  0  0  0  0  0  0  0
   28.3851   11.1706   58.8700 N   0  0  0  0  0  0  0  0  0  0  0  0
   27.6571   11.2394   58.0957 H   0  0  0  0  0  0  0  0  0  0  0  0
   28.5686   12.3015   59.6882 C   0  0  0  0  0  0  0  0  0  0  0  0
   29.5711   13.2434   59.5477 C   0  0  0  0  0  0  0  0  0  0  0  0
   29.6595   14.3376   60.4305 C   0  0  0  0  0  0  0  0  0  0  0  0
   28.7575   14.4970   61.4430 C   0  0  0  0  0  0  0  0  0  0  0  0
   27.7484   13.5691   61.5987 C   0  0  0  0  0  0  0  0  0  0  0  0
   27.6725   12.4999   60.7287 C   0  0  0  0  0  0  0  0  0  0  0  0
 19 20  1  0  0  0
 20 21  1  0  0  0
 20 22  1  0  0  0
 20 13  1  0  0  0
 13 14  2  0  0  0
 14 15  1  0  0  0
 15 16  2  0  0  0
 16 17  1  0  0  0
 17 18  2  0  0  0
 16  9  1  0  0  0
  9 10  2  0  0  0
  9 11  1  0  0  0
 11  1  1  0  0  0
  1  2  1  0  0  0
  2  3  1  0  0  0
  3  4  1  0  0  0
  4  5  1  0  0  0
  5  6  1  0  0  0
  6  7  1  0  0  0
  4 23  1  0  0  0
 23 24  2  0  0  0
 23 25  1  0  0  0
 25 27  1  0  0  0
 27 28  2  0  0  0
 28 29  1  0  0  0
 29 30  2  0  0  0
 30 31  1  0  0  0
 31 32  2  0  0  0
 18 13  1  0  0  0
  7  1  1  0  0  0
 32 27  1  0  0  0
  6  3  1  0  0  0
 11 12  1  0  0  0
  7  8  1  0  0  0
 25 26  1  0  0  0
M  END
> <minimizedAffinity>
23.10299

> <CNNscore>
0.4688232541

> <CNNaffinity>
5.6759829521

> <CNN_VS>
2.6610329151

> <CNNaffinity_variance>
0.1166427583

$$$$
[H]c1c([H])c([H])c(N([H])C(=O)[C@]2([H])C([H])([H])[C@]3([H])N([H])[C@@]([H])(N([H])C(=O)c4c([H])c([H])c(C(F)(F)F)c([H])c4[H])C([H])([H])[C@]32[H])c([H])c1[H]


 32 35  0  0  0  0  0  0  0  0999 V2000
   24.8158    8.0055   54.3338 C   0  0  0  0  0  0  0  0  0  0  0  0
   24.2213    6.6597   54.6859 C   0  0  0  0  0  0  0  0  0  0  0  0
   22.8466    6.8575   54.1931 C   0  0  0  0  0  0  0  0  0  0  0  0
   21.6346    6.5561   54.8771 C   0  0  0  0  0  0  0  0  0  0  0  0
   21.3047    8.0607   54.6825 C   0  0  0  0  0  0  0  0  0  0  0  0
   22.7007    8.2708   54.8357 C   0  0  0  0  0  0  0  0  0  0  0  0
   23.6467    8.8635   53.9684 N   0  0  0  0  0  0  0  0  0  0  0  0
   23.9041    9.8278   54.2267 H   0  0  0  0  0  0  0  0  0  0  0  0
   26.9250    8.7277   55.5159 C   0  0  0  0  0  0  0  0  0  0  0  0
   27.6545    8.2620   54.6077 O   0  0  0  0  0  0  0  0  0  0  0  0
   25.5400    8.6186   55.4160 N   0  0  0  0  0  0  0  0  0  0  0  0
   24.9463    9.0252   56.2041 H   0  0  0  0  0  0  0  0  0  0  0  0
   28.7828   10.6344   58.8542 C   0  0  0  0  0  0  0  0  0  0  0  0
   28.4166   11.3181   57.7169 C   0  0  0  0  0  0  0  0  0  0  0  0
   27.8167   10.7416   56.6346 C   0  0  0  0  0  0  0  0  0  0  0  0
   27.5440    9.3748   56.6505 C   0  0  0  0  0  0  0  0  0  0  0  0
   27.9115    8.6724   57.7987 C   0  0  0  0  0  0  0  0  0  0  0  0
   28.5141    9.2803   58.8734 C   0  0  0  0  0  0  0  0  0  0  0  0
   28.9940   10.7517   61.2208 F   0  0  0  0  0  0  0  0  0  0  0  0
   29.4387   11.2900   60.0193 C   0  0  0  0  0  0  0  0  0  0  0  0
   29.2021   12.6272   60.0327 F   0  0  0  0  0  0  0  0  0  0  0  0
   30.8176   11.0043   59.9976 F   0  0  0  0  0  0  0  0  0  0  0  0
   20.6139    5.8181   54.0574 C   0  0  0  0  0  0  0  0  0  0  0  0
   20.3092    6.2922   52.9040 O   0  0  0  0  0  0  0  0  0  0  0  0
   19.9765    4.6536   54.4794 N   0  0  0  0  0  0  0  0  0  0  0  0
   20.2598    4.2940   55.4378 H   0  0  0  0  0  0  0  0  0  0  0  0
   19.0163    3.9296   53.7612 C   0  0  0  0  0  0  0  0  0  0  0  0
   19.2472    3.1232   52.6806 C   0  0  0  0  0  0  0  0  0  0  0  0
   18.1985    2.4875   52.0228 C   0  0  0  0  0  0  0  0  0  0  0  0
   16.9065    2.6469   52.4339 C   0  0  0  0  0  0  0  0  0  0  0  0
   16.6767    3.4531   53.5157 C   0  0  0  0  0  0  0  0  0  0  0  0
   17.6914    4.0809   54.1688 C   0  0  0  0  0  0  0  0  0  0  0  0
 19 20  1  0  0  0
 20 21  1  0  0  0
 20 22  1  0  0  0
 20 13  1  0  0  0
 13 14  2  0  0  0
 14 15  1  0  0  0
 15 16  2  0  0  0
 16 17  1  0  0  0
 17 18  2  0  0  0
 16  9  1  0  0  0
  9 10  2  0  0  0
  9 11  1  0  0  0
 11  1  1  0  0  0
  1  2  1  0  0  0
  2  3  1  0  0  0
  3  4  1  0  0  0
  4  5  1  0  0  0
  5  6  1  0  0  0
  6  7  1  0  0  0
  4 23  1  0  0  0
 23 24  2  0  0  0
 23 25  1  0  0  0
 25 27  1  0  0  0
 27 28  2  0  0  0
 28 29  1  0  0  0
 29 30  2  0  0  0
 30 31  1  0  0  0
 31 32  2  0  0  0
 18 13  1  0  0  0
  7  1  1  0  0  0
 32 27  1  0  0  0
  6  3  1  0  0  0
 11 12  1  0  0  0
  7  8  1  0  0  0
 25 26  1  0  0  0
M  END
> <minimizedAffinity>
18.55121

> <CNNscore>
0.4989801347

> <CNNaffinity>
5.7055330276

> <CNN_VS>
2.8469476700

> <CNNaffinity_variance>
0.1336904019

$$$$
[H]c1c([H])c([H])c(N([H])C(=O)[C@]2([H])C([H])([H])[C@]3([H])N([H])[C@@]([H])(N([H])C(=O)c4c([H])c([H])c(C(F)(F)F)c([H])c4[H])C([H])([H])[C@]32[H])c([H])c1[H]


 32 35  0  0  0  0  0  0  0  0999 V2000
   24.8333    8.0049   54.3380 C   0  0  0  0  0  0  0  0  0  0  0  0
   24.2430    6.6568   54.6883 C   0  0  0  0  0  0  0  0  0  0  0  0
   22.8669    6.8519   54.1982 C   0  0  0  0  0  0  0  0  0  0  0  0
   21.6569    6.5459   54.8837 C   0  0  0  0  0  0  0  0  0  0  0  0
   21.3227    8.0499   54.6927 C   0  0  0  0  0  0  0  0  0  0  0  0
   22.7183    8.2635   54.8440 C   0  0  0  0  0  0  0  0  0  0  0  0
   23.6613    8.8605   53.9763 N   0  0  0  0  0  0  0  0  0  0  0  0
   23.9165    9.8250   54.2362 H   0  0  0  0  0  0  0  0  0  0  0  0
   26.9414    8.7513   55.5068 C   0  0  0  0  0  0  0  0  0  0  0  0
   27.6696    8.3109   54.5849 O   0  0  0  0  0  0  0  0  0  0  0  0
   25.5577    8.6177   55.4202 N   0  0  0  0  0  0  0  0  0  0  0  0
   24.9651    9.0031   56.2197 H   0  0  0  0  0  0  0  0  0  0  0  0
   28.7413   10.6589   58.8762 C   0  0  0  0  0  0  0  0  0  0  0  0
   28.4820    9.3075   58.8380 C   0  0  0  0  0  0  0  0  0  0  0  0
   27.9132    8.6649   57.7764 C   0  0  0  0  0  0  0  0  0  0  0  0
   27.5606    9.3956   56.6430 C   0  0  0  0  0  0  0  0  0  0  0  0
   27.8191   10.7664   56.6715 C   0  0  0  0  0  0  0  0  0  0  0  0
   28.3934   11.3857   57.7551 C   0  0  0  0  0  0  0  0  0  0  0  0
   29.1459   12.7059   60.0185 F   0  0  0  0  0  0  0  0  0  0  0  0
   29.3609   11.3334   60.0503 C   0  0  0  0  0  0  0  0  0  0  0  0
   30.6992   11.1081   60.1014 F   0  0  0  0  0  0  0  0  0  0  0  0
   28.7146   10.9057   61.2263 F   0  0  0  0  0  0  0  0  0  0  0  0
   20.6368    5.8068   54.0642 C   0  0  0  0  0  0  0  0  0  0  0  0
   20.3383    6.2754   52.9070 O   0  0  0  0  0  0  0  0  0  0  0  0
   19.9935    4.6471   54.4903 N   0  0  0  0  0  0  0  0  0  0  0  0
   20.2717    4.2920   55.4519 H   0  0  0  0  0  0  0  0  0  0  0  0
   19.0336    3.9224   53.7725 C   0  0  0  0  0  0  0  0  0  0  0  0
   19.2660    3.1079   52.6983 C   0  0  0  0  0  0  0  0  0  0  0  0
   18.2176    2.4723   52.0400 C   0  0  0  0  0  0  0  0  0  0  0  0
   16.9244    2.6399   52.4439 C   0  0  0  0  0  0  0  0  0  0  0  0
   16.6930    3.4543   53.5194 C   0  0  0  0  0  0  0  0  0  0  0  0
   17.7075    4.0821   54.1729 C   0  0  0  0  0  0  0  0  0  0  0  0
 19 20  1  0  0  0
 20 21  1  0  0  0
 20 22  1  0  0  0
 20 13  1  0  0  0
 13 14  2  0  0  0
 14 15  1  0  0  0
 15 16  2  0  0  0
 16 17  1  0  0  0
 17 18  2  0  0  0
 16  9  1  0  0  0
  9 10  2  0  0  0
  9 11  1  0  0  0
 11  1  1  0  0  0
  1  2  1  0  0  0
  2  3  1  0  0  0
  3  4  1  0  0  0
  4  5  1  0  0  0
  5  6  1  0  0  0
  6  7  1  0  0  0
  4 23  1  0  0  0
 23 24  2  0  0  0
 23 25  1  0  0  0
 25 27  1  0  0  0
 27 28  2  0  0  0
 28 29  1  0  0  0
 29 30  2  0  0  0
 30 31  1  0  0  0
 31 32  2  0  0  0
 18 13  1  0  0  0
  7  1  1  0  0  0
 32 27  1  0  0  0
  6  3  1  0  0  0
 11 12  1  0  0  0
  7  8  1  0  0  0
 25 26  1  0  0  0
M  END
> <minimizedAffinity>
18.50891

> <CNNscore>
0.4962144792

> <CNNaffinity>
5.7068061829

> <CNN_VS>
2.8317997456

> <CNNaffinity_variance>
0.1385928690

$$$$
[H]c1c([H])c([H])c(N([H])C(=O)[C@]2([H])C([H])([H])[C@]3([H])N([H])[C@@]([H])(N([H])C(=O)c4c([H])c([H])c(C(F)(F)F)c([H])c4[H])C([H])([H])[C@]32[H])c([H])c1[H]


 32 35  0  0  0  0  0  0  0  0999 V2000
   24.8608    8.0364   54.3715 C   0  0  0  0  0  0  0  0  0  0  0  0
   24.2488    6.7004   54.7306 C   0  0  0  0  0  0  0  0  0  0  0  0
   22.8798    6.9094   54.2267 C   0  0  0  0  0  0  0  0  0  0  0  0
   21.6599    6.6275   54.9049 C   0  0  0  0  0  0  0  0  0  0  0  0
   21.3484    8.1339   54.6955 C   0  0  0  0  0  0  0  0  0  0  0  0
   22.7455    8.3296   54.8566 C   0  0  0  0  0  0  0  0  0  0  0  0
   23.7040    8.9044   53.9909 N   0  0  0  0  0  0  0  0  0  0  0  0
   23.9705    9.8679   54.2430 H   0  0  0  0  0  0  0  0  0  0  0  0
   26.9687    8.7757   55.5452 C   0  0  0  0  0  0  0  0  0  0  0  0
   27.6979    8.3257   54.6288 O   0  0  0  0  0  0  0  0  0  0  0  0
   25.5846    8.6504   55.4535 N   0  0  0  0  0  0  0  0  0  0  0  0
   24.9912    9.0438   56.2484 H   0  0  0  0  0  0  0  0  0  0  0  0
   28.7667   10.6896   58.9121 C   0  0  0  0  0  0  0  0  0  0  0  0
   28.5042    9.3387   58.8776 C   0  0  0  0  0  0  0  0  0  0  0  0
   27.9360    8.6941   57.8169 C   0  0  0  0  0  0  0  0  0  0  0  0
   27.5873    9.4220   56.6806 C   0  0  0  0  0  0  0  0  0  0  0  0
   27.8489   10.7924   56.7053 C   0  0  0  0  0  0  0  0  0  0  0  0
   28.4225   11.4138   57.7880 C   0  0  0  0  0  0  0  0  0  0  0  0
   28.8676   10.8833   61.2809 F   0  0  0  0  0  0  0  0  0  0  0  0
   29.3855   11.3663   60.0853 C   0  0  0  0  0  0  0  0  0  0  0  0
   29.1892   12.7095   60.0423 F   0  0  0  0  0  0  0  0  0  0  0  0
   30.7546   11.0407   60.1407 F   0  0  0  0  0  0  0  0  0  0  0  0
   20.6365    5.8941   54.0844 C   0  0  0  0  0  0  0  0  0  0  0  0
   20.3651    6.3462   52.9140 O   0  0  0  0  0  0  0  0  0  0  0  0
   19.9626    4.7566   54.5228 N   0  0  0  0  0  0  0  0  0  0  0  0
   20.2190    4.4145   55.4951 H   0  0  0  0  0  0  0  0  0  0  0  0
   18.9982    4.0384   53.8046 C   0  0  0  0  0  0  0  0  0  0  0  0
   17.6469    4.0554   54.0172 C   0  0  0  0  0  0  0  0  0  0  0  0
   16.7915    3.2605   53.2603 C   0  0  0  0  0  0  0  0  0  0  0  0
   17.2718    2.4388   52.2815 C   0  0  0  0  0  0  0  0  0  0  0  0
   18.6237    2.4232   52.0689 C   0  0  0  0  0  0  0  0  0  0  0  0
   19.4722    3.1946   52.8006 C   0  0  0  0  0  0  0  0  0  0  0  0
 19 20  1  0  0  0
 20 21  1  0  0  0
 20 22  1  0  0  0
 20 13  1  0  0  0
 13 14  2  0  0  0
 14 15  1  0  0  0
 15 16  2  0  0  0
 16 17  1  0  0  0
 17 18  2  0  0  0
 16  9  1  0  0  0
  9 10  2  0  0  0
  9 11  1  0  0  0
 11  1  1  0  0  0
  1  2  1  0  0  0
  2  3  1  0  0  0
  3  4  1  0  0  0
  4  5  1  0  0  0
  5  6  1  0  0  0
  6  7  1  0  0  0
  4 23  1  0  0  0
 23 24  2  0  0  0
 23 25  1  0  0  0
 25 27  1  0  0  0
 27 28  2  0  0  0
 28 29  1  0  0  0
 29 30  2  0  0  0
 30 31  1  0  0  0
 31 32  2  0  0  0
 18 13  1  0  0  0
  7  1  1  0  0  0
 32 27  1  0  0  0
  6  3  1  0  0  0
 11 12  1  0  0  0
  7  8  1  0  0  0
 25 26  1  0  0  0
M  END
> <minimizedAffinity>
19.04742

> <CNNscore>
0.4957801700

> <CNNaffinity>
5.6926603317

> <CNN_VS>
2.8223080635

> <CNNaffinity_variance>
0.1213921458

$$$$
[H]c1c([H])c([H])c(N([H])C(=O)[C@]2([H])C([H])([H])[C@]3([H])N([H])[C@@]([H])(N([H])C(=O)c4c([H])c([H])c(C(F)(F)F)c([H])c4[H])C([H])([H])[C@]32[H])c([H])c1[H]


 32 35  0  0  0  0  0  0  0  0999 V2000
   22.1193    8.4579   52.1340 C   0  0  0  0  0  0  0  0  0  0  0  0
   21.7536    6.9909   52.1856 C   0  0  0  0  0  0  0  0  0  0  0  0
   20.4275    7.0865   52.8214 C   0  0  0  0  0  0  0  0  0  0  0  0
   19.9384    6.3151   53.9138 C   0  0  0  0  0  0  0  0  0  0  0  0
   19.7363    7.6836   54.6187 C   0  0  0  0  0  0  0  0  0  0  0  0
   20.9018    8.0900   53.9168 C   0  0  0  0  0  0  0  0  0  0  0  0
   21.1055    9.1420   52.9947 N   0  0  0  0  0  0  0  0  0  0  0  0
   21.5771    9.9656   53.3976 H   0  0  0  0  0  0  0  0  0  0  0  0
   24.2012    7.9143   53.4523 C   0  0  0  0  0  0  0  0  0  0  0  0
   23.7387    6.8091   53.8246 O   0  0  0  0  0  0  0  0  0  0  0  0
   23.4397    8.7424   52.6311 N   0  0  0  0  0  0  0  0  0  0  0  0
   23.8608    9.6758   52.3305 H   0  0  0  0  0  0  0  0  0  0  0  0
   28.1189    9.0295   54.7325 C   0  0  0  0  0  0  0  0  0  0  0  0
   27.8177    8.7507   53.4186 C   0  0  0  0  0  0  0  0  0  0  0  0
   26.5764    8.3967   52.9743 C   0  0  0  0  0  0  0  0  0  0  0  0
   25.5249    8.3024   53.8843 C   0  0  0  0  0  0  0  0  0  0  0  0
   25.8196    8.5827   55.2190 C   0  0  0  0  0  0  0  0  0  0  0  0
   27.0796    8.9370   55.6367 C   0  0  0  0  0  0  0  0  0  0  0  0
   29.4873    9.7760   56.5296 F   0  0  0  0  0  0  0  0  0  0  0  0
   29.4841    9.4108   55.1888 C   0  0  0  0  0  0  0  0  0  0  0  0
   29.9791   10.4442   54.4598 F   0  0  0  0  0  0  0  0  0  0  0  0
   30.3250    8.2824   55.1320 F   0  0  0  0  0  0  0  0  0  0  0  0
   18.5550    5.7594   53.7247 C   0  0  0  0  0  0  0  0  0  0  0  0
   17.5945    6.5873   53.5248 O   0  0  0  0  0  0  0  0  0  0  0  0
   18.2550    4.3996   53.7595 N   0  0  0  0  0  0  0  0  0  0  0  0
   19.0786    3.7495   53.9244 H   0  0  0  0  0  0  0  0  0  0  0  0
   16.9868    3.8280   53.5956 C   0  0  0  0  0  0  0  0  0  0  0  0
   16.7144    2.5852   53.0929 C   0  0  0  0  0  0  0  0  0  0  0  0
   15.4032    2.1452   52.9391 C   0  0  0  0  0  0  0  0  0  0  0  0
   14.3468    2.9379   53.2848 C   0  0  0  0  0  0  0  0  0  0  0  0
   14.6204    4.1807   53.7886 C   0  0  0  0  0  0  0  0  0  0  0  0
   15.8967    4.6244   53.9447 C   0  0  0  0  0  0  0  0  0  0  0  0
 19 20  1  0  0  0
 20 21  1  0  0  0
 20 22  1  0  0  0
 20 13  1  0  0  0
 13 14  2  0  0  0
 14 15  1  0  0  0
 15 16  2  0  0  0
 16 17  1  0  0  0
 17 18  2  0  0  0
 16  9  1  0  0  0
  9 10  2  0  0  0
  9 11  1  0  0  0
 11  1  1  0  0  0
  1  2  1  0  0  0
  2  3  1  0  0  0
  3  4  1  0  0  0
  4  5  1  0  0  0
  5  6  1  0  0  0
  6  7  1  0  0  0
  4 23  1  0  0  0
 23 24  2  0  0  0
 23 25  1  0  0  0
 25 27  1  0  0  0
 27 28  2  0  0  0
 28 29  1  0  0  0
 29 30  2  0  0  0
 30 31  1  0  0  0
 31 32  2  0  0  0
 18 13  1  0  0  0
  7  1  1  0  0  0
 32 27  1  0  0  0
  6  3  1  0  0  0
 11 12  1  0  0  0
  7  8  1  0  0  0
 25 26  1  0  0  0
M  END
> <minimizedAffinity>
29.23391

> <CNNscore>
0.4536604285

> <CNNaffinity>
5.9796037674

> <CNN_VS>
2.7127096653

> <CNNaffinity_variance>
0.3230891824

$$$$
[H]c1c([H])c([H])c(N([H])C(=O)[C@]2([H])C([H])([H])[C@]3([H])N([H])[C@@]([H])(N([H])C(=O)c4c([H])c([H])c(C(F)(F)F)c([H])c4[H])C([H])([H])[C@]32[H])c([H])c1[H]


 32 35  0  0  0  0  0  0  0  0999 V2000
   21.3438    7.9531   53.9272 C   0  0  0  0  0  0  0  0  0  0  0  0
   21.5290    6.8288   52.9322 C   0  0  0  0  0  0  0  0  0  0  0  0
   22.7243    6.1838   53.5040 C   0  0  0  0  0  0  0  0  0  0  0  0
   23.8986    5.7762   52.8095 C   0  0  0  0  0  0  0  0  0  0  0  0
   24.6469    6.7190   53.7900 C   0  0  0  0  0  0  0  0  0  0  0  0
   23.4825    7.5288   53.7222 C   0  0  0  0  0  0  0  0  0  0  0  0
   22.6010    7.9668   54.7369 N   0  0  0  0  0  0  0  0  0  0  0  0
   22.7485    8.9458   55.0249 H   0  0  0  0  0  0  0  0  0  0  0  0
   21.5227   10.4693   53.8605 C   0  0  0  0  0  0  0  0  0  0  0  0
   22.0701   10.5115   54.9885 O   0  0  0  0  0  0  0  0  0  0  0  0
   21.1545    9.2418   53.3148 N   0  0  0  0  0  0  0  0  0  0  0  0
   20.6916    9.2384   52.3533 H   0  0  0  0  0  0  0  0  0  0  0  0
   20.8062   14.1064   51.7417 C   0  0  0  0  0  0  0  0  0  0  0  0
   20.3428   13.8869   53.0192 C   0  0  0  0  0  0  0  0  0  0  0  0
   20.5578   12.7395   53.7269 C   0  0  0  0  0  0  0  0  0  0  0  0
   21.2895   11.7046   53.1470 C   0  0  0  0  0  0  0  0  0  0  0  0
   21.7637   11.9169   51.8520 C   0  0  0  0  0  0  0  0  0  0  0  0
   21.5315   13.0833   51.1642 C   0  0  0  0  0  0  0  0  0  0  0  0
   20.1934   15.1126   49.6751 F   0  0  0  0  0  0  0  0  0  0  0  0
   20.5537   15.3683   50.9926 C   0  0  0  0  0  0  0  0  0  0  0  0
   21.6492   16.1710   50.9915 F   0  0  0  0  0  0  0  0  0  0  0  0
   19.4314   16.0181   51.5419 F   0  0  0  0  0  0  0  0  0  0  0  0
   24.3819    4.3931   53.1442 C   0  0  0  0  0  0  0  0  0  0  0  0
   24.2143    3.9695   54.3443 O   0  0  0  0  0  0  0  0  0  0  0  0
   25.0054    3.5478   52.2292 N   0  0  0  0  0  0  0  0  0  0  0  0
   25.1216    3.9360   51.2474 H   0  0  0  0  0  0  0  0  0  0  0  0
   25.4794    2.2553   52.4872 C   0  0  0  0  0  0  0  0  0  0  0  0
   24.7254    1.1184   52.5882 C   0  0  0  0  0  0  0  0  0  0  0  0
   25.3117   -0.1066   52.8919 C   0  0  0  0  0  0  0  0  0  0  0  0
   26.6569   -0.2142   53.0983 C   0  0  0  0  0  0  0  0  0  0  0  0
   27.4105    0.9236   52.9960 C   0  0  0  0  0  0  0  0  0  0  0  0
   26.8516    2.1279   52.6998 C   0  0  0  0  0  0  0  0  0  0  0  0
 19 20  1  0  0  0
 20 21  1  0  0  0
 20 22  1  0  0  0
 20 13  1  0  0  0
 13 14  2  0  0  0
 14 15  1  0  0  0
 15 16  2  0  0  0
 16 17  1  0  0  0
 17 18  2  0  0  0
 16  9  1  0  0  0
  9 10  2  0  0  0
  9 11  1  0  0  0
 11  1  1  0  0  0
  1  2  1  0  0  0
  2  3  1  0  0  0
  3  4  1  0  0  0
  4  5  1  0  0  0
  5  6  1  0  0  0
  6  7  1  0  0  0
  4 23  1  0  0  0
 23 24  2  0  0  0
 23 25  1  0  0  0
 25 27  1  0  0  0
 27 28  2  0  0  0
 28 29  1  0  0  0
 29 30  2  0  0  0
 30 31  1  0  0  0
 31 32  2  0  0  0
 18 13  1  0  0  0
  7  1  1  0  0  0
 32 27  1  0  0  0
  6  3  1  0  0  0
 11 12  1  0  0  0
  7  8  1  0  0  0
 25 26  1  0  0  0
M  END
> <minimizedAffinity>
40.51004

> <CNNscore>
0.4521953762

> <CNNaffinity>
5.6766676903

> <CNN_VS>
2.5669629574

> <CNNaffinity_variance>
0.3195471764

$$$$
[H]c1c([H])c([H])c(N([H])C(=O)[C@]2([H])C([H])([H])[C@]3([H])N([H])[C@@]([H])(N([H])C(=O)c4c([H])c([H])c(C(F)(F)F)c([H])c4[H])C([H])([H])[C@]32[H])c([H])c1[H]


 32 35  0  0  0  0  0  0  0  0999 V2000
   26.8569    9.4842   55.4217 C   0  0  0  0  0  0  0  0  0  0  0  0
   26.6330   10.6565   56.3512 C   0  0  0  0  0  0  0  0  0  0  0  0
   27.7624   10.4600   57.2773 C   0  0  0  0  0  0  0  0  0  0  0  0
   27.7248   10.4904   58.7004 C   0  0  0  0  0  0  0  0  0  0  0  0
   28.2938    9.0484   58.6150 C   0  0  0  0  0  0  0  0  0  0  0  0
   27.5098    8.9295   57.4371 C   0  0  0  0  0  0  0  0  0  0  0  0
   27.8816    8.6361   56.1052 N   0  0  0  0  0  0  0  0  0  0  0  0
   27.6878    7.6640   55.8216 H   0  0  0  0  0  0  0  0  0  0  0  0
   25.2513    8.2145   53.9461 C   0  0  0  0  0  0  0  0  0  0  0  0
   25.9291    8.4517   52.9173 O   0  0  0  0  0  0  0  0  0  0  0  0
   25.6723    8.7031   55.1806 N   0  0  0  0  0  0  0  0  0  0  0  0
   25.0750    8.4840   56.0374 H   0  0  0  0  0  0  0  0  0  0  0  0
   21.6966    5.8799   53.5656 C   0  0  0  0  0  0  0  0  0  0  0  0
   22.7173    5.5447   54.4262 C   0  0  0  0  0  0  0  0  0  0  0  0
   23.8637    6.2703   54.5767 C   0  0  0  0  0  0  0  0  0  0  0  0
   24.0431    7.4303   53.8250 C   0  0  0  0  0  0  0  0  0  0  0  0
   23.0143    7.7790   52.9492 C   0  0  0  0  0  0  0  0  0  0  0  0
   21.8709    7.0284   52.8194 C   0  0  0  0  0  0  0  0  0  0  0  0
   19.9030    4.7622   54.6578 F   0  0  0  0  0  0  0  0  0  0  0  0
   20.4575    5.0669   53.4206 C   0  0  0  0  0  0  0  0  0  0  0  0
   20.7019    3.9055   52.7604 F   0  0  0  0  0  0  0  0  0  0  0  0
   19.4700    5.8360   52.7750 F   0  0  0  0  0  0  0  0  0  0  0  0
   28.8106   11.3066   59.3433 C   0  0  0  0  0  0  0  0  0  0  0  0
   29.9731   10.7759   59.4639 O   0  0  0  0  0  0  0  0  0  0  0  0
   28.6263   12.6025   59.8200 N   0  0  0  0  0  0  0  0  0  0  0  0
   27.6508   13.0046   59.6978 H   0  0  0  0  0  0  0  0  0  0  0  0
   29.5982   13.4049   60.4310 C   0  0  0  0  0  0  0  0  0  0  0  0
   30.5516   12.9913   61.3205 C   0  0  0  0  0  0  0  0  0  0  0  0
   31.4387   13.8972   61.8941 C   0  0  0  0  0  0  0  0  0  0  0  0
   31.3874   15.2266   61.5881 C   0  0  0  0  0  0  0  0  0  0  0  0
   30.4338   15.6393   60.6972 C   0  0  0  0  0  0  0  0  0  0  0  0
   29.5599   14.7656   60.1285 C   0  0  0  0  0  0  0  0  0  0  0  0
 19 20  1  0  0  0
 20 21  1  0  0  0
 20 22  1  0  0  0
 20 13  1  0  0  0
 13 14  2  0  0  0
 14 15  1  0  0  0
 15 16  2  0  0  0
 16 17  1  0  0  0
 17 18  2  0  0  0
 16  9  1  0  0  0
  9 10  2  0  0  0
  9 11  1  0  0  0
 11  1  1  0  0  0
  1  2  1  0  0  0
  2  3  1  0  0  0
  3  4  1  0  0  0
  4  5  1  0  0  0
  5  6  1  0  0  0
  6  7  1  0  0  0
  4 23  1  0  0  0
 23 24  2  0  0  0
 23 25  1  0  0  0
 25 27  1  0  0  0
 27 28  2  0  0  0
 28 29  1  0  0  0
 29 30  2  0  0  0
 30 31  1  0  0  0
 31 32  2  0  0  0
 18 13  1  0  0  0
  7  1  1  0  0  0
 32 27  1  0  0  0
  6  3  1  0  0  0
 11 12  1  0  0  0
  7  8  1  0  0  0
 25 26  1  0  0  0
M  END
> <minimizedAffinity>
12.99323

> <CNNscore>
0.4297669530

> <CNNaffinity>
5.3549866676

> <CNN_VS>
2.3013963699

> <CNNaffinity_variance>
0.0847466141

$$$$
[H]c1c([H])c([H])c(N([H])C(=O)[C@]2([H])C([H])([H])[C@]3([H])N([H])[C@@]([H])(N([H])C(=O)c4c([H])c([H])c(C(F)(F)F)c([H])c4[H])C([H])([H])[C@]32[H])c([H])c1[H]


 32 35  0  0  0  0  0  0  0  0999 V2000
   23.5627    7.3270   52.6020 C   0  0  0  0  0  0  0  0  0  0  0  0
   23.1154    6.0247   53.2284 C   0  0  0  0  0  0  0  0  0  0  0  0
   21.6604    6.1354   53.0224 C   0  0  0  0  0  0  0  0  0  0  0  0
   20.6342    5.8993   53.9809 C   0  0  0  0  0  0  0  0  0  0  0  0
   20.2051    7.3621   53.6870 C   0  0  0  0  0  0  0  0  0  0  0  0
   21.5914    7.6145   53.5114 C   0  0  0  0  0  0  0  0  0  0  0  0
   22.3064    8.1121   52.3981 N   0  0  0  0  0  0  0  0  0  0  0  0
   22.5699    9.1055   52.4806 H   0  0  0  0  0  0  0  0  0  0  0  0
   25.1088    7.6227   54.5742 C   0  0  0  0  0  0  0  0  0  0  0  0
   24.9042    6.4517   54.9755 O   0  0  0  0  0  0  0  0  0  0  0  0
   24.4712    8.0820   53.4243 N   0  0  0  0  0  0  0  0  0  0  0  0
   24.6661    9.0824   53.1077 H   0  0  0  0  0  0  0  0  0  0  0  0
   27.7682   10.1553   56.7526 C   0  0  0  0  0  0  0  0  0  0  0  0
   26.4317   10.0397   57.0617 C   0  0  0  0  0  0  0  0  0  0  0  0
   25.5555    9.2365   56.3905 C   0  0  0  0  0  0  0  0  0  0  0  0
   26.0116    8.4717   55.3183 C   0  0  0  0  0  0  0  0  0  0  0  0
   27.3648    8.5818   54.9964 C   0  0  0  0  0  0  0  0  0  0  0  0
   28.2234    9.3990   55.6909 C   0  0  0  0  0  0  0  0  0  0  0  0
   28.0436   12.1581   58.0064 F   0  0  0  0  0  0  0  0  0  0  0  0
   28.7005   11.0425   57.5016 C   0  0  0  0  0  0  0  0  0  0  0  0
   29.7227   11.4646   56.7133 F   0  0  0  0  0  0  0  0  0  0  0  0
   29.1685   10.3656   58.6446 F   0  0  0  0  0  0  0  0  0  0  0  0
   19.4971    5.0475   53.4915 C   0  0  0  0  0  0  0  0  0  0  0  0
   19.6053    4.5043   52.3334 O   0  0  0  0  0  0  0  0  0  0  0  0
   18.3317    4.8184   54.2193 N   0  0  0  0  0  0  0  0  0  0  0  0
   18.2843    5.2837   55.1729 H   0  0  0  0  0  0  0  0  0  0  0  0
   17.2410    4.0402   53.8109 C   0  0  0  0  0  0  0  0  0  0  0  0
   17.2983    2.8141   53.2070 C   0  0  0  0  0  0  0  0  0  0  0  0
   16.1389    2.1562   52.8077 C   0  0  0  0  0  0  0  0  0  0  0  0
   14.9076    2.7116   53.0054 C   0  0  0  0  0  0  0  0  0  0  0  0
   14.8513    3.9379   53.6106 C   0  0  0  0  0  0  0  0  0  0  0  0
   15.9758    4.5929   54.0064 C   0  0  0  0  0  0  0  0  0  0  0  0
 19 20  1  0  0  0
 20 21  1  0  0  0
 20 22  1  0  0  0
 20 13  1  0  0  0
 13 14  2  0  0  0
 14 15  1  0  0  0
 15 16  2  0  0  0
 16 17  1  0  0  0
 17 18  2  0  0  0
 16  9  1  0  0  0
  9 10  2  0  0  0
  9 11  1  0  0  0
 11  1  1  0  0  0
  1  2  1  0  0  0
  2  3  1  0  0  0
  3  4  1  0  0  0
  4  5  1  0  0  0
  5  6  1  0  0  0
  6  7  1  0  0  0
  4 23  1  0  0  0
 23 24  2  0  0  0
 23 25  1  0  0  0
 25 27  1  0  0  0
 27 28  2  0  0  0
 28 29  1  0  0  0
 29 30  2  0  0  0
 30 31  1  0  0  0
 31 32  2  0  0  0
 18 13  1  0  0  0
  7  1  1  0  0  0
 32 27  1  0  0  0
  6  3  1  0  0  0
 11 12  1  0  0  0
  7  8  1  0  0  0
 25 26  1  0  0  0
M  END
> <minimizedAffinity>
24.94281

> <CNNscore>
0.4272466302

> <CNNaffinity>
6.0581703186

> <CNN_VS>
2.5883328915

> <CNNaffinity_variance>
0.4184423387

$$$$
[H]c1c([H])c([H])c(N([H])C(=O)[C@]2([H])C([H])([H])[C@]3([H])N([H])[C@@]([H])(N([H])C(=O)c4c([H])c([H])c(C(F)(F)F)c([H])c4[H])C([H])([H])[C@]32[H])c([H])c1[H]


 32 35  0  0  0  0  0  0  0  0999 V2000
   23.4296    6.2819   54.1201 C   0  0  0  0  0  0  0  0  0  0  0  0
   22.0455    6.8766   53.9822 C   0  0  0  0  0  0  0  0  0  0  0  0
   22.4024    8.2493   53.5820 C   0  0  0  0  0  0  0  0  0  0  0  0
   21.8837    9.4640   54.1140 C   0  0  0  0  0  0  0  0  0  0  0  0
   23.3629    9.7945   54.4505 C   0  0  0  0  0  0  0  0  0  0  0  0
   23.5062    8.3995   54.6732 C   0  0  0  0  0  0  0  0  0  0  0  0
   24.3617    7.4502   54.0687 N   0  0  0  0  0  0  0  0  0  0  0  0
   25.1770    7.1949   54.6459 H   0  0  0  0  0  0  0  0  0  0  0  0
   22.7463    5.5195   56.4264 C   0  0  0  0  0  0  0  0  0  0  0  0
   21.6632    6.1502   56.3699 O   0  0  0  0  0  0  0  0  0  0  0  0
   23.6301    5.5631   55.3508 N   0  0  0  0  0  0  0  0  0  0  0  0
   24.5428    5.0156   55.4285 H   0  0  0  0  0  0  0  0  0  0  0  0
   23.6254    3.2342   59.9244 C   0  0  0  0  0  0  0  0  0  0  0  0
   24.2987    3.0628   58.7360 C   0  0  0  0  0  0  0  0  0  0  0  0
   24.0473    3.7788   57.6014 C   0  0  0  0  0  0  0  0  0  0  0  0
   23.0510    4.7535   57.6138 C   0  0  0  0  0  0  0  0  0  0  0  0
   22.3622    4.9351   58.8136 C   0  0  0  0  0  0  0  0  0  0  0  0
   22.6378    4.1989   59.9403 C   0  0  0  0  0  0  0  0  0  0  0  0
   24.4522    1.1932   60.8244 F   0  0  0  0  0  0  0  0  0  0  0  0
   23.9198    2.4357   61.1464 C   0  0  0  0  0  0  0  0  0  0  0  0
   22.8022    2.2448   61.8941 F   0  0  0  0  0  0  0  0  0  0  0  0
   24.9378    3.0719   61.8829 F   0  0  0  0  0  0  0  0  0  0  0  0
   21.4754   10.4803   53.0851 C   0  0  0  0  0  0  0  0  0  0  0  0
   21.0219   10.0536   51.9626 O   0  0  0  0  0  0  0  0  0  0  0  0
   21.5660   11.8570   53.2775 N   0  0  0  0  0  0  0  0  0  0  0  0
   21.9434   12.1672   54.2206 H   0  0  0  0  0  0  0  0  0  0  0  0
   21.2062   12.8466   52.3539 C   0  0  0  0  0  0  0  0  0  0  0  0
   21.5371   12.8786   51.0269 C   0  0  0  0  0  0  0  0  0  0  0  0
   21.1536   13.9436   50.2174 C   0  0  0  0  0  0  0  0  0  0  0  0
   20.4351   14.9900   50.7199 C   0  0  0  0  0  0  0  0  0  0  0  0
   20.1037   14.9566   52.0474 C   0  0  0  0  0  0  0  0  0  0  0  0
   20.4714   13.9224   52.8509 C   0  0  0  0  0  0  0  0  0  0  0  0
 19 20  1  0  0  0
 20 21  1  0  0  0
 20 22  1  0  0  0
 20 13  1  0  0  0
 13 14  2  0  0  0
 14 15  1  0  0  0
 15 16  2  0  0  0
 16 17  1  0  0  0
 17 18  2  0  0  0
 16  9  1  0  0  0
  9 10  2  0  0  0
  9 11  1  0  0  0
 11  1  1  0  0  0
  1  2  1  0  0  0
  2  3  1  0  0  0
  3  4  1  0  0  0
  4  5  1  0  0  0
  5  6  1  0  0  0
  6  7  1  0  0  0
  4 23  1  0  0  0
 23 24  2  0  0  0
 23 25  1  0  0  0
 25 27  1  0  0  0
 27 28  2  0  0  0
 28 29  1  0  0  0
 29 30  2  0  0  0
 30 31  1  0  0  0
 31 32  2  0  0  0
 18 13  1  0  0  0
  7  1  1  0  0  0
 32 27  1  0  0  0
  6  3  1  0  0  0
 11 12  1  0  0  0
  7  8  1  0  0  0
 25 26  1  0  0  0
M  END
> <minimizedAffinity>
34.39153

> <CNNscore>
0.3638884425

> <CNNaffinity>
5.5196504593

> <CNN_VS>
2.0085370541

> <CNNaffinity_variance>
0.5208612680

$$$$
[H]c1c([H])c([H])c(N([H])C(=O)[C@]2([H])C([H])([H])[C@]3([H])N([H])[C@@]([H])(N([H])C(=O)c4c([H])c([H])c(C(F)(F)F)c([H])c4[H])C([H])([H])[C@]32[H])c([H])c1[H]


 32 35  0  0  0  0  0  0  0  0999 V2000
   21.9319    8.6454   53.3272 C   0  0  0  0  0  0  0  0  0  0  0  0
   22.3259    9.0862   54.7197 C   0  0  0  0  0  0  0  0  0  0  0  0
   23.7727    8.8109   54.6687 C   0  0  0  0  0  0  0  0  0  0  0  0
   24.5549    8.1301   55.6445 C   0  0  0  0  0  0  0  0  0  0  0  0
   24.9148    7.1594   54.4876 C   0  0  0  0  0  0  0  0  0  0  0  0
   23.5949    7.4023   54.0238 C   0  0  0  0  0  0  0  0  0  0  0  0
   23.1282    7.9228   52.7950 N   0  0  0  0  0  0  0  0  0  0  0  0
   22.7682    7.2061   52.1472 H   0  0  0  0  0  0  0  0  0  0  0  0
   20.7611    6.4501   53.7481 C   0  0  0  0  0  0  0  0  0  0  0  0
   21.7979    5.9301   54.2261 O   0  0  0  0  0  0  0  0  0  0  0  0
   20.7911    7.7683   53.2995 N   0  0  0  0  0  0  0  0  0  0  0  0
   19.8930    8.1829   52.8988 H   0  0  0  0  0  0  0  0  0  0  0  0
   17.1834    4.1260   53.5735 C   0  0  0  0  0  0  0  0  0  0  0  0
   17.1737    5.4981   53.6846 C   0  0  0  0  0  0  0  0  0  0  0  0
   18.2971    6.2717   53.7377 C   0  0  0  0  0  0  0  0  0  0  0  0
   19.5501    5.6640   53.6781 C   0  0  0  0  0  0  0  0  0  0  0  0
   19.5711    4.2733   53.5656 C   0  0  0  0  0  0  0  0  0  0  0  0
   18.4230    3.5207   53.5142 C   0  0  0  0  0  0  0  0  0  0  0  0
   15.4466    3.0523   54.7941 F   0  0  0  0  0  0  0  0  0  0  0  0
   15.9407    3.3073   53.5206 C   0  0  0  0  0  0  0  0  0  0  0  0
   16.1561    2.1204   52.8966 F   0  0  0  0  0  0  0  0  0  0  0  0
   14.9218    4.0495   52.8926 F   0  0  0  0  0  0  0  0  0  0  0  0
   25.8452    8.8104   56.0060 C   0  0  0  0  0  0  0  0  0  0  0  0
   26.6797    9.0608   55.0633 O   0  0  0  0  0  0  0  0  0  0  0  0
   26.1893    9.1792   57.3044 N   0  0  0  0  0  0  0  0  0  0  0  0
   25.4697    8.9565   58.0533 H   0  0  0  0  0  0  0  0  0  0  0  0
   27.3770    9.8087   57.6981 C   0  0  0  0  0  0  0  0  0  0  0  0
   27.9263   10.9299   57.1393 C   0  0  0  0  0  0  0  0  0  0  0  0
   29.1396   11.4374   57.5942 C   0  0  0  0  0  0  0  0  0  0  0  0
   29.8206   10.8343   58.6121 C   0  0  0  0  0  0  0  0  0  0  0  0
   29.2696    9.7132   59.1712 C   0  0  0  0  0  0  0  0  0  0  0  0
   28.0846    9.2055   58.7373 C   0  0  0  0  0  0  0  0  0  0  0  0
 19 20  1  0  0  0
 20 21  1  0  0  0
 20 22  1  0  0  0
 20 13  1  0  0  0
 13 14  2  0  0  0
 14 15  1  0  0  0
 15 16  2  0  0  0
 16 17  1  0  0  0
 17 18  2  0  0  0
 16  9  1  0  0  0
  9 10  2  0  0  0
  9 11  1  0  0  0
 11  1  1  0  0  0
  1  2  1  0  0  0
  2  3  1  0  0  0
  3  4  1  0  0  0
  4  5  1  0  0  0
  5  6  1  0  0  0
  6  7  1  0  0  0
  4 23  1  0  0  0
 23 24  2  0  0  0
 23 25  1  0  0  0
 25 27  1  0  0  0
 27 28  2  0  0  0
 28 29  1  0  0  0
 29 30  2  0  0  0
 30 31  1  0  0  0
 31 32  2  0  0  0
 18 13  1  0  0  0
  7  1  1  0  0  0
 32 27  1  0  0  0
  6  3  1  0  0  0
 11 12  1  0  0  0
  7  8  1  0  0  0
 25 26  1  0  0  0
M  END
> <minimizedAffinity>
27.57298

> <CNNscore>
0.3615536392

> <CNNaffinity>
5.6501922607

> <CNN_VS>
2.0428476334

> <CNNaffinity_variance>
0.5044659376

$$$$
[H]c1c([H])c([H])c(N([H])C(=O)[C@]2([H])C([H])([H])[C@]3([H])N([H])[C@@]([H])(N([H])C(=O)c4c([H])c([H])c(C(F)(F)F)c([H])c4[H])C([H])([H])[C@@]32[H])c([H])c1[H]


 32 35  0  0  0  0  0  0  0  0999 V2000
   25.1932    9.2066   55.1970 C   0  0  0  0  0  0  0  0  0  0  0  0
   25.9881    8.9990   56.4496 C   0  0  0  0  0  0  0  0  0  0  0  0
   27.1802    8.1558   56.0064 C   0  0  0  0  0  0  0  0  0  0  0  0
   28.5164    8.8043   56.0999 C   0  0  0  0  0  0  0  0  0  0  0  0
   28.6072    8.8605   54.6202 C   0  0  0  0  0  0  0  0  0  0  0  0
   27.1925    8.3524   54.5310 C   0  0  0  0  0  0  0  0  0  0  0  0
   26.2183    9.3535   54.1531 N   0  0  0  0  0  0  0  0  0  0  0  0
   25.7595    9.0274   53.2832 H   0  0  0  0  0  0  0  0  0  0  0  0
   22.9573    8.3207   54.4410 C   0  0  0  0  0  0  0  0  0  0  0  0
   22.5551    9.5146   54.4077 O   0  0  0  0  0  0  0  0  0  0  0  0
   24.3153    8.1177   54.8404 N   0  0  0  0  0  0  0  0  0  0  0  0
   24.6454    7.1097   54.8663 H   0  0  0  0  0  0  0  0  0  0  0  0
   20.2989    5.1274   53.3303 C   0  0  0  0  0  0  0  0  0  0  0  0
   21.6024    4.8701   53.7662 C   0  0  0  0  0  0  0  0  0  0  0  0
   22.4554    5.8862   54.1333 C   0  0  0  0  0  0  0  0  0  0  0  0
   22.0817    7.2089   54.0866 C   0  0  0  0  0  0  0  0  0  0  0  0
   20.7834    7.4759   53.6493 C   0  0  0  0  0  0  0  0  0  0  0  0
   19.9338    6.4439   53.2875 C   0  0  0  0  0  0  0  0  0  0  0  0
   19.1204    3.9196   51.6608 F   0  0  0  0  0  0  0  0  0  0  0  0
   19.4052    3.9971   52.9705 C   0  0  0  0  0  0  0  0  0  0  0  0
   18.2424    4.1235   53.7178 F   0  0  0  0  0  0  0  0  0  0  0  0
   20.0263    2.7956   53.3261 F   0  0  0  0  0  0  0  0  0  0  0  0
   28.5750   10.1177   56.8207 C   0  0  0  0  0  0  0  0  0  0  0  0
   28.4338   11.1830   56.2056 O   0  0  0  0  0  0  0  0  0  0  0  0
   28.7923   10.0789   58.2061 N   0  0  0  0  0  0  0  0  0  0  0  0
   28.9017    9.1028   58.6793 H   0  0  0  0  0  0  0  0  0  0  0  0
   28.8942   11.1576   59.1183 C   0  0  0  0  0  0  0  0  0  0  0  0
   28.1847   12.3186   59.0164 C   0  0  0  0  0  0  0  0  0  0  0  0
   28.3056   13.3701   59.9524 C   0  0  0  0  0  0  0  0  0  0  0  0
   29.1549   13.2615   61.0208 C   0  0  0  0  0  0  0  0  0  0  0  0
   29.8776   12.0926   61.1349 C   0  0  0  0  0  0  0  0  0  0  0  0
   29.7545   11.0768   60.2174 C   0  0  0  0  0  0  0  0  0  0  0  0
 19 20  1  0  0  0
 20 21  1  0  0  0
 20 22  1  0  0  0
 20 13  1  0  0  0
 13 14  2  0  0  0
 14 15  1  0  0  0
 15 16  2  0  0  0
 16 17  1  0  0  0
 17 18  2  0  0  0
 16  9  1  0  0  0
  9 10  2  0  0  0
  9 11  1  0  0  0
 11  1  1  0  0  0
  1  2  1  0  0  0
  2  3  1  0  0  0
  3  4  1  0  0  0
  4  5  1  0  0  0
  5  6  1  0  0  0
  6  7  1  0  0  0
  4 23  1  0  0  0
 23 24  2  0  0  0
 23 25  1  0  0  0
 25 27  1  0  0  0
 27 28  2  0  0  0
 28 29  1  0  0  0
 29 30  2  0  0  0
 30 31  1  0  0  0
 31 32  2  0  0  0
 18 13  1  0  0  0
  7  1  1  0  0  0
 32 27  1  0  0  0
  6  3  1  0  0  0
 11 12  1  0  0  0
  7  8  1  0  0  0
 25 26  1  0  0  0
M  END
> <minimizedAffinity>
17.84502

> <CNNscore>
0.5379168391

> <CNNaffinity>
5.5476517677

> <CNN_VS>
2.9841752052

> <CNNaffinity_variance>
0.0182985105

$$$$
[H]c1c([H])c([H])c(N([H])C(=O)[C@]2([H])C([H])([H])[C@]3([H])N([H])[C@@]([H])(N([H])C(=O)c4c([H])c([H])c(C(F)(F)F)c([H])c4[H])C([H])([H])[C@@]32[H])c([H])c1[H]


 32 35  0  0  0  0  0  0  0  0999 V2000
   22.4913    7.5641   54.9980 C   0  0  0  0  0  0  0  0  0  0  0  0
   23.8004    7.1901   55.6228 C   0  0  0  0  0  0  0  0  0  0  0  0
   24.7116    6.8824   54.4380 C   0  0  0  0  0  0  0  0  0  0  0  0
   25.8663    7.8001   54.2397 C   0  0  0  0  0  0  0  0  0  0  0  0
   25.2389    8.3452   53.0109 C   0  0  0  0  0  0  0  0  0  0  0  0
   24.0046    7.5329   53.3010 C   0  0  0  0  0  0  0  0  0  0  0  0
   22.8804    8.3032   53.7878 N   0  0  0  0  0  0  0  0  0  0  0  0
   22.0961    8.1599   53.1261 H   0  0  0  0  0  0  0  0  0  0  0  0
   20.3717    6.6247   54.0078 C   0  0  0  0  0  0  0  0  0  0  0  0
   20.0014    7.8126   53.8081 O   0  0  0  0  0  0  0  0  0  0  0  0
   21.6536    6.4517   54.6175 N   0  0  0  0  0  0  0  0  0  0  0  0
   21.9573    5.4487   54.7827 H   0  0  0  0  0  0  0  0  0  0  0  0
   18.0157    3.2058   52.8861 C   0  0  0  0  0  0  0  0  0  0  0  0
   17.4444    4.2972   53.5476 C   0  0  0  0  0  0  0  0  0  0  0  0
   18.1899    5.3993   53.9004 C   0  0  0  0  0  0  0  0  0  0  0  0
   19.5356    5.4898   53.6318 C   0  0  0  0  0  0  0  0  0  0  0  0
   20.1156    4.4035   52.9748 C   0  0  0  0  0  0  0  0  0  0  0  0
   19.3531    3.3028   52.6212 C   0  0  0  0  0  0  0  0  0  0  0  0
   16.0150    1.9640   53.1862 F   0  0  0  0  0  0  0  0  0  0  0  0
   17.1662    2.0500   52.5009 C   0  0  0  0  0  0  0  0  0  0  0  0
   17.9214    0.8972   52.6655 F   0  0  0  0  0  0  0  0  0  0  0  0
   16.8298    2.1641   51.1483 F   0  0  0  0  0  0  0  0  0  0  0  0
   26.1388    8.7818   55.3397 C   0  0  0  0  0  0  0  0  0  0  0  0
   25.3079    9.6531   55.6292 O   0  0  0  0  0  0  0  0  0  0  0  0
   27.3625    8.6636   56.0153 N   0  0  0  0  0  0  0  0  0  0  0  0
   28.0413    7.8677   55.7080 H   0  0  0  0  0  0  0  0  0  0  0  0
   27.8688    9.4519   57.0774 C   0  0  0  0  0  0  0  0  0  0  0  0
   27.9839   10.8109   57.0376 C   0  0  0  0  0  0  0  0  0  0  0  0
   28.4849   11.5653   58.1220 C   0  0  0  0  0  0  0  0  0  0  0  0
   28.8803   10.9496   59.2792 C   0  0  0  0  0  0  0  0  0  0  0  0
   28.7688    9.5761   59.3320 C   0  0  0  0  0  0  0  0  0  0  0  0
   28.2823    8.8514   58.2704 C   0  0  0  0  0  0  0  0  0  0  0  0
 19 20  1  0  0  0
 20 21  1  0  0  0
 20 22  1  0  0  0
 20 13  1  0  0  0
 13 14  2  0  0  0
 14 15  1  0  0  0
 15 16  2  0  0  0
 16 17  1  0  0  0
 17 18  2  0  0  0
 16  9  1  0  0  0
  9 10  2  0  0  0
  9 11  1  0  0  0
 11  1  1  0  0  0
  1  2  1  0  0  0
  2  3  1  0  0  0
  3  4  1  0  0  0
  4  5  1  0  0  0
  5  6  1  0  0  0
  6  7  1  0  0  0
  4 23  1  0  0  0
 23 24  2  0  0  0
 23 25  1  0  0  0
 25 27  1  0  0  0
 27 28  2  0  0  0
 28 29  1  0  0  0
 29 30  2  0  0  0
 30 31  1  0  0  0
 31 32  2  0  0  0
 18 13  1  0  0  0
  7  1  1  0  0  0
 32 27  1  0  0  0
  6  3  1  0  0  0
 11 12  1  0  0  0
  7  8  1  0  0  0
 25 26  1  0  0  0
M  END
> <minimizedAffinity>
27.77847

> <CNNscore>
0.5304351449

> <CNNaffinity>
5.6960439682

> <CNN_VS>
3.0213818550

> <CNNaffinity_variance>
0.2662181854

$$$$
[H]c1c([H])c([H])c(N([H])C(=O)[C@]2([H])C([H])([H])[C@]3([H])N([H])[C@@]([H])(N([H])C(=O)c4c([H])c([H])c(C(F)(F)F)c([H])c4[H])C([H])([H])[C@@]32[H])c([H])c1[H]


 32 35  0  0  0  0  0  0  0  0999 V2000
   24.1213    7.8991   54.5041 C   0  0  0  0  0  0  0  0  0  0  0  0
   22.6806    7.6592   54.8365 C   0  0  0  0  0  0  0  0  0  0  0  0
   21.9917    8.9818   54.5131 C   0  0  0  0  0  0  0  0  0  0  0  0
   21.0123    8.9575   53.3929 C   0  0  0  0  0  0  0  0  0  0  0  0
   21.9282    9.7719   52.5570 C   0  0  0  0  0  0  0  0  0  0  0  0
   22.9792    9.6602   53.6297 C   0  0  0  0  0  0  0  0  0  0  0  0
   24.0664    8.7593   53.3128 N   0  0  0  0  0  0  0  0  0  0  0  0
   24.9439    9.3093   53.3422 H   0  0  0  0  0  0  0  0  0  0  0  0
   26.3136    8.5972   55.5348 C   0  0  0  0  0  0  0  0  0  0  0  0
   26.8890    8.0048   54.5829 O   0  0  0  0  0  0  0  0  0  0  0  0
   24.8838    8.5696   55.5302 N   0  0  0  0  0  0  0  0  0  0  0  0
   24.4076    9.0700   56.3354 H   0  0  0  0  0  0  0  0  0  0  0  0
   28.5959   10.4848   58.6535 C   0  0  0  0  0  0  0  0  0  0  0  0
   28.0457   11.2271   57.6040 C   0  0  0  0  0  0  0  0  0  0  0  0
   27.3053   10.6315   56.6081 C   0  0  0  0  0  0  0  0  0  0  0  0
   27.0697    9.2768   56.5811 C   0  0  0  0  0  0  0  0  0  0  0  0
   27.6180    8.5269   57.6228 C   0  0  0  0  0  0  0  0  0  0  0  0
   28.3569    9.1393   58.6212 C   0  0  0  0  0  0  0  0  0  0  0  0
   30.6904   10.9719   59.6588 F   0  0  0  0  0  0  0  0  0  0  0  0
   29.3647   11.1745   59.7207 C   0  0  0  0  0  0  0  0  0  0  0  0
   28.8614   10.7531   60.9436 F   0  0  0  0  0  0  0  0  0  0  0  0
   29.1559   12.5532   59.6125 F   0  0  0  0  0  0  0  0  0  0  0  0
   20.6432    7.6077   52.8546 C   0  0  0  0  0  0  0  0  0  0  0  0
   20.7770    7.3491   51.6511 O   0  0  0  0  0  0  0  0  0  0  0  0
   20.1484    6.6665   53.7697 N   0  0  0  0  0  0  0  0  0  0  0  0
   20.0640    6.9651   54.8148 H   0  0  0  0  0  0  0  0  0  0  0  0
   19.7263    5.3356   53.5320 C   0  0  0  0  0  0  0  0  0  0  0  0
   20.5075    4.3726   52.9629 C   0  0  0  0  0  0  0  0  0  0  0  0
   20.0547    3.0512   52.7505 C   0  0  0  0  0  0  0  0  0  0  0  0
   18.7896    2.6777   53.1171 C   0  0  0  0  0  0  0  0  0  0  0  0
   17.9901    3.6422   53.6936 C   0  0  0  0  0  0  0  0  0  0  0  0
   18.4395    4.9255   53.8935 C   0  0  0  0  0  0  0  0  0  0  0  0
 19 20  1  0  0  0
 20 21  1  0  0  0
 20 22  1  0  0  0
 20 13  1  0  0  0
 13 14  2  0  0  0
 14 15  1  0  0  0
 15 16  2  0  0  0
 16 17  1  0  0  0
 17 18  2  0  0  0
 16  9  1  0  0  0
  9 10  2  0  0  0
  9 11  1  0  0  0
 11  1  1  0  0  0
  1  2  1  0  0  0
  2  3  1  0  0  0
  3  4  1  0  0  0
  4  5  1  0  0  0
  5  6  1  0  0  0
  6  7  1  0  0  0
  4 23  1  0  0  0
 23 24  2  0  0  0
 23 25  1  0  0  0
 25 27  1  0  0  0
 27 28  2  0  0  0
 28 29  1  0  0  0
 29 30  2  0  0  0
 30 31  1  0  0  0
 31 32  2  0  0  0
 18 13  1  0  0  0
  7  1  1  0  0  0
 32 27  1  0  0  0
  6  3  1  0  0  0
 11 12  1  0  0  0
  7  8  1  0  0  0
 25 26  1  0  0  0
M  END
> <minimizedAffinity>
17.29141

> <CNNscore>
0.5291138291

> <CNNaffinity>
6.0224494934

> <CNN_VS>
3.1865613461

> <CNNaffinity_variance>
0.1782968938

$$$$
[H]c1c([H])c([H])c(N([H])C(=O)[C@]2([H])C([H])([H])[C@]3([H])N([H])[C@@]([H])(N([H])C(=O)c4c([H])c([H])c(C(F)(F)F)c([H])c4[H])C([H])([H])[C@@]32[H])c([H])c1[H]


 32 35  0  0  0  0  0  0  0  0999 V2000
   22.0366    6.5643   55.4685 C   0  0  0  0  0  0  0  0  0  0  0  0
   23.0998    6.0788   54.5316 C   0  0  0  0  0  0  0  0  0  0  0  0
   22.8716    6.8787   53.2523 C   0  0  0  0  0  0  0  0  0  0  0  0
   23.9505    7.8295   52.8690 C   0  0  0  0  0  0  0  0  0  0  0  0
   23.0678    8.9792   53.1852 C   0  0  0  0  0  0  0  0  0  0  0  0
   22.0385    8.0196   53.7214 C   0  0  0  0  0  0  0  0  0  0  0  0
   21.9317    7.9991   55.1644 N   0  0  0  0  0  0  0  0  0  0  0  0
   20.9564    8.2509   55.4071 H   0  0  0  0  0  0  0  0  0  0  0  0
   20.2250    5.5900   54.0111 C   0  0  0  0  0  0  0  0  0  0  0  0
   20.9684    5.8255   53.0211 O   0  0  0  0  0  0  0  0  0  0  0  0
   20.7404    5.9534   55.2945 N   0  0  0  0  0  0  0  0  0  0  0  0
   20.1080    5.7524   56.1223 H   0  0  0  0  0  0  0  0  0  0  0  0
   16.4103    3.6615   53.5346 C   0  0  0  0  0  0  0  0  0  0  0  0
   16.5102    4.9597   54.0442 C   0  0  0  0  0  0  0  0  0  0  0  0
   17.7267    5.5873   54.1898 C   0  0  0  0  0  0  0  0  0  0  0  0
   18.9113    4.9759   53.8517 C   0  0  0  0  0  0  0  0  0  0  0  0
   18.8219    3.6784   53.3453 C   0  0  0  0  0  0  0  0  0  0  0  0
   17.5913    3.0603   53.1995 C   0  0  0  0  0  0  0  0  0  0  0  0
   15.0976    1.6927   53.3457 F   0  0  0  0  0  0  0  0  0  0  0  0
   15.0740    3.0348   53.3699 C   0  0  0  0  0  0  0  0  0  0  0  0
   14.5132    3.5358   52.2032 F   0  0  0  0  0  0  0  0  0  0  0  0
   14.2604    3.4105   54.4436 F   0  0  0  0  0  0  0  0  0  0  0  0
   25.2301    7.7395   53.6452 C   0  0  0  0  0  0  0  0  0  0  0  0
   25.3320    6.9679   54.6083 O   0  0  0  0  0  0  0  0  0  0  0  0
   26.2901    8.5593   53.2302 N   0  0  0  0  0  0  0  0  0  0  0  0
   26.1274    9.2089   52.3699 H   0  0  0  0  0  0  0  0  0  0  0  0
   27.5900    8.6745   53.7807 C   0  0  0  0  0  0  0  0  0  0  0  0
   28.2728    9.8501   53.8973 C   0  0  0  0  0  0  0  0  0  0  0  0
   29.5657    9.9276   54.4618 C   0  0  0  0  0  0  0  0  0  0  0  0
   30.1953    8.8036   54.9250 C   0  0  0  0  0  0  0  0  0  0  0  0
   29.5155    7.6090   54.8129 C   0  0  0  0  0  0  0  0  0  0  0  0
   28.2590    7.5442   54.2598 C   0  0  0  0  0  0  0  0  0  0  0  0
 19 20  1  0  0  0
 20 21  1  0  0  0
 20 22  1  0  0  0
 20 13  1  0  0  0
 13 14  2  0  0  0
 14 15  1  0  0  0
 15 16  2  0  0  0
 16 17  1  0  0  0
 17 18  2  0  0  0
 16  9  1  0  0  0
  9 10  2  0  0  0
  9 11  1  0  0  0
 11  1  1  0  0  0
  1  2  1  0  0  0
  2  3  1  0  0  0
  3  4  1  0  0  0
  4  5  1  0  0  0
  5  6  1  0  0  0
  6  7  1  0  0  0
  4 23  1  0  0  0
 23 24  2  0  0  0
 23 25  1  0  0  0
 25 27  1  0  0  0
 27 28  2  0  0  0
 28 29  1  0  0  0
 29 30  2  0  0  0
 30 31  1  0  0  0
 31 32  2  0  0  0
 18 13  1  0  0  0
  7  1  1  0  0  0
 32 27  1  0  0  0
  6  3  1  0  0  0
 11 12  1  0  0  0
  7  8  1  0  0  0
 25 26  1  0  0  0
M  END
> <minimizedAffinity>
32.60967

> <CNNscore>
0.5218342543

> <CNNaffinity>
5.7585234642

> <CNN_VS>
3.0049948692

> <CNNaffinity_variance>
0.1461149752

$$$$
[H]c1c([H])c([H])c(N([H])C(=O)[C@]2([H])C([H])([H])[C@]3([H])N([H])[C@@]([H])(N([H])C(=O)c4c([H])c([H])c(C(F)(F)F)c([H])c4[H])C([H])([H])[C@@]32[H])c([H])c1[H]


 32 35  0  0  0  0  0  0  0  0999 V2000
   25.5753    9.5472   55.1905 C   0  0  0  0  0  0  0  0  0  0  0  0
   25.9674    9.4836   56.6349 C   0  0  0  0  0  0  0  0  0  0  0  0
   27.0798    8.4400   56.6800 C   0  0  0  0  0  0  0  0  0  0  0  0
   28.4316    8.9346   57.0580 C   0  0  0  0  0  0  0  0  0  0  0  0
   28.9167    8.7054   55.6749 C   0  0  0  0  0  0  0  0  0  0  0  0
   27.5121    8.3577   55.2580 C   0  0  0  0  0  0  0  0  0  0  0  0
   26.8489    9.3782   54.4752 N   0  0  0  0  0  0  0  0  0  0  0  0
   26.5884    8.9525   53.5671 H   0  0  0  0  0  0  0  0  0  0  0  0
   23.2375    8.6938   54.7882 C   0  0  0  0  0  0  0  0  0  0  0  0
   22.8166    9.8043   55.2097 O   0  0  0  0  0  0  0  0  0  0  0  0
   24.6567    8.5208   54.7588 N   0  0  0  0  0  0  0  0  0  0  0  0
   25.0024    7.5828   54.4034 H   0  0  0  0  0  0  0  0  0  0  0  0
   20.6147    5.5135   53.5613 C   0  0  0  0  0  0  0  0  0  0  0  0
   20.1952    6.8473   53.5500 C   0  0  0  0  0  0  0  0  0  0  0  0
   21.0323    7.8714   53.9312 C   0  0  0  0  0  0  0  0  0  0  0  0
   22.3222    7.6452   54.3512 C   0  0  0  0  0  0  0  0  0  0  0  0
   22.7489    6.3164   54.3692 C   0  0  0  0  0  0  0  0  0  0  0  0
   21.8981    5.2960   53.9785 C   0  0  0  0  0  0  0  0  0  0  0  0
   20.2421    3.2243   53.0559 F   0  0  0  0  0  0  0  0  0  0  0  0
   19.6853    4.4444   53.1153 C   0  0  0  0  0  0  0  0  0  0  0  0
   19.1806    4.8132   51.8760 F   0  0  0  0  0  0  0  0  0  0  0  0
   18.6189    4.3642   54.0165 F   0  0  0  0  0  0  0  0  0  0  0  0
   28.5119   10.3427   57.5668 C   0  0  0  0  0  0  0  0  0  0  0  0
   28.2406   11.2982   56.8274 O   0  0  0  0  0  0  0  0  0  0  0  0
   28.9019   10.5199   58.9026 N   0  0  0  0  0  0  0  0  0  0  0  0
   29.1195    9.6302   59.4940 H   0  0  0  0  0  0  0  0  0  0  0  0
   29.0611   11.7263   59.6273 C   0  0  0  0  0  0  0  0  0  0  0  0
   28.1537   12.7453   59.6307 C   0  0  0  0  0  0  0  0  0  0  0  0
   28.3425   13.9313   60.3750 C   0  0  0  0  0  0  0  0  0  0  0  0
   29.4650   14.1067   61.1389 C   0  0  0  0  0  0  0  0  0  0  0  0
   30.3899   13.0837   61.1440 C   0  0  0  0  0  0  0  0  0  0  0  0
   30.1977   11.9350   60.4144 C   0  0  0  0  0  0  0  0  0  0  0  0
 19 20  1  0  0  0
 20 21  1  0  0  0
 20 22  1  0  0  0
 20 13  1  0  0  0
 13 14  2  0  0  0
 14 15  1  0  0  0
 15 16  2  0  0  0
 16 17  1  0  0  0
 17 18  2  0  0  0
 16  9  1  0  0  0
  9 10  2  0  0  0
  9 11  1  0  0  0
 11  1  1  0  0  0
  1  2  1  0  0  0
  2  3  1  0  0  0
  3  4  1  0  0  0
  4  5  1  0  0  0
  5  6  1  0  0  0
  6  7  1  0  0  0
  4 23  1  0  0  0
 23 24  2  0  0  0
 23 25  1  0  0  0
 25 27  1  0  0  0
 27 28  2  0  0  0
 28 29  1  0  0  0
 29 30  2  0  0  0
 30 31  1  0  0  0
 31 32  2  0  0  0
 18 13  1  0  0  0
  7  1  1  0  0  0
 32 27  1  0  0  0
  6  3  1  0  0  0
 11 12  1  0  0  0
  7  8  1  0  0  0
 25 26  1  0  0  0
M  END
> <minimizedAffinity>
16.85552

> <CNNscore>
0.5055694580

> <CNNaffinity>
5.4702463150

> <CNN_VS>
2.7655894756

> <CNNaffinity_variance>
0.0492967181

$$$$
[H]c1c([H])c([H])c(N([H])C(=O)[C@]2([H])C([H])([H])[C@]3([H])N([H])[C@@]([H])(N([H])C(=O)c4c([H])c([H])c(C(F)(F)F)c([H])c4[H])C([H])([H])[C@@]32[H])c([H])c1[H]


 32 35  0  0  0  0  0  0  0  0999 V2000
   22.0820    6.6454   55.5072 C   0  0  0  0  0  0  0  0  0  0  0  0
   22.4627    7.5625   54.3856 C   0  0  0  0  0  0  0  0  0  0  0  0
   21.4525    8.7031   54.4692 C   0  0  0  0  0  0  0  0  0  0  0  0
   21.9991   10.0425   54.8186 C   0  0  0  0  0  0  0  0  0  0  0  0
   21.3329    9.9835   56.1428 C   0  0  0  0  0  0  0  0  0  0  0  0
   20.9151    8.5666   55.8507 C   0  0  0  0  0  0  0  0  0  0  0  0
   21.6584    7.5601   56.5777 N   0  0  0  0  0  0  0  0  0  0  0  0
   20.9776    7.0156   57.1376 H   0  0  0  0  0  0  0  0  0  0  0  0
   20.2327    5.8111   54.0106 C   0  0  0  0  0  0  0  0  0  0  0  0
   20.5515    6.7207   53.1987 O   0  0  0  0  0  0  0  0  0  0  0  0
   21.0006    5.7351   55.2146 N   0  0  0  0  0  0  0  0  0  0  0  0
   20.7252    4.9672   55.8928 H   0  0  0  0  0  0  0  0  0  0  0  0
   17.1017    2.9862   53.1652 C   0  0  0  0  0  0  0  0  0  0  0  0
   16.8419    4.1752   53.8537 C   0  0  0  0  0  0  0  0  0  0  0  0
   17.8368    5.0889   54.1187 C   0  0  0  0  0  0  0  0  0  0  0  0
   19.1406    4.8852   53.7312 C   0  0  0  0  0  0  0  0  0  0  0  0
   19.4102    3.6993   53.0463 C   0  0  0  0  0  0  0  0  0  0  0  0
   18.3991    2.7907   52.7820 C   0  0  0  0  0  0  0  0  0  0  0  0
   15.6142    1.3033   53.9333 F   0  0  0  0  0  0  0  0  0  0  0  0
   15.9912    2.0428   52.8781 C   0  0  0  0  0  0  0  0  0  0  0  0
   16.3895    1.2287   51.8269 F   0  0  0  0  0  0  0  0  0  0  0  0
   14.8703    2.7716   52.4677 F   0  0  0  0  0  0  0  0  0  0  0  0
   23.4926   10.1746   54.8301 C   0  0  0  0  0  0  0  0  0  0  0  0
   24.0280   11.2910   54.8464 O   0  0  0  0  0  0  0  0  0  0  0  0
   24.2407    8.9880   54.8238 N   0  0  0  0  0  0  0  0  0  0  0  0
   23.6988    8.0420   54.8150 H   0  0  0  0  0  0  0  0  0  0  0  0
   25.6479    8.8268   54.8280 C   0  0  0  0  0  0  0  0  0  0  0  0
   26.3683    8.3440   53.7746 C   0  0  0  0  0  0  0  0  0  0  0  0
   27.7740    8.2066   53.8120 C   0  0  0  0  0  0  0  0  0  0  0  0
   28.4823    8.5620   54.9285 C   0  0  0  0  0  0  0  0  0  0  0  0
   27.7654    9.0515   56.0000 C   0  0  0  0  0  0  0  0  0  0  0  0
   26.3978    9.1789   55.9542 C   0  0  0  0  0  0  0  0  0  0  0  0
 19 20  1  0  0  0
 20 21  1  0  0  0
 20 22  1  0  0  0
 20 13  1  0  0  0
 13 14  2  0  0  0
 14 15  1  0  0  0
 15 16  2  0  0  0
 16 17  1  0  0  0
 17 18  2  0  0  0
 16  9  1  0  0  0
  9 10  2  0  0  0
  9 11  1  0  0  0
 11  1  1  0  0  0
  1  2  1  0  0  0
  2  3  1  0  0  0
  3  4  1  0  0  0
  4  5  1  0  0  0
  5  6  1  0  0  0
  6  7  1  0  0  0
  4 23  1  0  0  0
 23 24  2  0  0  0
 23 25  1  0  0  0
 25 27  1  0  0  0
 27 28  2  0  0  0
 28 29  1  0  0  0
 29 30  2  0  0  0
 30 31  1  0  0  0
 31 32  2  0  0  0
 18 13  1  0  0  0
  7  1  1  0  0  0
 32 27  1  0  0  0
  6  3  1  0  0  0
 11 12  1  0  0  0
  7  8  1  0  0  0
 25 26  1  0  0  0
M  END
> <minimizedAffinity>
31.01809

> <CNNscore>
0.4904246926

> <CNNaffinity>
5.5427694321

> <CNN_VS>
2.7183110714

> <CNNaffinity_variance>
0.2149249613

$$$$
[H]c1c([H])c([H])c(N([H])C(=O)[C@]2([H])C([H])([H])[C@]3([H])N([H])[C@@]([H])(N([H])C(=O)c4c([H])c([H])c(C(F)(F)F)c([H])c4[H])C([H])([H])[C@@]32[H])c([H])c1[H]


 32 35  0  0  0  0  0  0  0  0999 V2000
   22.5868    8.4016   54.7791 C   0  0  0  0  0  0  0  0  0  0  0  0
   23.7607    7.8888   55.5556 C   0  0  0  0  0  0  0  0  0  0  0  0
   24.4340    6.8957   54.6128 C   0  0  0  0  0  0  0  0  0  0  0  0
   25.7967    7.2590   54.1377 C   0  0  0  0  0  0  0  0  0  0  0  0
   25.2737    7.4835   52.7677 C   0  0  0  0  0  0  0  0  0  0  0  0
   23.8755    7.2713   53.2851 C   0  0  0  0  0  0  0  0  0  0  0  0
   23.0882    8.4802   53.3991 N   0  0  0  0  0  0  0  0  0  0  0  0
   22.2481    8.3607   52.8046 H   0  0  0  0  0  0  0  0  0  0  0  0
   20.7649    7.1057   53.6142 C   0  0  0  0  0  0  0  0  0  0  0  0
   21.2678    7.4833   52.5221 O   0  0  0  0  0  0  0  0  0  0  0  0
   21.4178    7.5551   54.8045 N   0  0  0  0  0  0  0  0  0  0  0  0
   20.9876    7.2333   55.7193 H   0  0  0  0  0  0  0  0  0  0  0  0
   17.3544    4.4905   53.7787 C   0  0  0  0  0  0  0  0  0  0  0  0
   17.2053    5.8809   53.7786 C   0  0  0  0  0  0  0  0  0  0  0  0
   18.2916    6.7241   53.7156 C   0  0  0  0  0  0  0  0  0  0  0  0
   19.5822    6.2527   53.6569 C   0  0  0  0  0  0  0  0  0  0  0  0
   19.7412    4.8661   53.6601 C   0  0  0  0  0  0  0  0  0  0  0  0
   18.6396    4.0289   53.7190 C   0  0  0  0  0  0  0  0  0  0  0  0
   16.3029    2.4465   53.1863 F   0  0  0  0  0  0  0  0  0  0  0  0
   16.1518    3.6201   53.8204 C   0  0  0  0  0  0  0  0  0  0  0  0
   15.0929    4.3361   53.2795 F   0  0  0  0  0  0  0  0  0  0  0  0
   15.8478    3.3286   55.1540 F   0  0  0  0  0  0  0  0  0  0  0  0
   26.4471    8.4348   54.8029 C   0  0  0  0  0  0  0  0  0  0  0  0
   26.6402    9.4868   54.1789 O   0  0  0  0  0  0  0  0  0  0  0  0
   26.8178    8.2859   56.1476 N   0  0  0  0  0  0  0  0  0  0  0  0
   26.6104    7.3317   56.6324 H   0  0  0  0  0  0  0  0  0  0  0  0
   27.4442    9.2242   57.0039 C   0  0  0  0  0  0  0  0  0  0  0  0
   28.0696    8.8992   58.1722 C   0  0  0  0  0  0  0  0  0  0  0  0
   28.6930    9.8626   58.9964 C   0  0  0  0  0  0  0  0  0  0  0  0
   28.6959   11.1862   58.6464 C   0  0  0  0  0  0  0  0  0  0  0  0
   28.0671   11.5275   57.4675 C   0  0  0  0  0  0  0  0  0  0  0  0
   27.4614   10.5828   56.6742 C   0  0  0  0  0  0  0  0  0  0  0  0
 19 20  1  0  0  0
 20 21  1  0  0  0
 20 22  1  0  0  0
 20 13  1  0  0  0
 13 14  2  0  0  0
 14 15  1  0  0  0
 15 16  2  0  0  0
 16 17  1  0  0  0
 17 18  2  0  0  0
 16  9  1  0  0  0
  9 10  2  0  0  0
  9 11  1  0  0  0
 11  1  1  0  0  0
  1  2  1  0  0  0
  2  3  1  0  0  0
  3  4  1  0  0  0
  4  5  1  0  0  0
  5  6  1  0  0  0
  6  7  1  0  0  0
  4 23  1  0  0  0
 23 24  2  0  0  0
 23 25  1  0  0  0
 25 27  1  0  0  0
 27 28  2  0  0  0
 28 29  1  0  0  0
 29 30  2  0  0  0
 30 31  1  0  0  0
 31 32  2  0  0  0
 18 13  1  0  0  0
  7  1  1  0  0  0
 32 27  1  0  0  0
  6  3  1  0  0  0
 11 12  1  0  0  0
  7  8  1  0  0  0
 25 26  1  0  0  0
M  END
> <minimizedAffinity>
24.01995

> <CNNscore>
0.4814991057

> <CNNaffinity>
5.5772638321

> <CNN_VS>
2.6854474545

> <CNNaffinity_variance>
0.2038386762

$$$$
[H]c1c([H])c([H])c(N([H])C(=O)[C@]2([H])C([H])([H])[C@]3([H])N([H])[C@@]([H])(N([H])C(=O)c4c([H])c([H])c(C(F)(F)F)c([H])c4[H])C([H])([H])[C@@]32[H])c([H])c1[H]


 32 35  0  0  0  0  0  0  0  0999 V2000
   23.2290    6.5844   54.2589 C   0  0  0  0  0  0  0  0  0  0  0  0
   21.8071    6.5245   54.7263 C   0  0  0  0  0  0  0  0  0  0  0  0
   21.1987    7.8436   54.2590 C   0  0  0  0  0  0  0  0  0  0  0  0
   20.1294    7.7470   53.2285 C   0  0  0  0  0  0  0  0  0  0  0  0
   21.0322    8.3480   52.2163 C   0  0  0  0  0  0  0  0  0  0  0  0
   22.1580    8.2973   53.2152 C   0  0  0  0  0  0  0  0  0  0  0  0
   23.1409    7.2666   52.9593 N   0  0  0  0  0  0  0  0  0  0  0  0
   24.0581    7.7343   52.8427 H   0  0  0  0  0  0  0  0  0  0  0  0
   25.3116    7.9563   54.6279 C   0  0  0  0  0  0  0  0  0  0  0  0
   25.5410    7.8428   53.3939 O   0  0  0  0  0  0  0  0  0  0  0  0
   24.1253    7.3237   55.1154 N   0  0  0  0  0  0  0  0  0  0  0  0
   23.9402    7.4236   56.1553 H   0  0  0  0  0  0  0  0  0  0  0  0
   28.0520   10.1315   57.1293 C   0  0  0  0  0  0  0  0  0  0  0  0
   26.6717   10.1815   57.3476 C   0  0  0  0  0  0  0  0  0  0  0  0
   25.7893    9.4798   56.5578 C   0  0  0  0  0  0  0  0  0  0  0  0
   26.2090    8.6975   55.5074 C   0  0  0  0  0  0  0  0  0  0  0  0
   27.5850    8.6442   55.2795 C   0  0  0  0  0  0  0  0  0  0  0  0
   28.4622    9.3513   56.0846 C   0  0  0  0  0  0  0  0  0  0  0  0
   29.4083   10.1766   59.0769 F   0  0  0  0  0  0  0  0  0  0  0  0
   28.9677   10.8839   58.0243 C   0  0  0  0  0  0  0  0  0  0  0  0
   28.3020   12.0264   58.4461 F   0  0  0  0  0  0  0  0  0  0  0  0
   30.0944   11.2772   57.2950 F   0  0  0  0  0  0  0  0  0  0  0  0
   19.6119    6.3725   52.9264 C   0  0  0  0  0  0  0  0  0  0  0  0
   20.1679    5.6599   52.0801 O   0  0  0  0  0  0  0  0  0  0  0  0
   18.4850    5.9408   53.6417 N   0  0  0  0  0  0  0  0  0  0  0  0
   18.0532    6.6220   54.3752 H   0  0  0  0  0  0  0  0  0  0  0  0
   17.7973    4.7059   53.5519 C   0  0  0  0  0  0  0  0  0  0  0  0
   18.2876    3.5980   52.9243 C   0  0  0  0  0  0  0  0  0  0  0  0
   17.5760    2.3789   52.8637 C   0  0  0  0  0  0  0  0  0  0  0  0
   16.3428    2.2589   53.4462 C   0  0  0  0  0  0  0  0  0  0  0  0
   15.8363    3.3718   54.0838 C   0  0  0  0  0  0  0  0  0  0  0  0
   16.5356    4.5538   54.1349 C   0  0  0  0  0  0  0  0  0  0  0  0
 19 20  1  0  0  0
 20 21  1  0  0  0
 20 22  1  0  0  0
 20 13  1  0  0  0
 13 14  2  0  0  0
 14 15  1  0  0  0
 15 16  2  0  0  0
 16 17  1  0  0  0
 17 18  2  0  0  0
 16  9  1  0  0  0
  9 10  2  0  0  0
  9 11  1  0  0  0
 11  1  1  0  0  0
  1  2  1  0  0  0
  2  3  1  0  0  0
  3  4  1  0  0  0
  4  5  1  0  0  0
  5  6  1  0  0  0
  6  7  1  0  0  0
  4 23  1  0  0  0
 23 24  2  0  0  0
 23 25  1  0  0  0
 25 27  1  0  0  0
 27 28  2  0  0  0
 28 29  1  0  0  0
 29 30  2  0  0  0
 30 31  1  0  0  0
 31 32  2  0  0  0
 18 13  1  0  0  0
  7  1  1  0  0  0
 32 27  1  0  0  0
  6  3  1  0  0  0
 11 12  1  0  0  0
  7  8  1  0  0  0
 25 26  1  0  0  0
M  END
> <minimizedAffinity>
25.93732

> <CNNscore>
0.4252564907

> <CNNaffinity>
6.0465035439

> <CNN_VS>
2.5713148117

> <CNNaffinity_variance>
0.3369988799

$$$$
[H]c1c([H])c([H])c(N([H])C(=O)[C@]2([H])C([H])([H])[C@]3([H])N([H])[C@@]([H])(N([H])C(=O)c4c([H])c([H])c(C(F)(F)F)c([H])c4[H])C([H])([H])[C@@]32[H])c([H])c1[H]


 32 35  0  0  0  0  0  0  0  0999 V2000
   23.5202    8.5162   54.3964 C   0  0  0  0  0  0  0  0  0  0  0  0
   22.8949    8.1272   55.7009 C   0  0  0  0  0  0  0  0  0  0  0  0
   21.5299    7.5655   55.3142 C   0  0  0  0  0  0  0  0  0  0  0  0
   21.3146    6.1171   55.5799 C   0  0  0  0  0  0  0  0  0  0  0  0
   21.3181    5.8359   54.1232 C   0  0  0  0  0  0  0  0  0  0  0  0
   21.6935    7.2710   53.8643 C   0  0  0  0  0  0  0  0  0  0  0  0
   23.0711    7.4685   53.4677 N   0  0  0  0  0  0  0  0  0  0  0  0
   23.0639    7.9243   52.5372 H   0  0  0  0  0  0  0  0  0  0  0  0
   22.1055    9.9490   52.8795 C   0  0  0  0  0  0  0  0  0  0  0  0
   21.5713    8.8867   52.4620 O   0  0  0  0  0  0  0  0  0  0  0  0
   23.1149    9.8025   53.8817 N   0  0  0  0  0  0  0  0  0  0  0  0
   23.5598   10.7016   54.2270 H   0  0  0  0  0  0  0  0  0  0  0  0
   20.8961   13.7450   51.2588 C   0  0  0  0  0  0  0  0  0  0  0  0
   21.1098   13.5746   52.6301 C   0  0  0  0  0  0  0  0  0  0  0  0
   21.5070   12.3656   53.1548 C   0  0  0  0  0  0  0  0  0  0  0  0
   21.7093   11.2564   52.3674 C   0  0  0  0  0  0  0  0  0  0  0  0
   21.4950   11.4158   50.9974 C   0  0  0  0  0  0  0  0  0  0  0  0
   21.1000   12.6390   50.4819 C   0  0  0  0  0  0  0  0  0  0  0  0
   20.0892   15.0603   49.4550 F   0  0  0  0  0  0  0  0  0  0  0  0
   20.4943   15.0753   50.7349 C   0  0  0  0  0  0  0  0  0  0  0  0
   21.5707   15.9362   50.8978 F   0  0  0  0  0  0  0  0  0  0  0  0
   19.4262   15.5600   51.4966 F   0  0  0  0  0  0  0  0  0  0  0  0
   22.3641    5.4219   56.3944 C   0  0  0  0  0  0  0  0  0  0  0  0
   23.4937    5.2195   55.9295 O   0  0  0  0  0  0  0  0  0  0  0  0
   22.0075    5.0207   57.6905 N   0  0  0  0  0  0  0  0  0  0  0  0
   20.9956    5.2386   58.0329 H   0  0  0  0  0  0  0  0  0  0  0  0
   22.7939    4.3503   58.6591 C   0  0  0  0  0  0  0  0  0  0  0  0
   22.9131    4.7467   59.9592 C   0  0  0  0  0  0  0  0  0  0  0  0
   23.7000    4.0458   60.9005 C   0  0  0  0  0  0  0  0  0  0  0  0
   24.3853    2.9175   60.5376 C   0  0  0  0  0  0  0  0  0  0  0  0
   24.2728    2.5064   59.2260 C   0  0  0  0  0  0  0  0  0  0  0  0
   23.5066    3.1969   58.3177 C   0  0  0  0  0  0  0  0  0  0  0  0
 19 20  1  0  0  0
 20 21  1  0  0  0
 20 22  1  0  0  0
 20 13  1  0  0  0
 13 14  2  0  0  0
 14 15  1  0  0  0
 15 16  2  0  0  0
 16 17  1  0  0  0
 17 18  2  0  0  0
 16  9  1  0  0  0
  9 10  2  0  0  0
  9 11  1  0  0  0
 11  1  1  0  0  0
  1  2  1  0  0  0
  2  3  1  0  0  0
  3  4  1  0  0  0
  4  5  1  0  0  0
  5  6  1  0  0  0
  6  7  1  0  0  0
  4 23  1  0  0  0
 23 24  2  0  0  0
 23 25  1  0  0  0
 25 27  1  0  0  0
 27 28  2  0  0  0
 28 29  1  0  0  0
 29 30  2  0  0  0
 30 31  1  0  0  0
 31 32  2  0  0  0
 18 13  1  0  0  0
  7  1  1  0  0  0
 32 27  1  0  0  0
  6  3  1  0  0  0
 11 12  1  0  0  0
  7  8  1  0  0  0
 25 26  1  0  0  0
M  END
> <minimizedAffinity>
31.37620

> <CNNscore>
0.4229932129

> <CNNaffinity>
5.6225838661

> <CNN_VS>
2.3783147335

> <CNNaffinity_variance>
0.5327827334

$$$$
[H]c1c([H])c([H])c([C@]2([H])C([H])([H])[C@@]3([H])N4C([H])([H])[C@@]([H])(C([H])([H])[C@]2([H])N([H])C(=O)c2c([H])c([H])c(C(F)(F)F)c([H])c2[H])[C@@]43[H])c([H])c1[H]


 29 33  0  0  0  0  0  0  0  0999 V2000
   20.8621    5.0965   53.6467 C   0  0  0  0  0  0  0  0  0  0  0  0
   19.9568    3.9068   53.7687 C   0  0  0  0  0  0  0  0  0  0  0  0
   18.4588    3.8749   53.8397 C   0  0  0  0  0  0  0  0  0  0  0  0
   17.4962    5.0248   53.8062 C   0  0  0  0  0  0  0  0  0  0  0  0
   17.7939    6.4906   53.6934 C   0  0  0  0  0  0  0  0  0  0  0  0
   19.1276    7.1686   53.5863 C   0  0  0  0  0  0  0  0  0  0  0  0
   20.4932    6.5481   53.5655 C   0  0  0  0  0  0  0  0  0  0  0  0
   16.3733    6.0191   53.7906 N   0  0  0  0  0  0  0  0  0  0  0  0
   16.9605    3.8990   53.9069 C   0  0  0  0  0  0  0  0  0  0  0  0
   20.7908    8.0140   53.4527 C   0  0  0  0  0  0  0  0  0  0  0  0
   21.0336    8.6285   52.1061 C   0  0  0  0  0  0  0  0  0  0  0  0
   21.3313   10.0944   51.9933 C   0  0  0  0  0  0  0  0  0  0  0  0
   21.3861   10.9456   53.2271 C   0  0  0  0  0  0  0  0  0  0  0  0
   21.1434   10.3310   54.5738 C   0  0  0  0  0  0  0  0  0  0  0  0
   20.8457    8.8652   54.6866 C   0  0  0  0  0  0  0  0  0  0  0  0
   22.8017    6.4323   54.7438 C   0  0  0  0  0  0  0  0  0  0  0  0
   22.0737    6.4123   56.0552 O   0  0  0  0  0  0  0  0  0  0  0  0
   22.1959    5.7744   53.5395 N   0  0  0  0  0  0  0  0  0  0  0  0
   23.0550    5.8883   52.3152 H   0  0  0  0  0  0  0  0  0  0  0  0
   26.8029    8.4662   54.4225 C   0  0  0  0  0  0  0  0  0  0  0  0
   25.7691    8.9909   55.3744 C   0  0  0  0  0  0  0  0  0  0  0  0
   24.4354    8.3130   55.4815 C   0  0  0  0  0  0  0  0  0  0  0  0
   24.1355    7.1103   54.6367 C   0  0  0  0  0  0  0  0  0  0  0  0
   25.1692    6.5856   53.6849 C   0  0  0  0  0  0  0  0  0  0  0  0
   26.5029    7.2636   53.5777 C   0  0  0  0  0  0  0  0  0  0  0  0
   29.4704    9.8221   54.2082 F   0  0  0  0  0  0  0  0  0  0  0  0
   28.1367    9.1442   54.3154 C   0  0  0  0  0  0  0  0  0  0  0  0
   27.9979    9.1814   52.8222 F   0  0  0  0  0  0  0  0  0  0  0  0
   28.2755    9.1071   55.8085 F   0  0  0  0  0  0  0  0  0  0  0  0
 26 27  1  0  0  0
 27 28  1  0  0  0
 27 29  1  0  0  0
 27 20  1  0  0  0
 20 21  2  0  0  0
 21 22  1  0  0  0
 22 23  2  0  0  0
 23 24  1  0  0  0
 24 25  2  0  0  0
 23 16  1  0  0  0
 16 17  2  0  0  0
 16 18  1  0  0  0
 18  1  1  0  0  0
  1  2  1  0  0  0
  2  3  1  0  0  0
  3  4  1  0  0  0
  4  5  1  0  0  0
  5  6  1  0  0  0
  6  7  1  0  0  0
  7 10  1  0  0  0
 10 11  2  0  0  0
 11 12  1  0  0  0
 12 13  2  0  0  0
 13 14  1  0  0  0
 14 15  2  0  0  0
  5  8  1  0  0  0
  8  9  1  0  0  0
 25 20  1  0  0  0
  7  1  1  0  0  0
 15 10  1  0  0  0
  9  3  1  0  0  0
  8  4  1  0  0  0
 18 19  1  0  0  0
M  END
> <minimizedAffinity>
19.19742

> <CNNscore>
0.5569180846

> <CNNaffinity>
6.3288164139

> <CNN_VS>
3.5246322155

> <CNNaffinity_variance>
0.6058672071

$$$$
[H]c1c([H])c([H])c([C@]2([H])C([H])([H])[C@@]3([H])N4C([H])([H])[C@@]([H])(C([H])([H])[C@]2([H])N([H])C(=O)c2c([H])c([H])c(C(F)(F)F)c([H])c2[H])[C@@]43[H])c([H])c1[H]


 29 33  0  0  0  0  0  0  0  0999 V2000
   20.8617    5.0952   53.6461 C   0  0  0  0  0  0  0  0  0  0  0  0
   19.9560    3.9058   53.7684 C   0  0  0  0  0  0  0  0  0  0  0  0
   18.4579    3.8743   53.8384 C   0  0  0  0  0  0  0  0  0  0  0  0
   17.4957    5.0245   53.8035 C   0  0  0  0  0  0  0  0  0  0  0  0
   17.7937    6.4901   53.6900 C   0  0  0  0  0  0  0  0  0  0  0  0
   19.1277    7.1677   53.5833 C   0  0  0  0  0  0  0  0  0  0  0  0
   20.4931    6.5469   53.5638 C   0  0  0  0  0  0  0  0  0  0  0  0
   16.3729    6.0190   53.7866 N   0  0  0  0  0  0  0  0  0  0  0  0
   16.9596    3.8988   53.9047 C   0  0  0  0  0  0  0  0  0  0  0  0
   20.7911    8.0127   53.4502 C   0  0  0  0  0  0  0  0  0  0  0  0
   20.8442    8.8649   54.6835 C   0  0  0  0  0  0  0  0  0  0  0  0
   21.1422   10.3306   54.5700 C   0  0  0  0  0  0  0  0  0  0  0  0
   21.3872   10.9440   53.2233 C   0  0  0  0  0  0  0  0  0  0  0  0
   21.3341   10.0918   51.9901 C   0  0  0  0  0  0  0  0  0  0  0  0
   21.0360    8.6261   52.1035 C   0  0  0  0  0  0  0  0  0  0  0  0
   22.8001    6.4327   54.7433 C   0  0  0  0  0  0  0  0  0  0  0  0
   22.0706    6.4149   56.0539 O   0  0  0  0  0  0  0  0  0  0  0  0
   22.1957    5.7729   53.5394 N   0  0  0  0  0  0  0  0  0  0  0  0
   23.0562    5.8847   52.3159 H   0  0  0  0  0  0  0  0  0  0  0  0
   26.8020    8.4654   54.4232 C   0  0  0  0  0  0  0  0  0  0  0  0
   26.5037    7.2599   53.5819 C   0  0  0  0  0  0  0  0  0  0  0  0
   25.1698    6.5823   53.6886 C   0  0  0  0  0  0  0  0  0  0  0  0
   24.1341    7.1103   54.6366 C   0  0  0  0  0  0  0  0  0  0  0  0
   24.4324    8.3158   55.4779 C   0  0  0  0  0  0  0  0  0  0  0  0
   25.7664    8.9934   55.3712 C   0  0  0  0  0  0  0  0  0  0  0  0
   29.4699    9.8206   54.2097 F   0  0  0  0  0  0  0  0  0  0  0  0
   28.1360    9.1431   54.3165 C   0  0  0  0  0  0  0  0  0  0  0  0
   27.9990    9.1776   52.8231 F   0  0  0  0  0  0  0  0  0  0  0  0
   28.2730    9.1085   55.8098 F   0  0  0  0  0  0  0  0  0  0  0  0
 26 27  1  0  0  0
 27 28  1  0  0  0
 27 29  1  0  0  0
 27 20  1  0  0  0
 20 21  2  0  0  0
 21 22  1  0  0  0
 22 23  2  0  0  0
 23 24  1  0  0  0
 24 25  2  0  0  0
 23 16  1  0  0  0
 16 17  2  0  0  0
 16 18  1  0  0  0
 18  1  1  0  0  0
  1  2  1  0  0  0
  2  3  1  0  0  0
  3  4  1  0  0  0
  4  5  1  0  0  0
  5  6  1  0  0  0
  6  7  1  0  0  0
  7 10  1  0  0  0
 10 11  2  0  0  0
 11 12  1  0  0  0
 12 13  2  0  0  0
 13 14  1  0  0  0
 14 15  2  0  0  0
  5  8  1  0  0  0
  8  9  1  0  0  0
 25 20  1  0  0  0
  7  1  1  0  0  0
 15 10  1  0  0  0
  9  3  1  0  0  0
  8  4  1  0  0  0
 18 19  1  0  0  0
M  END
> <minimizedAffinity>
19.17764

> <CNNscore>
0.5568342805

> <CNNaffinity>
6.3295545578

> <CNN_VS>
3.5245130062

> <CNNaffinity_variance>
0.6051840782

$$$$
[H]c1c([H])c([H])c([C@]2([H])C([H])([H])[C@@]3([H])N4C([H])([H])[C@@]([H])(C([H])([H])[C@]2([H])N([H])C(=O)c2c([H])c([H])c(C(F)(F)F)c([H])c2[H])[C@@]43[H])c([H])c1[H]


 29 33  0  0  0  0  0  0  0  0999 V2000
   20.8641    5.0978   53.6457 C   0  0  0  0  0  0  0  0  0  0  0  0
   19.9586    3.9084   53.7695 C   0  0  0  0  0  0  0  0  0  0  0  0
   18.4605    3.8768   53.8395 C   0  0  0  0  0  0  0  0  0  0  0  0
   17.4981    5.0267   53.8029 C   0  0  0  0  0  0  0  0  0  0  0  0
   17.7959    6.4923   53.6874 C   0  0  0  0  0  0  0  0  0  0  0  0
   19.1298    7.1699   53.5799 C   0  0  0  0  0  0  0  0  0  0  0  0
   20.4953    6.5493   53.5613 C   0  0  0  0  0  0  0  0  0  0  0  0
   16.3752    6.0210   53.7845 N   0  0  0  0  0  0  0  0  0  0  0  0
   16.9622    3.9011   53.9056 C   0  0  0  0  0  0  0  0  0  0  0  0
   20.7931    8.0149   53.4458 C   0  0  0  0  0  0  0  0  0  0  0  0
   21.0351    8.6271   52.0979 C   0  0  0  0  0  0  0  0  0  0  0  0
   21.3329   10.0926   51.9823 C   0  0  0  0  0  0  0  0  0  0  0  0
   21.3887   10.9460   53.2146 C   0  0  0  0  0  0  0  0  0  0  0  0
   21.1467   10.3339   54.5625 C   0  0  0  0  0  0  0  0  0  0  0  0
   20.8489    8.8683   54.6780 C   0  0  0  0  0  0  0  0  0  0  0  0
   22.8026    6.4363   54.7414 C   0  0  0  0  0  0  0  0  0  0  0  0
   22.0734    6.4194   56.0521 O   0  0  0  0  0  0  0  0  0  0  0  0
   22.1980    5.7755   53.5381 N   0  0  0  0  0  0  0  0  0  0  0  0
   23.0582    5.8864   52.3143 H   0  0  0  0  0  0  0  0  0  0  0  0
   26.8042    8.4692   54.4187 C   0  0  0  0  0  0  0  0  0  0  0  0
   26.5047    7.2650   53.5761 C   0  0  0  0  0  0  0  0  0  0  0  0
   25.1708    6.5873   53.6836 C   0  0  0  0  0  0  0  0  0  0  0  0
   24.1366    7.1140   54.6339 C   0  0  0  0  0  0  0  0  0  0  0  0
   24.4361    8.3182   55.4765 C   0  0  0  0  0  0  0  0  0  0  0  0
   25.7700    8.9958   55.3690 C   0  0  0  0  0  0  0  0  0  0  0  0
   29.4720    9.8245   54.2038 F   0  0  0  0  0  0  0  0  0  0  0  0
   28.1382    9.1469   54.3112 C   0  0  0  0  0  0  0  0  0  0  0  0
   28.2742    9.1161   55.8048 F   0  0  0  0  0  0  0  0  0  0  0  0
   28.0021    9.1777   52.8177 F   0  0  0  0  0  0  0  0  0  0  0  0
 26 27  1  0  0  0
 27 28  1  0  0  0
 27 29  1  0  0  0
 27 20  1  0  0  0
 20 21  2  0  0  0
 21 22  1  0  0  0
 22 23  2  0  0  0
 23 24  1  0  0  0
 24 25  2  0  0  0
 23 16  1  0  0  0
 16 17  2  0  0  0
 16 18  1  0  0  0
 18  1  1  0  0  0
  1  2  1  0  0  0
  2  3  1  0  0  0
  3  4  1  0  0  0
  4  5  1  0  0  0
  5  6  1  0  0  0
  6  7  1  0  0  0
  7 10  1  0  0  0
 10 11  2  0  0  0
 11 12  1  0  0  0
 12 13  2  0  0  0
 13 14  1  0  0  0
 14 15  2  0  0  0
  5  8  1  0  0  0
  8  9  1  0  0  0
 25 20  1  0  0  0
  7  1  1  0  0  0
 15 10  1  0  0  0
  9  3  1  0  0  0
  8  4  1  0  0  0
 18 19  1  0  0  0
M  END
> <minimizedAffinity>
19.14707

> <CNNscore>
0.5564906597

> <CNNaffinity>
6.3293542862

> <CNN_VS>
3.5222265720

> <CNNaffinity_variance>
0.6048716307

$$$$
[H]c1c([H])c([H])c([C@]2([H])C([H])([H])[C@@]3([H])N4C([H])([H])[C@@]([H])(C([H])([H])[C@]2([H])N([H])C(=O)c2c([H])c([H])c(C(F)(F)F)c([H])c2[H])[C@@]43[H])c([H])c1[H]


 29 33  0  0  0  0  0  0  0  0999 V2000
   19.5818    5.2946   53.1069 C   0  0  0  0  0  0  0  0  0  0  0  0
   18.7003    4.0912   52.9494 C   0  0  0  0  0  0  0  0  0  0  0  0
   19.0780    2.6408   53.0116 C   0  0  0  0  0  0  0  0  0  0  0  0
   20.4303    2.0357   53.2464 C   0  0  0  0  0  0  0  0  0  0  0  0
   21.7389    2.7315   53.4772 C   0  0  0  0  0  0  0  0  0  0  0  0
   22.0185    4.2042   53.5301 C   0  0  0  0  0  0  0  0  0  0  0  0
   21.0585    5.3450   53.3653 C   0  0  0  0  0  0  0  0  0  0  0  0
   21.6787    1.2328   53.4626 N   0  0  0  0  0  0  0  0  0  0  0  0
   19.5087    1.2058   53.0830 C   0  0  0  0  0  0  0  0  0  0  0  0
   22.3672    6.0408   53.5961 C   0  0  0  0  0  0  0  0  0  0  0  0
   22.5064    7.0225   54.7216 C   0  0  0  0  0  0  0  0  0  0  0  0
   23.8150    7.7182   54.9525 C   0  0  0  0  0  0  0  0  0  0  0  0
   24.9845    7.4323   54.0577 C   0  0  0  0  0  0  0  0  0  0  0  0
   24.8453    6.4506   52.9322 C   0  0  0  0  0  0  0  0  0  0  0  0
   23.5367    5.7548   52.7014 C   0  0  0  0  0  0  0  0  0  0  0  0
   20.5282    7.4463   52.0002 C   0  0  0  0  0  0  0  0  0  0  0  0
   20.9154    6.6525   50.7879 O   0  0  0  0  0  0  0  0  0  0  0  0
   19.8614    6.7675   53.1598 N   0  0  0  0  0  0  0  0  0  0  0  0
   19.5437    7.7068   54.2853 H   0  0  0  0  0  0  0  0  0  0  0  0
   21.3671   11.8645   52.1590 C   0  0  0  0  0  0  0  0  0  0  0  0
   21.4539   11.0393   53.4086 C   0  0  0  0  0  0  0  0  0  0  0  0
   21.1743    9.5666   53.3557 C   0  0  0  0  0  0  0  0  0  0  0  0
   20.8079    8.9191   52.0532 C   0  0  0  0  0  0  0  0  0  0  0  0
   20.7211    9.7444   50.8036 C   0  0  0  0  0  0  0  0  0  0  0  0
   21.0007   11.2171   50.8565 C   0  0  0  0  0  0  0  0  0  0  0  0
   21.9263   14.8101   52.2649 F   0  0  0  0  0  0  0  0  0  0  0  0
   21.6468   13.3373   52.2120 C   0  0  0  0  0  0  0  0  0  0  0  0
   20.5470   13.5100   53.2173 F   0  0  0  0  0  0  0  0  0  0  0  0
   22.7465   13.1646   51.2067 F   0  0  0  0  0  0  0  0  0  0  0  0
 26 27  1  0  0  0
 27 28  1  0  0  0
 27 29  1  0  0  0
 27 20  1  0  0  0
 20 21  2  0  0  0
 21 22  1  0  0  0
 22 23  2  0  0  0
 23 24  1  0  0  0
 24 25  2  0  0  0
 23 16  1  0  0  0
 16 17  2  0  0  0
 16 18  1  0  0  0
 18  1  1  0  0  0
  1  2  1  0  0  0
  2  3  1  0  0  0
  3  4  1  0  0  0
  4  5  1  0  0  0
  5  6  1  0  0  0
  6  7  1  0  0  0
  7 10  1  0  0  0
 10 11  2  0  0  0
 11 12  1  0  0  0
 12 13  2  0  0  0
 13 14  1  0  0  0
 14 15  2  0  0  0
  5  8  1  0  0  0
  8  9  1  0  0  0
 25 20  1  0  0  0
  7  1  1  0  0  0
 15 10  1  0  0  0
  9  3  1  0  0  0
  8  4  1  0  0  0
 18 19  1  0  0  0
M  END
> <minimizedAffinity>
51.82064

> <CNNscore>
0.4540453255

> <CNNaffinity>
5.9521112442

> <CNN_VS>
2.7025282383

> <CNNaffinity_variance>
0.3301136494

$$$$
[H]c1c([H])c([H])c([C@]2([H])C([H])([H])[C@@]3([H])N4C([H])([H])[C@@]([H])(C([H])([H])[C@]2([H])N([H])C(=O)c2c([H])c([H])c(C(F)(F)F)c([H])c2[H])[C@@]43[H])c([H])c1[H]


 29 33  0  0  0  0  0  0  0  0999 V2000
   25.1117    6.6618   53.5359 C   0  0  0  0  0  0  0  0  0  0  0  0
   26.5685    6.3086   53.4802 C   0  0  0  0  0  0  0  0  0  0  0  0
   27.7444    7.1134   53.9490 C   0  0  0  0  0  0  0  0  0  0  0  0
   27.7540    8.4698   54.5892 C   0  0  0  0  0  0  0  0  0  0  0  0
   26.5900    9.3567   54.9187 C   0  0  0  0  0  0  0  0  0  0  0  0
   25.1290    9.1061   54.6895 C   0  0  0  0  0  0  0  0  0  0  0  0
   24.4711    7.9068   54.0741 C   0  0  0  0  0  0  0  0  0  0  0  0
   27.9865    9.8033   55.2355 N   0  0  0  0  0  0  0  0  0  0  0  0
   28.8849    7.9583   54.4341 C   0  0  0  0  0  0  0  0  0  0  0  0
   23.3071    8.7937   54.4036 C   0  0  0  0  0  0  0  0  0  0  0  0
   22.4313    9.3206   53.3058 C   0  0  0  0  0  0  0  0  0  0  0  0
   21.2673   10.2075   53.6353 C   0  0  0  0  0  0  0  0  0  0  0  0
   20.9792   10.5674   55.0626 C   0  0  0  0  0  0  0  0  0  0  0  0
   21.8550   10.0405   56.1605 C   0  0  0  0  0  0  0  0  0  0  0  0
   23.0189    9.1536   55.8310 C   0  0  0  0  0  0  0  0  0  0  0  0
   22.8138    5.8062   54.3946 C   0  0  0  0  0  0  0  0  0  0  0  0
   23.4379    5.4517   55.7117 O   0  0  0  0  0  0  0  0  0  0  0  0
   23.6506    6.4112   53.3067 N   0  0  0  0  0  0  0  0  0  0  0  0
   22.8694    6.7028   52.0598 H   0  0  0  0  0  0  0  0  0  0  0  0
   18.4307    5.0544   53.7069 C   0  0  0  0  0  0  0  0  0  0  0  0
   19.3547    3.9051   53.9812 C   0  0  0  0  0  0  0  0  0  0  0  0
   20.8157    4.1557   54.2105 C   0  0  0  0  0  0  0  0  0  0  0  0
   21.3527    5.5556   54.1654 C   0  0  0  0  0  0  0  0  0  0  0  0
   20.4286    6.7049   53.8910 C   0  0  0  0  0  0  0  0  0  0  0  0
   18.9676    6.4543   53.6618 C   0  0  0  0  0  0  0  0  0  0  0  0
   15.5086    4.5532   53.2484 F   0  0  0  0  0  0  0  0  0  0  0  0
   16.9696    4.8038   53.4776 C   0  0  0  0  0  0  0  0  0  0  0  0
   17.2469    3.3391   53.3110 F   0  0  0  0  0  0  0  0  0  0  0  0
   16.6922    6.2685   53.6443 F   0  0  0  0  0  0  0  0  0  0  0  0
 26 27  1  0  0  0
 27 28  1  0  0  0
 27 29  1  0  0  0
 27 20  1  0  0  0
 20 21  2  0  0  0
 21 22  1  0  0  0
 22 23  2  0  0  0
 23 24  1  0  0  0
 24 25  2  0  0  0
 23 16  1  0  0  0
 16 17  2  0  0  0
 16 18  1  0  0  0
 18  1  1  0  0  0
  1  2  1  0  0  0
  2  3  1  0  0  0
  3  4  1  0  0  0
  4  5  1  0  0  0
  5  6  1  0  0  0
  6  7  1  0  0  0
  7 10  1  0  0  0
 10 11  2  0  0  0
 11 12  1  0  0  0
 12 13  2  0  0  0
 13 14  1  0  0  0
 14 15  2  0  0  0
  5  8  1  0  0  0
  8  9  1  0  0  0
 25 20  1  0  0  0
  7  1  1  0  0  0
 15 10  1  0  0  0
  9  3  1  0  0  0
  8  4  1  0  0  0
 18 19  1  0  0  0
M  END
> <minimizedAffinity>
30.74603

> <CNNscore>
0.4272692204

> <CNNaffinity>
5.8131260872

> <CNN_VS>
2.4837698936

> <CNNaffinity_variance>
0.4493302405

$$$$
[H]c1c([H])c([H])c([C@]2([H])C([H])([H])[C@@]3([H])N4C([H])([H])[C@@]([H])(C([H])([H])[C@]2([H])N([H])C(=O)c2c([H])c([H])c(C(F)(F)F)c([H])c2[H])[C@@]43[H])c([H])c1[H]


 29 33  0  0  0  0  0  0  0  0999 V2000
   25.0540    6.6347   53.5027 C   0  0  0  0  0  0  0  0  0  0  0  0
   26.5099    6.2780   53.4468 C   0  0  0  0  0  0  0  0  0  0  0  0
   27.6885    7.0840   53.9066 C   0  0  0  0  0  0  0  0  0  0  0  0
   27.7023    8.4456   54.5358 C   0  0  0  0  0  0  0  0  0  0  0  0
   26.5409    9.3375   54.8607 C   0  0  0  0  0  0  0  0  0  0  0  0
   25.0788    9.0882   54.6366 C   0  0  0  0  0  0  0  0  0  0  0  0
   24.4171    7.8853   54.0322 C   0  0  0  0  0  0  0  0  0  0  0  0
   27.9390    9.7837   55.1708 N   0  0  0  0  0  0  0  0  0  0  0  0
   28.8318    7.9304   54.3824 C   0  0  0  0  0  0  0  0  0  0  0  0
   23.2557    8.7772   54.3572 C   0  0  0  0  0  0  0  0  0  0  0  0
   22.4009    9.3272   53.2541 C   0  0  0  0  0  0  0  0  0  0  0  0
   21.2395   10.2192   53.5789 C   0  0  0  0  0  0  0  0  0  0  0  0
   20.9329   10.5611   55.0069 C   0  0  0  0  0  0  0  0  0  0  0  0
   21.7877   10.0111   56.1099 C   0  0  0  0  0  0  0  0  0  0  0  0
   22.9491    9.1192   55.7851 C   0  0  0  0  0  0  0  0  0  0  0  0
   22.7520    5.8092   54.3798 C   0  0  0  0  0  0  0  0  0  0  0  0
   23.3741    5.4824   55.7050 O   0  0  0  0  0  0  0  0  0  0  0  0
   23.5919    6.3853   53.2786 N   0  0  0  0  0  0  0  0  0  0  0  0
   22.8125    6.6516   52.0250 H   0  0  0  0  0  0  0  0  0  0  0  0
   18.3658    5.0613   53.7076 C   0  0  0  0  0  0  0  0  0  0  0  0
   18.9001    6.4627   53.6831 C   0  0  0  0  0  0  0  0  0  0  0  0
   20.3621    6.7120   53.9071 C   0  0  0  0  0  0  0  0  0  0  0  0
   21.2899    5.5599   54.1557 C   0  0  0  0  0  0  0  0  0  0  0  0
   20.7556    4.1585   54.1802 C   0  0  0  0  0  0  0  0  0  0  0  0
   19.2936    3.9091   53.9561 C   0  0  0  0  0  0  0  0  0  0  0  0
   15.4417    4.5627   53.2594 F   0  0  0  0  0  0  0  0  0  0  0  0
   16.9037    4.8120   53.4835 C   0  0  0  0  0  0  0  0  0  0  0  0
   16.6271    6.2758   53.6591 F   0  0  0  0  0  0  0  0  0  0  0  0
   17.1803    3.3482   53.3078 F   0  0  0  0  0  0  0  0  0  0  0  0
 26 27  1  0  0  0
 27 28  1  0  0  0
 27 29  1  0  0  0
 27 20  1  0  0  0
 20 21  2  0  0  0
 21 22  1  0  0  0
 22 23  2  0  0  0
 23 24  1  0  0  0
 24 25  2  0  0  0
 23 16  1  0  0  0
 16 17  2  0  0  0
 16 18  1  0  0  0
 18  1  1  0  0  0
  1  2  1  0  0  0
  2  3  1  0  0  0
  3  4  1  0  0  0
  4  5  1  0  0  0
  5  6  1  0  0  0
  6  7  1  0  0  0
  7 10  1  0  0  0
 10 11  2  0  0  0
 11 12  1  0  0  0
 12 13  2  0  0  0
 13 14  1  0  0  0
 14 15  2  0  0  0
  5  8  1  0  0  0
  8  9  1  0  0  0
 25 20  1  0  0  0
  7  1  1  0  0  0
 15 10  1  0  0  0
  9  3  1  0  0  0
  8  4  1  0  0  0
 18 19  1  0  0  0
M  END
> <minimizedAffinity>
30.80601

> <CNNscore>
0.4266607165

> <CNNaffinity>
5.8173441887

> <CNN_VS>
2.4820322990

> <CNNaffinity_variance>
0.4502682686

$$$$
[H]c1c([H])c([H])c([C@]2([H])C([H])([H])[C@@]3([H])N4C([H])([H])[C@@]([H])(C([H])([H])[C@]2([H])N([H])C(=O)c2c([H])c([H])c(C(F)(F)F)c([H])c2[H])[C@@]43[H])c([H])c1[H]


 29 33  0  0  0  0  0  0  0  0999 V2000
   24.6053    6.5276   54.6497 C   0  0  0  0  0  0  0  0  0  0  0  0
   24.6853    5.4363   55.6756 C   0  0  0  0  0  0  0  0  0  0  0  0
   23.6371    4.9924   56.6525 C   0  0  0  0  0  0  0  0  0  0  0  0
   22.2501    5.5302   56.8447 C   0  0  0  0  0  0  0  0  0  0  0  0
   21.5687    6.6447   56.1075 C   0  0  0  0  0  0  0  0  0  0  0  0
   22.1059    7.4967   54.9960 C   0  0  0  0  0  0  0  0  0  0  0  0
   23.4574    7.4446   54.3472 C   0  0  0  0  0  0  0  0  0  0  0  0
   20.8436    5.9134   57.1982 N   0  0  0  0  0  0  0  0  0  0  0  0
   22.5547    4.5878   57.6088 C   0  0  0  0  0  0  0  0  0  0  0  0
   22.7759    8.5591   53.6100 C   0  0  0  0  0  0  0  0  0  0  0  0
   22.6171    9.9015   54.2602 C   0  0  0  0  0  0  0  0  0  0  0  0
   21.9357   11.0160   53.5230 C   0  0  0  0  0  0  0  0  0  0  0  0
   21.4130   10.7881   52.1357 C   0  0  0  0  0  0  0  0  0  0  0  0
   21.5717    9.4457   51.4855 C   0  0  0  0  0  0  0  0  0  0  0  0
   22.2532    8.3312   52.2226 C   0  0  0  0  0  0  0  0  0  0  0  0
   26.5875    7.7826   53.5333 C   0  0  0  0  0  0  0  0  0  0  0  0
   27.4950    7.3335   54.6400 O   0  0  0  0  0  0  0  0  0  0  0  0
   25.1426    7.3797   53.5382 N   0  0  0  0  0  0  0  0  0  0  0  0
   24.3812    7.9137   52.3612 H   0  0  0  0  0  0  0  0  0  0  0  0
   28.1992   10.3386   50.1989 C   0  0  0  0  0  0  0  0  0  0  0  0
   28.5763   10.6347   51.6202 C   0  0  0  0  0  0  0  0  0  0  0  0
   28.0390    9.7827   52.7317 C   0  0  0  0  0  0  0  0  0  0  0  0
   27.1247    8.6346   52.4218 C   0  0  0  0  0  0  0  0  0  0  0  0
   26.7477    8.3386   51.0005 C   0  0  0  0  0  0  0  0  0  0  0  0
   27.2849    9.1905   49.8890 C   0  0  0  0  0  0  0  0  0  0  0  0
   29.2738   12.0427   47.9759 F   0  0  0  0  0  0  0  0  0  0  0  0
   28.7365   11.1906   49.0874 C   0  0  0  0  0  0  0  0  0  0  0  0
   29.4578   12.0429   50.0892 F   0  0  0  0  0  0  0  0  0  0  0  0
   28.0153   10.3385   48.0856 F   0  0  0  0  0  0  0  0  0  0  0  0
 26 27  1  0  0  0
 27 28  1  0  0  0
 27 29  1  0  0  0
 27 20  1  0  0  0
 20 21  2  0  0  0
 21 22  1  0  0  0
 22 23  2  0  0  0
 23 24  1  0  0  0
 24 25  2  0  0  0
 23 16  1  0  0  0
 16 17  2  0  0  0
 16 18  1  0  0  0
 18  1  1  0  0  0
  1  2  1  0  0  0
  2  3  1  0  0  0
  3  4  1  0  0  0
  4  5  1  0  0  0
  5  6  1  0  0  0
  6  7  1  0  0  0
  7 10  1  0  0  0
 10 11  2  0  0  0
 11 12  1  0  0  0
 12 13  2  0  0  0
 13 14  1  0  0  0
 14 15  2  0  0  0
  5  8  1  0  0  0
  8  9  1  0  0  0
 25 20  1  0  0  0
  7  1  1  0  0  0
 15 10  1  0  0  0
  9  3  1  0  0  0
  8  4  1  0  0  0
 18 19  1  0  0  0
M  END
> <minimizedAffinity>
48.88591

> <CNNscore>
0.3958171308

> <CNNaffinity>
5.5009832382

> <CNN_VS>
2.1773834229

> <CNNaffinity_variance>
0.5044000745

$$$$
[H]c1c([H])c([H])c([C@]2([H])C([H])([H])[C@@]3([H])N4C([H])([H])[C@@]([H])(C([H])([H])[C@]2([H])N([H])C(=O)c2c([H])c([H])c(C(F)(F)F)c([H])c2[H])[C@@]43[H])c([H])c1[H]


 29 33  0  0  0  0  0  0  0  0999 V2000
   22.5194    5.1623   53.2003 C   0  0  0  0  0  0  0  0  0  0  0  0
   22.0270    3.7570   53.0193 C   0  0  0  0  0  0  0  0  0  0  0  0
   22.8226    2.4863   52.9710 C   0  0  0  0  0  0  0  0  0  0  0  0
   24.3069    2.3070   53.0916 C   0  0  0  0  0  0  0  0  0  0  0  0
   25.3623    3.3541   53.2904 C   0  0  0  0  0  0  0  0  0  0  0  0
   25.1941    4.8392   53.4176 C   0  0  0  0  0  0  0  0  0  0  0  0
   23.9288    5.6439   53.3775 C   0  0  0  0  0  0  0  0  0  0  0  0
   25.7499    1.9087   53.1873 N   0  0  0  0  0  0  0  0  0  0  0  0
   23.6648    1.2457   52.9298 C   0  0  0  0  0  0  0  0  0  0  0  0
   24.9843    6.6911   53.5763 C   0  0  0  0  0  0  0  0  0  0  0  0
   25.4156    7.5494   52.4243 C   0  0  0  0  0  0  0  0  0  0  0  0
   26.4710    8.5965   52.6230 C   0  0  0  0  0  0  0  0  0  0  0  0
   27.0952    8.7853   53.9738 C   0  0  0  0  0  0  0  0  0  0  0  0
   26.6639    7.9270   55.1259 C   0  0  0  0  0  0  0  0  0  0  0  0
   25.6085    6.8798   54.9271 C   0  0  0  0  0  0  0  0  0  0  0  0
   21.4673    7.3871   52.3674 C   0  0  0  0  0  0  0  0  0  0  0  0
   20.7518    6.6416   51.2801 O   0  0  0  0  0  0  0  0  0  0  0  0
   22.3511    6.6474   53.3276 N   0  0  0  0  0  0  0  0  0  0  0  0
   22.9873    7.5438   54.3482 H   0  0  0  0  0  0  0  0  0  0  0  0
   20.9627   11.8423   52.7493 C   0  0  0  0  0  0  0  0  0  0  0  0
   21.0003   10.9837   53.9786 C   0  0  0  0  0  0  0  0  0  0  0  0
   21.1685    9.4986   53.8514 C   0  0  0  0  0  0  0  0  0  0  0  0
   21.2991    8.8722   52.4947 C   0  0  0  0  0  0  0  0  0  0  0  0
   21.2615    9.7308   51.2653 C   0  0  0  0  0  0  0  0  0  0  0  0
   21.0933   11.2159   51.3926 C   0  0  0  0  0  0  0  0  0  0  0  0
   20.6263   14.8125   53.0037 F   0  0  0  0  0  0  0  0  0  0  0  0
   20.7945   13.3275   52.8765 C   0  0  0  0  0  0  0  0  0  0  0  0
   21.5834   13.5248   51.6161 F   0  0  0  0  0  0  0  0  0  0  0  0
   20.0056   13.1301   54.1369 F   0  0  0  0  0  0  0  0  0  0  0  0
 26 27  1  0  0  0
 27 28  1  0  0  0
 27 29  1  0  0  0
 27 20  1  0  0  0
 20 21  2  0  0  0
 21 22  1  0  0  0
 22 23  2  0  0  0
 23 24  1  0  0  0
 24 25  2  0  0  0
 23 16  1  0  0  0
 16 17  2  0  0  0
 16 18  1  0  0  0
 18  1  1  0  0  0
  1  2  1  0  0  0
  2  3  1  0  0  0
  3  4  1  0  0  0
  4  5  1  0  0  0
  5  6  1  0  0  0
  6  7  1  0  0  0
  7 10  1  0  0  0
 10 11  2  0  0  0
 11 12  1  0  0  0
 12 13  2  0  0  0
 13 14  1  0  0  0
 14 15  2  0  0  0
  5  8  1  0  0  0
  8  9  1  0  0  0
 25 20  1  0  0  0
  7  1  1  0  0  0
 15 10  1  0  0  0
  9  3  1  0  0  0
  8  4  1  0  0  0
 18 19  1  0  0  0
M  END
> <minimizedAffinity>
63.83636

> <CNNscore>
0.3808592558

> <CNNaffinity>
5.6219573021

> <CNN_VS>
2.1411745548

> <CNNaffinity_variance>
0.6652526855

$$$$
[H]c1c([H])c([H])c([C@]2([H])C([H])([H])[C@@]3([H])N4C([H])([H])[C@@]([H])(C([H])([H])[C@]2([H])N([H])C(=O)c2c([H])c([H])c(C(F)(F)F)c([H])c2[H])[C@@]43[H])c([H])c1[H]


 29 33  0  0  0  0  0  0  0  0999 V2000
   19.0601    6.2844   53.0641 C   0  0  0  0  0  0  0  0  0  0  0  0
   17.9154    5.3591   53.3526 C   0  0  0  0  0  0  0  0  0  0  0  0
   17.9286    4.0611   54.1044 C   0  0  0  0  0  0  0  0  0  0  0  0
   19.0899    3.3679   54.7531 C   0  0  0  0  0  0  0  0  0  0  0  0
   20.5247    3.8014   54.8104 C   0  0  0  0  0  0  0  0  0  0  0  0
   21.1527    5.0352   54.2331 C   0  0  0  0  0  0  0  0  0  0  0  0
   20.5008    6.1403   53.4559 C   0  0  0  0  0  0  0  0  0  0  0  0
   20.1027    2.5173   55.4608 N   0  0  0  0  0  0  0  0  0  0  0  0
   17.9970    2.7696   54.8641 C   0  0  0  0  0  0  0  0  0  0  0  0
   21.9357    6.5738   53.5132 C   0  0  0  0  0  0  0  0  0  0  0  0
   22.5206    7.3812   52.3924 C   0  0  0  0  0  0  0  0  0  0  0  0
   23.9554    7.8147   52.4497 C   0  0  0  0  0  0  0  0  0  0  0  0
   24.8054    7.4409   53.6277 C   0  0  0  0  0  0  0  0  0  0  0  0
   24.2205    6.6335   54.7484 C   0  0  0  0  0  0  0  0  0  0  0  0
   22.7857    6.1999   54.6911 C   0  0  0  0  0  0  0  0  0  0  0  0
   20.1588    8.6154   53.3950 C   0  0  0  0  0  0  0  0  0  0  0  0
   20.0015    8.4787   54.8804 O   0  0  0  0  0  0  0  0  0  0  0  0
   19.6881    7.5183   52.4867 N   0  0  0  0  0  0  0  0  0  0  0  0
   19.9216    7.8180   51.0356 H   0  0  0  0  0  0  0  0  0  0  0  0
   22.0427   12.3169   51.6630 C   0  0  0  0  0  0  0  0  0  0  0  0
   21.3475   11.3382   50.7637 C   0  0  0  0  0  0  0  0  0  0  0  0
   20.7195   10.1043   51.3410 C   0  0  0  0  0  0  0  0  0  0  0  0
   20.7868    9.8493   52.8176 C   0  0  0  0  0  0  0  0  0  0  0  0
   21.4820   10.8281   53.7169 C   0  0  0  0  0  0  0  0  0  0  0  0
   22.1099   12.0619   53.1396 C   0  0  0  0  0  0  0  0  0  0  0  0
   23.2985   14.7846   50.5084 F   0  0  0  0  0  0  0  0  0  0  0  0
   22.6707   13.5508   51.0856 C   0  0  0  0  0  0  0  0  0  0  0  0
   21.3218   14.2029   51.0121 F   0  0  0  0  0  0  0  0  0  0  0  0
   24.0194   12.8987   51.1592 F   0  0  0  0  0  0  0  0  0  0  0  0
 26 27  1  0  0  0
 27 28  1  0  0  0
 27 29  1  0  0  0
 27 20  1  0  0  0
 20 21  2  0  0  0
 21 22  1  0  0  0
 22 23  2  0  0  0
 23 24  1  0  0  0
 24 25  2  0  0  0
 23 16  1  0  0  0
 16 17  2  0  0  0
 16 18  1  0  0  0
 18  1  1  0  0  0
  1  2  1  0  0  0
  2  3  1  0  0  0
  3  4  1  0  0  0
  4  5  1  0  0  0
  5  6  1  0  0  0
  6  7  1  0  0  0
  7 10  1  0  0  0
 10 11  2  0  0  0
 11 12  1  0  0  0
 12 13  2  0  0  0
 13 14  1  0  0  0
 14 15  2  0  0  0
  5  8  1  0  0  0
  8  9  1  0  0  0
 25 20  1  0  0  0
  7  1  1  0  0  0
 15 10  1  0  0  0
  9  3  1  0  0  0
  8  4  1  0  0  0
 18 19  1  0  0  0
M  END
> <minimizedAffinity>
50.11460

> <CNNscore>
0.3756286204

> <CNNaffinity>
5.5383133888

> <CNN_VS>
2.0803489685

> <CNNaffinity_variance>
0.3576230407

$$$$
[H]c1c([H])c([H])c(C([H])([H])N([H])C(=O)[C@]2([H])C([H])([H])[C@@]3([H])N([H])[C@@]([H])(N([H])C(=O)c4c([H])c([H])c(C(F)(F)F)c([H])c4[H])C([H])([H])[C@]23[H])c([H])c1[H]


 33 36  0  0  0  0  0  0  0  0999 V2000
   26.9751    8.0507   53.4355 C   0  0  0  0  0  0  0  0  0  0  0  0
   27.9292    8.7278   54.4149 C   0  0  0  0  0  0  0  0  0  0  0  0
   26.9818    9.5714   55.1135 C   0  0  0  0  0  0  0  0  0  0  0  0
   26.7763    9.8600   56.5092 C   0  0  0  0  0  0  0  0  0  0  0  0
   25.3864    9.2849   56.3357 C   0  0  0  0  0  0  0  0  0  0  0  0
   25.9317    8.4296   55.3308 C   0  0  0  0  0  0  0  0  0  0  0  0
   25.6106    8.3251   53.9462 N   0  0  0  0  0  0  0  0  0  0  0  0
   25.1788    9.1464   53.5331 H   0  0  0  0  0  0  0  0  0  0  0  0
   28.1050    9.5713   51.7962 C   0  0  0  0  0  0  0  0  0  0  0  0
   28.8916    9.9661   52.7351 O   0  0  0  0  0  0  0  0  0  0  0  0
   27.1089    8.6077   52.1062 N   0  0  0  0  0  0  0  0  0  0  0  0
   26.4691    8.3080   51.3466 H   0  0  0  0  0  0  0  0  0  0  0  0
   28.7089   11.4605   48.0672 C   0  0  0  0  0  0  0  0  0  0  0  0
   28.7594   10.0992   48.1350 C   0  0  0  0  0  0  0  0  0  0  0  0
   28.5719    9.4622   49.3686 C   0  0  0  0  0  0  0  0  0  0  0  0
   28.3436   10.1726   50.5133 C   0  0  0  0  0  0  0  0  0  0  0  0
   28.2990   11.5437   50.4236 C   0  0  0  0  0  0  0  0  0  0  0  0
   28.4796   12.1727   49.2134 C   0  0  0  0  0  0  0  0  0  0  0  0
   29.0833   11.2640   45.7636 F   0  0  0  0  0  0  0  0  0  0  0  0
   28.8840   12.2162   46.7699 C   0  0  0  0  0  0  0  0  0  0  0  0
   27.8820   13.0810   46.5023 F   0  0  0  0  0  0  0  0  0  0  0  0
   30.0730   12.9572   46.8937 F   0  0  0  0  0  0  0  0  0  0  0  0
   27.6490    9.3951   57.5443 C   0  0  0  0  0  0  0  0  0  0  0  0
   28.4870    8.4537   57.1876 O   0  0  0  0  0  0  0  0  0  0  0  0
   27.7863    9.7390   58.8963 N   0  0  0  0  0  0  0  0  0  0  0  0
   27.1835   10.4886   59.2909 H   0  0  0  0  0  0  0  0  0  0  0  0
   28.7039    9.1344   59.7928 C   0  0  0  0  0  0  0  0  0  0  0  0
   29.5854    9.9832   60.6038 C   0  0  0  0  0  0  0  0  0  0  0  0
   30.8886    9.7381   60.8940 C   0  0  0  0  0  0  0  0  0  0  0  0
   31.6194   10.6424   61.6310 C   0  0  0  0  0  0  0  0  0  0  0  0
   31.0436   11.7949   62.0793 C   0  0  0  0  0  0  0  0  0  0  0  0
   29.7141   12.0652   61.7962 C   0  0  0  0  0  0  0  0  0  0  0  0
   28.9996   11.1574   61.0625 C   0  0  0  0  0  0  0  0  0  0  0  0
 19 20  1  0  0  0
 20 21  1  0  0  0
 20 22  1  0  0  0
 20 13  1  0  0  0
 13 14  2  0  0  0
 14 15  1  0  0  0
 15 16  2  0  0  0
 16 17  1  0  0  0
 17 18  2  0  0  0
 16  9  1  0  0  0
  9 10  2  0  0  0
  9 11  1  0  0  0
 11  1  1  0  0  0
  1  2  1  0  0  0
  2  3  1  0  0  0
  3  4  1  0  0  0
  4  5  1  0  0  0
  5  6  1  0  0  0
  6  7  1  0  0  0
  4 23  1  0  0  0
 23 24  2  0  0  0
 23 25  1  0  0  0
 25 27  1  0  0  0
 27 28  1  0  0  0
 28 29  2  0  0  0
 29 30  1  0  0  0
 30 31  2  0  0  0
 31 32  1  0  0  0
 32 33  2  0  0  0
 18 13  1  0  0  0
  7  1  1  0  0  0
 33 28  1  0  0  0
  6  3  1  0  0  0
 11 12  1  0  0  0
  7  8  1  0  0  0
 25 26  1  0  0  0
M  END
> <minimizedAffinity>
30.30614

> <CNNscore>
0.5691607594

> <CNNaffinity>
5.4531064034

> <CNN_VS>
3.1036942005

> <CNNaffinity_variance>
0.1479031146

$$$$
[H]c1c([H])c([H])c(C([H])([H])N([H])C(=O)[C@]2([H])C([H])([H])[C@@]3([H])N([H])[C@@]([H])(N([H])C(=O)c4c([H])c([H])c(C(F)(F)F)c([H])c4[H])C([H])([H])[C@]23[H])c([H])c1[H]


 33 36  0  0  0  0  0  0  0  0999 V2000
   24.7783    7.8330   54.3907 C   0  0  0  0  0  0  0  0  0  0  0  0
   23.5382    7.0084   54.7228 C   0  0  0  0  0  0  0  0  0  0  0  0
   22.5181    7.9705   54.3608 C   0  0  0  0  0  0  0  0  0  0  0  0
   21.2914    7.8582   53.6152 C   0  0  0  0  0  0  0  0  0  0  0  0
   21.8852    8.8635   52.6511 C   0  0  0  0  0  0  0  0  0  0  0  0
   23.1684    8.3320   52.9824 C   0  0  0  0  0  0  0  0  0  0  0  0
   24.2987    8.9709   53.5703 N   0  0  0  0  0  0  0  0  0  0  0  0
   24.0977    9.8066   54.1112 H   0  0  0  0  0  0  0  0  0  0  0  0
   26.7325    8.8458   55.5872 C   0  0  0  0  0  0  0  0  0  0  0  0
   27.3923    8.8284   54.4825 O   0  0  0  0  0  0  0  0  0  0  0  0
   25.4051    8.3410   55.5926 N   0  0  0  0  0  0  0  0  0  0  0  0
   24.8872    8.3440   56.4914 H   0  0  0  0  0  0  0  0  0  0  0  0
   28.7526   10.3451   58.9800 C   0  0  0  0  0  0  0  0  0  0  0  0
   28.4417   11.2000   57.9637 C   0  0  0  0  0  0  0  0  0  0  0  0
   27.7820   10.7116   56.8284 C   0  0  0  0  0  0  0  0  0  0  0  0
   27.4440    9.3930   56.7091 C   0  0  0  0  0  0  0  0  0  0  0  0
   27.7685    8.5478   57.7435 C   0  0  0  0  0  0  0  0  0  0  0  0
   28.4137    9.0243   58.8614 C   0  0  0  0  0  0  0  0  0  0  0  0
   29.4125   12.2015   60.2463 F   0  0  0  0  0  0  0  0  0  0  0  0
   29.4473   10.8022   60.2421 C   0  0  0  0  0  0  0  0  0  0  0  0
   28.9520   10.2478   61.3694 F   0  0  0  0  0  0  0  0  0  0  0  0
   30.7934   10.4121   60.1238 F   0  0  0  0  0  0  0  0  0  0  0  0
   20.7632    6.6097   53.1551 C   0  0  0  0  0  0  0  0  0  0  0  0
   20.3755    6.5943   51.9040 O   0  0  0  0  0  0  0  0  0  0  0  0
   20.5589    5.3747   53.7861 N   0  0  0  0  0  0  0  0  0  0  0  0
   20.8442    5.2614   54.7794 H   0  0  0  0  0  0  0  0  0  0  0  0
   19.9817    4.2379   53.1651 C   0  0  0  0  0  0  0  0  0  0  0  0
   18.5833    3.8932   53.4492 C   0  0  0  0  0  0  0  0  0  0  0  0
   17.7561    4.5437   54.3068 C   0  0  0  0  0  0  0  0  0  0  0  0
   16.4464    4.1441   54.4481 C   0  0  0  0  0  0  0  0  0  0  0  0
   15.9637    3.0900   53.7293 C   0  0  0  0  0  0  0  0  0  0  0  0
   16.7906    2.4103   52.8489 C   0  0  0  0  0  0  0  0  0  0  0  0
   18.0903    2.8183   52.7185 C   0  0  0  0  0  0  0  0  0  0  0  0
 19 20  1  0  0  0
 20 21  1  0  0  0
 20 22  1  0  0  0
 20 13  1  0  0  0
 13 14  2  0  0  0
 14 15  1  0  0  0
 15 16  2  0  0  0
 16 17  1  0  0  0
 17 18  2  0  0  0
 16  9  1  0  0  0
  9 10  2  0  0  0
  9 11  1  0  0  0
 11  1  1  0  0  0
  1  2  1  0  0  0
  2  3  1  0  0  0
  3  4  1  0  0  0
  4  5  1  0  0  0
  5  6  1  0  0  0
  6  7  1  0  0  0
  4 23  1  0  0  0
 23 24  2  0  0  0
 23 25  1  0  0  0
 25 27  1  0  0  0
 27 28  1  0  0  0
 28 29  2  0  0  0
 29 30  1  0  0  0
 30 31  2  0  0  0
 31 32  1  0  0  0
 32 33  2  0  0  0
 18 13  1  0  0  0
  7  1  1  0  0  0
 33 28  1  0  0  0
  6  3  1  0  0  0
 11 12  1  0  0  0
  7  8  1  0  0  0
 25 26  1  0  0  0
M  END
> <minimizedAffinity>
13.94254

> <CNNscore>
0.5544231534

> <CNNaffinity>
5.9806976318

> <CNN_VS>
3.3158371449

> <CNNaffinity_variance>
0.1124035567

$$$$
[H]c1c([H])c([H])c(C([H])([H])N([H])C(=O)[C@]2([H])C([H])([H])[C@@]3([H])N([H])[C@@]([H])(N([H])C(=O)c4c([H])c([H])c(C(F)(F)F)c([H])c4[H])C([H])([H])[C@]23[H])c([H])c1[H]


 33 36  0  0  0  0  0  0  0  0999 V2000
   25.3597    7.8209   54.8475 C   0  0  0  0  0  0  0  0  0  0  0  0
   24.1087    7.0211   55.1984 C   0  0  0  0  0  0  0  0  0  0  0  0
   23.1054    7.9118   54.6532 C   0  0  0  0  0  0  0  0  0  0  0  0
   21.9326    7.6853   53.8489 C   0  0  0  0  0  0  0  0  0  0  0  0
   22.5795    8.5741   52.8076 C   0  0  0  0  0  0  0  0  0  0  0  0
   23.8429    8.1117   53.2858 C   0  0  0  0  0  0  0  0  0  0  0  0
   24.9247    8.8392   53.8618 N   0  0  0  0  0  0  0  0  0  0  0  0
   24.6793    9.7318   54.2798 H   0  0  0  0  0  0  0  0  0  0  0  0
   27.2402    8.9512   56.0568 C   0  0  0  0  0  0  0  0  0  0  0  0
   27.9917    8.7544   55.0308 O   0  0  0  0  0  0  0  0  0  0  0  0
   25.8993    8.4855   56.0148 N   0  0  0  0  0  0  0  0  0  0  0  0
   25.3064    8.6342   56.8529 H   0  0  0  0  0  0  0  0  0  0  0  0
   29.0377   10.8679   59.3636 C   0  0  0  0  0  0  0  0  0  0  0  0
   28.6549   11.6190   58.2914 C   0  0  0  0  0  0  0  0  0  0  0  0
   28.0681   10.9925   57.1841 C   0  0  0  0  0  0  0  0  0  0  0  0
   27.8726    9.6406   57.1473 C   0  0  0  0  0  0  0  0  0  0  0  0
   28.2677    8.9017   58.2371 C   0  0  0  0  0  0  0  0  0  0  0  0
   28.8415    9.5137   59.3276 C   0  0  0  0  0  0  0  0  0  0  0  0
   30.0890   10.4146   61.4068 F   0  0  0  0  0  0  0  0  0  0  0  0
   29.6606   11.4750   60.5997 C   0  0  0  0  0  0  0  0  0  0  0  0
   30.6304   12.3769   60.3358 F   0  0  0  0  0  0  0  0  0  0  0  0
   28.6277   12.1391   61.2855 F   0  0  0  0  0  0  0  0  0  0  0  0
   21.4493    6.3799   53.5150 C   0  0  0  0  0  0  0  0  0  0  0  0
   22.3746    5.4975   53.2305 O   0  0  0  0  0  0  0  0  0  0  0  0
   20.1586    5.8420   53.4150 N   0  0  0  0  0  0  0  0  0  0  0  0
   19.3411    6.4458   53.6340 H   0  0  0  0  0  0  0  0  0  0  0  0
   19.8689    4.5078   53.0313 C   0  0  0  0  0  0  0  0  0  0  0  0
   18.5412    3.9485   53.3133 C   0  0  0  0  0  0  0  0  0  0  0  0
   17.6400    4.4346   54.2046 C   0  0  0  0  0  0  0  0  0  0  0  0
   16.4059    3.8400   54.3408 C   0  0  0  0  0  0  0  0  0  0  0  0
   16.0735    2.7554   53.5832 C   0  0  0  0  0  0  0  0  0  0  0  0
   16.9784    2.2414   52.6679 C   0  0  0  0  0  0  0  0  0  0  0  0
   18.2015    2.8424   52.5430 C   0  0  0  0  0  0  0  0  0  0  0  0
 19 20  1  0  0  0
 20 21  1  0  0  0
 20 22  1  0  0  0
 20 13  1  0  0  0
 13 14  2  0  0  0
 14 15  1  0  0  0
 15 16  2  0  0  0
 16 17  1  0  0  0
 17 18  2  0  0  0
 16  9  1  0  0  0
  9 10  2  0  0  0
  9 11  1  0  0  0
 11  1  1  0  0  0
  1  2  1  0  0  0
  2  3  1  0  0  0
  3  4  1  0  0  0
  4  5  1  0  0  0
  5  6  1  0  0  0
  6  7  1  0  0  0
  4 23  1  0  0  0
 23 24  2  0  0  0
 23 25  1  0  0  0
 25 27  1  0  0  0
 27 28  1  0  0  0
 28 29  2  0  0  0
 29 30  1  0  0  0
 30 31  2  0  0  0
 31 32  1  0  0  0
 32 33  2  0  0  0
 18 13  1  0  0  0
  7  1  1  0  0  0
 33 28  1  0  0  0
  6  3  1  0  0  0
 11 12  1  0  0  0
  7  8  1  0  0  0
 25 26  1  0  0  0
M  END
> <minimizedAffinity>
14.86212

> <CNNscore>
0.5482261181

> <CNNaffinity>
5.8375535011

> <CNN_VS>
3.2002992630

> <CNNaffinity_variance>
0.1085153967

$$$$
[H]c1c([H])c([H])c(C([H])([H])N([H])C(=O)[C@]2([H])C([H])([H])[C@@]3([H])N([H])[C@@]([H])(N([H])C(=O)c4c([H])c([H])c(C(F)(F)F)c([H])c4[H])C([H])([H])[C@]23[H])c([H])c1[H]


 33 36  0  0  0  0  0  0  0  0999 V2000
   21.8047    9.3876   54.9610 C   0  0  0  0  0  0  0  0  0  0  0  0
   20.8637    8.3937   54.2867 C   0  0  0  0  0  0  0  0  0  0  0  0
   21.8020    7.7684   53.3779 C   0  0  0  0  0  0  0  0  0  0  0  0
   22.0527    6.3946   53.0269 C   0  0  0  0  0  0  0  0  0  0  0  0
   23.4579    6.6066   53.5499 C   0  0  0  0  0  0  0  0  0  0  0  0
   22.9087    7.5546   54.4656 C   0  0  0  0  0  0  0  0  0  0  0  0
   23.1761    8.9470   54.6103 N   0  0  0  0  0  0  0  0  0  0  0  0
   23.5543    9.4085   53.7883 H   0  0  0  0  0  0  0  0  0  0  0  0
   21.5901   11.0190   53.0718 C   0  0  0  0  0  0  0  0  0  0  0  0
   21.8039   10.0574   52.2437 O   0  0  0  0  0  0  0  0  0  0  0  0
   21.5916   10.7297   54.4621 N   0  0  0  0  0  0  0  0  0  0  0  0
   21.4348   11.5144   55.1223 H   0  0  0  0  0  0  0  0  0  0  0  0
   21.0874   14.7867   51.2304 C   0  0  0  0  0  0  0  0  0  0  0  0
   20.4140   14.5201   52.3862 C   0  0  0  0  0  0  0  0  0  0  0  0
   20.5641   13.2696   52.9996 C   0  0  0  0  0  0  0  0  0  0  0  0
   21.3679   12.3023   52.4653 C   0  0  0  0  0  0  0  0  0  0  0  0
   22.0358   12.5905   51.2987 C   0  0  0  0  0  0  0  0  0  0  0  0
   21.8932   13.8185   50.6949 C   0  0  0  0  0  0  0  0  0  0  0  0
   22.2242   16.7579   50.6759 F   0  0  0  0  0  0  0  0  0  0  0  0
   20.9889   16.1181   50.5216 C   0  0  0  0  0  0  0  0  0  0  0  0
   20.5883   16.0236   49.2355 F   0  0  0  0  0  0  0  0  0  0  0  0
   20.0298   16.8746   51.2187 F   0  0  0  0  0  0  0  0  0  0  0  0
   21.2449    5.3062   53.4872 C   0  0  0  0  0  0  0  0  0  0  0  0
   21.8604    4.4372   54.2500 O   0  0  0  0  0  0  0  0  0  0  0  0
   19.9022    4.9638   53.2746 N   0  0  0  0  0  0  0  0  0  0  0  0
   19.3066    5.5896   52.6962 H   0  0  0  0  0  0  0  0  0  0  0  0
   19.2731    3.8055   53.7977 C   0  0  0  0  0  0  0  0  0  0  0  0
   17.8089    3.7045   53.7679 C   0  0  0  0  0  0  0  0  0  0  0  0
   16.9362    4.5216   54.4109 C   0  0  0  0  0  0  0  0  0  0  0  0
   15.5791    4.3451   54.2623 C   0  0  0  0  0  0  0  0  0  0  0  0
   15.0943    3.3474   53.4684 C   0  0  0  0  0  0  0  0  0  0  0  0
   15.9668    2.5003   52.8035 C   0  0  0  0  0  0  0  0  0  0  0  0
   17.3134    2.6872   52.9604 C   0  0  0  0  0  0  0  0  0  0  0  0
 19 20  1  0  0  0
 20 21  1  0  0  0
 20 22  1  0  0  0
 20 13  1  0  0  0
 13 14  2  0  0  0
 14 15  1  0  0  0
 15 16  2  0  0  0
 16 17  1  0  0  0
 17 18  2  0  0  0
 16  9  1  0  0  0
  9 10  2  0  0  0
  9 11  1  0  0  0
 11  1  1  0  0  0
  1  2  1  0  0  0
  2  3  1  0  0  0
  3  4  1  0  0  0
  4  5  1  0  0  0
  5  6  1  0  0  0
  6  7  1  0  0  0
  4 23  1  0  0  0
 23 24  2  0  0  0
 23 25  1  0  0  0
 25 27  1  0  0  0
 27 28  1  0  0  0
 28 29  2  0  0  0
 29 30  1  0  0  0
 30 31  2  0  0  0
 31 32  1  0  0  0
 32 33  2  0  0  0
 18 13  1  0  0  0
  7  1  1  0  0  0
 33 28  1  0  0  0
  6  3  1  0  0  0
 11 12  1  0  0  0
  7  8  1  0  0  0
 25 26  1  0  0  0
M  END
> <minimizedAffinity>
25.88890

> <CNNscore>
0.5472486019

> <CNNaffinity>
6.1463842392

> <CNN_VS>
3.3636002541

> <CNNaffinity_variance>
0.3843683302

$$$$
[H]c1c([H])c([H])c(C([H])([H])N([H])C(=O)[C@]2([H])C([H])([H])[C@@]3([H])N([H])[C@@]([H])(N([H])C(=O)c4c([H])c([H])c(C(F)(F)F)c([H])c4[H])C([H])([H])[C@]23[H])c([H])c1[H]


 33 36  0  0  0  0  0  0  0  0999 V2000
   21.9456    9.2963   54.7780 C   0  0  0  0  0  0  0  0  0  0  0  0
   20.8097    8.3900   54.3129 C   0  0  0  0  0  0  0  0  0  0  0  0
   21.5019    7.6742   53.2614 C   0  0  0  0  0  0  0  0  0  0  0  0
   21.5578    6.2807   52.9028 C   0  0  0  0  0  0  0  0  0  0  0  0
   23.0491    6.3644   53.1518 C   0  0  0  0  0  0  0  0  0  0  0  0
   22.7679    7.3653   54.1305 C   0  0  0  0  0  0  0  0  0  0  0  0
   23.1823    8.7277   54.1903 N   0  0  0  0  0  0  0  0  0  0  0  0
   23.4408    9.1466   53.3019 H   0  0  0  0  0  0  0  0  0  0  0  0
   21.5986   10.9342   52.9142 C   0  0  0  0  0  0  0  0  0  0  0  0
   21.6293    9.9574   52.0770 O   0  0  0  0  0  0  0  0  0  0  0  0
   21.7654   10.6491   54.2954 N   0  0  0  0  0  0  0  0  0  0  0  0
   21.7557   11.4449   54.9608 H   0  0  0  0  0  0  0  0  0  0  0  0
   21.1338   14.7297   51.1206 C   0  0  0  0  0  0  0  0  0  0  0  0
   20.5209   14.4823   52.3137 C   0  0  0  0  0  0  0  0  0  0  0  0
   20.6586   13.2232   52.9123 C   0  0  0  0  0  0  0  0  0  0  0  0
   21.3907   12.2288   52.3270 C   0  0  0  0  0  0  0  0  0  0  0  0
   21.9983   12.4981   51.1236 C   0  0  0  0  0  0  0  0  0  0  0  0
   21.8679   13.7344   50.5341 C   0  0  0  0  0  0  0  0  0  0  0  0
   22.0750   16.8664   50.9353 F   0  0  0  0  0  0  0  0  0  0  0  0
   21.0451   16.0682   50.4240 C   0  0  0  0  0  0  0  0  0  0  0  0
   21.0479   15.9835   49.0763 F   0  0  0  0  0  0  0  0  0  0  0  0
   19.8252   16.6465   50.8183 F   0  0  0  0  0  0  0  0  0  0  0  0
   20.7549    5.2753   53.5301 C   0  0  0  0  0  0  0  0  0  0  0  0
   20.8952    5.1783   54.8288 O   0  0  0  0  0  0  0  0  0  0  0  0
   19.8371    4.3425   53.0274 N   0  0  0  0  0  0  0  0  0  0  0  0
   19.6307    4.3352   52.0085 H   0  0  0  0  0  0  0  0  0  0  0  0
   19.1484    3.3846   53.8144 C   0  0  0  0  0  0  0  0  0  0  0  0
   19.8137    2.1224   54.1597 C   0  0  0  0  0  0  0  0  0  0  0  0
   19.8754    1.5609   55.3941 C   0  0  0  0  0  0  0  0  0  0  0  0
   20.4943    0.3446   55.5751 C   0  0  0  0  0  0  0  0  0  0  0  0
   21.0535   -0.3109   54.5176 C   0  0  0  0  0  0  0  0  0  0  0  0
   21.0037    0.2442   53.2487 C   0  0  0  0  0  0  0  0  0  0  0  0
   20.3854    1.4539   53.0833 C   0  0  0  0  0  0  0  0  0  0  0  0
 19 20  1  0  0  0
 20 21  1  0  0  0
 20 22  1  0  0  0
 20 13  1  0  0  0
 13 14  2  0  0  0
 14 15  1  0  0  0
 15 16  2  0  0  0
 16 17  1  0  0  0
 17 18  2  0  0  0
 16  9  1  0  0  0
  9 10  2  0  0  0
  9 11  1  0  0  0
 11  1  1  0  0  0
  1  2  1  0  0  0
  2  3  1  0  0  0
  3  4  1  0  0  0
  4  5  1  0  0  0
  5  6  1  0  0  0
  6  7  1  0  0  0
  4 23  1  0  0  0
 23 24  2  0  0  0
 23 25  1  0  0  0
 25 27  1  0  0  0
 27 28  1  0  0  0
 28 29  2  0  0  0
 29 30  1  0  0  0
 30 31  2  0  0  0
 31 32  1  0  0  0
 32 33  2  0  0  0
 18 13  1  0  0  0
  7  1  1  0  0  0
 33 28  1  0  0  0
  6  3  1  0  0  0
 11 12  1  0  0  0
  7  8  1  0  0  0
 25 26  1  0  0  0
M  END
> <minimizedAffinity>
42.29726

> <CNNscore>
0.5394641161

> <CNNaffinity>
6.0293664932

> <CNN_VS>
3.2526268959

> <CNNaffinity_variance>
0.1393003315

$$$$
[H]c1c([H])c([H])c(C([H])([H])N([H])C(=O)[C@]2([H])C([H])([H])[C@@]3([H])N([H])[C@@]([H])(N([H])C(=O)c4c([H])c([H])c(C(F)(F)F)c([H])c4[H])C([H])([H])[C@]23[H])c([H])c1[H]


 33 36  0  0  0  0  0  0  0  0999 V2000
   27.7999    7.7030   54.5457 C   0  0  0  0  0  0  0  0  0  0  0  0
   28.6251    8.8396   55.1416 C   0  0  0  0  0  0  0  0  0  0  0  0
   27.5749    9.8222   55.3116 C   0  0  0  0  0  0  0  0  0  0  0  0
   27.2310   10.7055   56.3955 C   0  0  0  0  0  0  0  0  0  0  0  0
   25.8954    9.9935   56.4390 C   0  0  0  0  0  0  0  0  0  0  0  0
   26.5735    8.8225   55.9834 C   0  0  0  0  0  0  0  0  0  0  0  0
   26.3826    8.0594   54.7949 N   0  0  0  0  0  0  0  0  0  0  0  0
   25.9450    8.5530   54.0226 H   0  0  0  0  0  0  0  0  0  0  0  0
   28.0110    8.7263   52.2687 C   0  0  0  0  0  0  0  0  0  0  0  0
   27.7802    9.8809   52.7882 O   0  0  0  0  0  0  0  0  0  0  0  0
   28.0205    7.5893   53.1196 N   0  0  0  0  0  0  0  0  0  0  0  0
   28.1910    6.6611   52.6890 H   0  0  0  0  0  0  0  0  0  0  0  0
   28.5488    8.8424   48.0810 C   0  0  0  0  0  0  0  0  0  0  0  0
   28.9731    7.7459   48.7724 C   0  0  0  0  0  0  0  0  0  0  0  0
   28.8103    7.7013   50.1631 C   0  0  0  0  0  0  0  0  0  0  0  0
   28.2391    8.7351   50.8502 C   0  0  0  0  0  0  0  0  0  0  0  0
   27.8206    9.8319   50.1348 C   0  0  0  0  0  0  0  0  0  0  0  0
   27.9760    9.8781   48.7686 C   0  0  0  0  0  0  0  0  0  0  0  0
   28.8016   10.3156   46.2779 F   0  0  0  0  0  0  0  0  0  0  0  0
   28.6748    8.9545   46.5790 C   0  0  0  0  0  0  0  0  0  0  0  0
   29.6595    8.1931   46.0553 F   0  0  0  0  0  0  0  0  0  0  0  0
   27.4534    8.5131   46.0391 F   0  0  0  0  0  0  0  0  0  0  0  0
   28.0326   10.8542   57.5722 C   0  0  0  0  0  0  0  0  0  0  0  0
   27.9488   12.0210   58.1615 O   0  0  0  0  0  0  0  0  0  0  0  0
   28.9193    9.9922   58.2324 N   0  0  0  0  0  0  0  0  0  0  0  0
   29.0560    9.0293   57.8648 H   0  0  0  0  0  0  0  0  0  0  0  0
   29.6632   10.3335   59.3905 C   0  0  0  0  0  0  0  0  0  0  0  0
   30.0498    9.2791   60.3359 C   0  0  0  0  0  0  0  0  0  0  0  0
   31.0896    9.3262   61.2073 C   0  0  0  0  0  0  0  0  0  0  0  0
   31.3171    8.2831   62.0763 C   0  0  0  0  0  0  0  0  0  0  0  0
   30.5017    7.1895   62.0724 C   0  0  0  0  0  0  0  0  0  0  0  0
   29.4349    7.1192   61.1905 C   0  0  0  0  0  0  0  0  0  0  0  0
   29.2206    8.1634   60.3322 C   0  0  0  0  0  0  0  0  0  0  0  0
 19 20  1  0  0  0
 20 21  1  0  0  0
 20 22  1  0  0  0
 20 13  1  0  0  0
 13 14  2  0  0  0
 14 15  1  0  0  0
 15 16  2  0  0  0
 16 17  1  0  0  0
 17 18  2  0  0  0
 16  9  1  0  0  0
  9 10  2  0  0  0
  9 11  1  0  0  0
 11  1  1  0  0  0
  1  2  1  0  0  0
  2  3  1  0  0  0
  3  4  1  0  0  0
  4  5  1  0  0  0
  5  6  1  0  0  0
  6  7  1  0  0  0
  4 23  1  0  0  0
 23 24  2  0  0  0
 23 25  1  0  0  0
 25 27  1  0  0  0
 27 28  1  0  0  0
 28 29  2  0  0  0
 29 30  1  0  0  0
 30 31  2  0  0  0
 31 32  1  0  0  0
 32 33  2  0  0  0
 18 13  1  0  0  0
  7  1  1  0  0  0
 33 28  1  0  0  0
  6  3  1  0  0  0
 11 12  1  0  0  0
  7  8  1  0  0  0
 25 26  1  0  0  0
M  END
> <minimizedAffinity>
33.79275

> <CNNscore>
0.5354297161

> <CNNaffinity>
5.4456038475

> <CNN_VS>
2.9157381058

> <CNNaffinity_variance>
0.1801700145

$$$$
[H]c1c([H])c([H])c(C([H])([H])N([H])C(=O)[C@]2([H])C([H])([H])[C@@]3([H])N([H])[C@@]([H])(N([H])C(=O)c4c([H])c([H])c(C(F)(F)F)c([H])c4[H])C([H])([H])[C@]23[H])c([H])c1[H]


 33 36  0  0  0  0  0  0  0  0999 V2000
   27.0449    8.5000   55.4729 C   0  0  0  0  0  0  0  0  0  0  0  0
   25.6815    7.9758   55.9137 C   0  0  0  0  0  0  0  0  0  0  0  0
   24.8552    8.6069   54.9057 C   0  0  0  0  0  0  0  0  0  0  0  0
   23.7744    8.1228   54.0865 C   0  0  0  0  0  0  0  0  0  0  0  0
   24.6374    8.4706   52.8919 C   0  0  0  0  0  0  0  0  0  0  0  0
   25.7746    8.1891   53.7083 C   0  0  0  0  0  0  0  0  0  0  0  0
   26.8477    9.0387   54.1058 N   0  0  0  0  0  0  0  0  0  0  0  0
   26.6490   10.0345   54.0853 H   0  0  0  0  0  0  0  0  0  0  0  0
   27.8131    9.3273   57.7094 C   0  0  0  0  0  0  0  0  0  0  0  0
   27.6611    8.1387   58.1788 O   0  0  0  0  0  0  0  0  0  0  0  0
   27.5027    9.5619   56.3436 N   0  0  0  0  0  0  0  0  0  0  0  0
   27.6127   10.5267   55.9787 H   0  0  0  0  0  0  0  0  0  0  0  0
   29.2379   12.2806   60.3715 C   0  0  0  0  0  0  0  0  0  0  0  0
   29.5362   10.9720   60.6141 C   0  0  0  0  0  0  0  0  0  0  0  0
   29.0593    9.9828   59.7442 C   0  0  0  0  0  0  0  0  0  0  0  0
   28.2946   10.2952   58.6557 C   0  0  0  0  0  0  0  0  0  0  0  0
   28.0034   11.6197   58.4306 C   0  0  0  0  0  0  0  0  0  0  0  0
   28.4725   12.5944   59.2810 C   0  0  0  0  0  0  0  0  0  0  0  0
   30.3414   14.3459   60.4190 F   0  0  0  0  0  0  0  0  0  0  0  0
   29.7313   13.4034   61.2549 C   0  0  0  0  0  0  0  0  0  0  0  0
   28.7777   13.9292   62.0535 F   0  0  0  0  0  0  0  0  0  0  0  0
   30.7318   12.8569   62.0785 F   0  0  0  0  0  0  0  0  0  0  0  0
   23.1996    6.8201   54.2339 C   0  0  0  0  0  0  0  0  0  0  0  0
   23.5601    6.1691   55.3119 O   0  0  0  0  0  0  0  0  0  0  0  0
   22.3194    6.0748   53.4371 N   0  0  0  0  0  0  0  0  0  0  0  0
   21.9511    6.4960   52.5608 H   0  0  0  0  0  0  0  0  0  0  0  0
   21.8775    4.7609   53.7361 C   0  0  0  0  0  0  0  0  0  0  0  0
   20.4447    4.4488   53.6673 C   0  0  0  0  0  0  0  0  0  0  0  0
   19.4296    5.2489   54.0825 C   0  0  0  0  0  0  0  0  0  0  0  0
   18.1210    4.8543   53.9186 C   0  0  0  0  0  0  0  0  0  0  0  0
   17.8278    3.6553   53.3380 C   0  0  0  0  0  0  0  0  0  0  0  0
   18.8481    2.8217   52.9079 C   0  0  0  0  0  0  0  0  0  0  0  0
   20.1443    3.2265   53.0772 C   0  0  0  0  0  0  0  0  0  0  0  0
 19 20  1  0  0  0
 20 21  1  0  0  0
 20 22  1  0  0  0
 20 13  1  0  0  0
 13 14  2  0  0  0
 14 15  1  0  0  0
 15 16  2  0  0  0
 16 17  1  0  0  0
 17 18  2  0  0  0
 16  9  1  0  0  0
  9 10  2  0  0  0
  9 11  1  0  0  0
 11  1  1  0  0  0
  1  2  1  0  0  0
  2  3  1  0  0  0
  3  4  1  0  0  0
  4  5  1  0  0  0
  5  6  1  0  0  0
  6  7  1  0  0  0
  4 23  1  0  0  0
 23 24  2  0  0  0
 23 25  1  0  0  0
 25 27  1  0  0  0
 27 28  1  0  0  0
 28 29  2  0  0  0
 29 30  1  0  0  0
 30 31  2  0  0  0
 31 32  1  0  0  0
 32 33  2  0  0  0
 18 13  1  0  0  0
  7  1  1  0  0  0
 33 28  1  0  0  0
  6  3  1  0  0  0
 11 12  1  0  0  0
  7  8  1  0  0  0
 25 26  1  0  0  0
M  END
> <minimizedAffinity>
19.46887

> <CNNscore>
0.5169845819

> <CNNaffinity>
5.3981294632

> <CNN_VS>
2.7907497883

> <CNNaffinity_variance>
0.0097581251

$$$$
[H]c1c([H])c([H])c(C([H])([H])N([H])C(=O)[C@]2([H])C([H])([H])[C@@]3([H])N([H])[C@@]([H])(N([H])C(=O)c4c([H])c([H])c(C(F)(F)F)c([H])c4[H])C([H])([H])[C@]23[H])c([H])c1[H]


 33 36  0  0  0  0  0  0  0  0999 V2000
   24.3321    8.5228   54.0335 C   0  0  0  0  0  0  0  0  0  0  0  0
   25.0411    8.8632   55.3409 C   0  0  0  0  0  0  0  0  0  0  0  0
   26.2429    8.0748   55.1632 C   0  0  0  0  0  0  0  0  0  0  0  0
   27.6379    8.3603   55.3773 C   0  0  0  0  0  0  0  0  0  0  0  0
   27.8323    8.0884   53.9004 C   0  0  0  0  0  0  0  0  0  0  0  0
   26.5025    8.5676   53.6992 C   0  0  0  0  0  0  0  0  0  0  0  0
   25.3611    7.9009   53.1661 N   0  0  0  0  0  0  0  0  0  0  0  0
   25.3806    6.8869   53.2204 H   0  0  0  0  0  0  0  0  0  0  0  0
   22.1866    7.4369   53.3304 C   0  0  0  0  0  0  0  0  0  0  0  0
   22.1725    8.1876   52.2853 O   0  0  0  0  0  0  0  0  0  0  0  0
   23.2573    7.5782   54.2526 N   0  0  0  0  0  0  0  0  0  0  0  0
   23.2512    6.9802   55.1003 H   0  0  0  0  0  0  0  0  0  0  0  0
   18.8667    4.8552   53.7204 C   0  0  0  0  0  0  0  0  0  0  0  0
   20.1153    4.3161   53.6165 C   0  0  0  0  0  0  0  0  0  0  0  0
   21.2228    5.1625   53.4752 C   0  0  0  0  0  0  0  0  0  0  0  0
   21.0843    6.5212   53.4333 C   0  0  0  0  0  0  0  0  0  0  0  0
   19.8171    7.0440   53.5372 C   0  0  0  0  0  0  0  0  0  0  0  0
   18.7273    6.2162   53.6792 C   0  0  0  0  0  0  0  0  0  0  0  0
   17.7192    3.3964   55.1489 F   0  0  0  0  0  0  0  0  0  0  0  0
   17.6276    4.0070   53.8927 C   0  0  0  0  0  0  0  0  0  0  0  0
   16.4733    4.6822   53.7050 F   0  0  0  0  0  0  0  0  0  0  0  0
   17.6973    2.9917   52.9219 F   0  0  0  0  0  0  0  0  0  0  0  0
   28.1087    9.5713   55.9781 C   0  0  0  0  0  0  0  0  0  0  0  0
   28.8781   10.3099   55.2177 O   0  0  0  0  0  0  0  0  0  0  0  0
   27.9218   10.1368   57.2471 N   0  0  0  0  0  0  0  0  0  0  0  0
   27.3146    9.6470   57.9343 H   0  0  0  0  0  0  0  0  0  0  0  0
   28.5066   11.3536   57.6815 C   0  0  0  0  0  0  0  0  0  0  0  0
   28.7263   11.5765   59.1157 C   0  0  0  0  0  0  0  0  0  0  0  0
   28.3412   12.6680   59.8250 C   0  0  0  0  0  0  0  0  0  0  0  0
   28.5690   12.7326   61.1811 C   0  0  0  0  0  0  0  0  0  0  0  0
   29.1847   11.7018   61.8287 C   0  0  0  0  0  0  0  0  0  0  0  0
   29.5876   10.5783   61.1244 C   0  0  0  0  0  0  0  0  0  0  0  0
   29.3548   10.5276   59.7768 C   0  0  0  0  0  0  0  0  0  0  0  0
 19 20  1  0  0  0
 20 21  1  0  0  0
 20 22  1  0  0  0
 20 13  1  0  0  0
 13 14  2  0  0  0
 14 15  1  0  0  0
 15 16  2  0  0  0
 16 17  1  0  0  0
 17 18  2  0  0  0
 16  9  1  0  0  0
  9 10  2  0  0  0
  9 11  1  0  0  0
 11  1  1  0  0  0
  1  2  1  0  0  0
  2  3  1  0  0  0
  3  4  1  0  0  0
  4  5  1  0  0  0
  5  6  1  0  0  0
  6  7  1  0  0  0
  4 23  1  0  0  0
 23 24  2  0  0  0
 23 25  1  0  0  0
 25 27  1  0  0  0
 27 28  1  0  0  0
 28 29  2  0  0  0
 29 30  1  0  0  0
 30 31  2  0  0  0
 31 32  1  0  0  0
 32 33  2  0  0  0
 18 13  1  0  0  0
  7  1  1  0  0  0
 33 28  1  0  0  0
  6  3  1  0  0  0
 11 12  1  0  0  0
  7  8  1  0  0  0
 25 26  1  0  0  0
M  END
> <minimizedAffinity>
12.82488

> <CNNscore>
0.5064166188

> <CNNaffinity>
5.8494009972

> <CNN_VS>
2.9622337818

> <CNNaffinity_variance>
0.0785012543

$$$$
[H]c1c([H])c([H])c(C([H])([H])N([H])C(=O)[C@]2([H])C([H])([H])[C@@]3([H])N([H])[C@@]([H])(N([H])C(=O)c4c([H])c([H])c(C(F)(F)F)c([H])c4[H])C([H])([H])[C@]23[H])c([H])c1[H]


 33 36  0  0  0  0  0  0  0  0999 V2000
   27.6835    9.5619   56.3339 C   0  0  0  0  0  0  0  0  0  0  0  0
   27.6827   10.5484   57.4978 C   0  0  0  0  0  0  0  0  0  0  0  0
   27.7663    9.6085   58.5964 C   0  0  0  0  0  0  0  0  0  0  0  0
   28.5616    9.5782   59.7964 C   0  0  0  0  0  0  0  0  0  0  0  0
   29.1322    8.2729   59.2831 C   0  0  0  0  0  0  0  0  0  0  0  0
   28.9304    8.7747   57.9616 C   0  0  0  0  0  0  0  0  0  0  0  0
   28.1226    8.2655   56.9036 N   0  0  0  0  0  0  0  0  0  0  0  0
   27.3546    7.6650   57.1885 H   0  0  0  0  0  0  0  0  0  0  0  0
   26.0399    8.3647   54.8704 C   0  0  0  0  0  0  0  0  0  0  0  0
   26.9702    7.5423   54.5325 O   0  0  0  0  0  0  0  0  0  0  0  0
   26.3567    9.4132   55.7743 N   0  0  0  0  0  0  0  0  0  0  0  0
   25.6043   10.0807   56.0278 H   0  0  0  0  0  0  0  0  0  0  0  0
   22.2026    7.6684   53.2486 C   0  0  0  0  0  0  0  0  0  0  0  0
   23.2300    6.8441   52.8946 C   0  0  0  0  0  0  0  0  0  0  0  0
   24.5096    7.0724   53.4173 C   0  0  0  0  0  0  0  0  0  0  0  0
   24.7585    8.1079   54.2735 C   0  0  0  0  0  0  0  0  0  0  0  0
   23.7098    8.9283   54.6157 C   0  0  0  0  0  0  0  0  0  0  0  0
   22.4511    8.7054   54.1067 C   0  0  0  0  0  0  0  0  0  0  0  0
   20.7789    7.8856   51.4017 F   0  0  0  0  0  0  0  0  0  0  0  0
   20.7928    7.4740   52.7395 C   0  0  0  0  0  0  0  0  0  0  0  0
   20.3131    6.2252   52.9237 F   0  0  0  0  0  0  0  0  0  0  0  0
   19.9776    8.3616   53.4645 F   0  0  0  0  0  0  0  0  0  0  0  0
   29.4148   10.6541   60.2008 C   0  0  0  0  0  0  0  0  0  0  0  0
   30.1751   11.1496   59.2562 O   0  0  0  0  0  0  0  0  0  0  0  0
   29.6182   11.2937   61.4315 N   0  0  0  0  0  0  0  0  0  0  0  0
   29.0572   10.9959   62.2547 H   0  0  0  0  0  0  0  0  0  0  0  0
   30.5489   12.3408   61.6517 C   0  0  0  0  0  0  0  0  0  0  0  0
   30.1662   13.7232   61.3395 C   0  0  0  0  0  0  0  0  0  0  0  0
   28.9649   14.2999   61.5985 C   0  0  0  0  0  0  0  0  0  0  0  0
   28.7493   15.6252   61.2948 C   0  0  0  0  0  0  0  0  0  0  0  0
   29.7389   16.3750   60.7297 C   0  0  0  0  0  0  0  0  0  0  0  0
   30.9728   15.8067   60.4552 C   0  0  0  0  0  0  0  0  0  0  0  0
   31.1731   14.4882   60.7622 C   0  0  0  0  0  0  0  0  0  0  0  0
 19 20  1  0  0  0
 20 21  1  0  0  0
 20 22  1  0  0  0
 20 13  1  0  0  0
 13 14  2  0  0  0
 14 15  1  0  0  0
 15 16  2  0  0  0
 16 17  1  0  0  0
 17 18  2  0  0  0
 16  9  1  0  0  0
  9 10  2  0  0  0
  9 11  1  0  0  0
 11  1  1  0  0  0
  1  2  1  0  0  0
  2  3  1  0  0  0
  3  4  1  0  0  0
  4  5  1  0  0  0
  5  6  1  0  0  0
  6  7  1  0  0  0
  4 23  1  0  0  0
 23 24  2  0  0  0
 23 25  1  0  0  0
 25 27  1  0  0  0
 27 28  1  0  0  0
 28 29  2  0  0  0
 29 30  1  0  0  0
 30 31  2  0  0  0
 31 32  1  0  0  0
 32 33  2  0  0  0
 18 13  1  0  0  0
  7  1  1  0  0  0
 33 28  1  0  0  0
  6  3  1  0  0  0
 11 12  1  0  0  0
  7  8  1  0  0  0
 25 26  1  0  0  0
M  END
> <minimizedAffinity>
2.51841

> <CNNscore>
0.4941672683

> <CNNaffinity>
5.6857099533

> <CNN_VS>
2.8096916676

> <CNNaffinity_variance>
0.1558347046

$$$$
[H]c1c([H])c([H])c([C@]2([H])C([H])([H])[C@]3([H])N4C([H])([H])[C@@]([H])(C([H])([H])[C@]2([H])N([H])C(=O)c2c([H])c([H])c(C(F)(F)F)c([H])c2[H])[C@@]43[H])c([H])c1[H]


 29 33  0  0  0  0  0  0  0  0999 V2000
   20.8621    5.0965   53.6467 C   0  0  0  0  0  0  0  0  0  0  0  0
   19.9568    3.9068   53.7687 C   0  0  0  0  0  0  0  0  0  0  0  0
   18.4588    3.8749   53.8397 C   0  0  0  0  0  0  0  0  0  0  0  0
   17.4962    5.0248   53.8062 C   0  0  0  0  0  0  0  0  0  0  0  0
   17.7939    6.4906   53.6934 C   0  0  0  0  0  0  0  0  0  0  0  0
   19.1276    7.1686   53.5863 C   0  0  0  0  0  0  0  0  0  0  0  0
   20.4932    6.5481   53.5655 C   0  0  0  0  0  0  0  0  0  0  0  0
   16.3733    6.0191   53.7906 N   0  0  0  0  0  0  0  0  0  0  0  0
   16.9605    3.8990   53.9069 C   0  0  0  0  0  0  0  0  0  0  0  0
   20.7908    8.0140   53.4527 C   0  0  0  0  0  0  0  0  0  0  0  0
   21.0336    8.6285   52.1061 C   0  0  0  0  0  0  0  0  0  0  0  0
   21.3313   10.0944   51.9933 C   0  0  0  0  0  0  0  0  0  0  0  0
   21.3861   10.9456   53.2271 C   0  0  0  0  0  0  0  0  0  0  0  0
   21.1434   10.3310   54.5738 C   0  0  0  0  0  0  0  0  0  0  0  0
   20.8457    8.8652   54.6866 C   0  0  0  0  0  0  0  0  0  0  0  0
   22.8017    6.4323   54.7438 C   0  0  0  0  0  0  0  0  0  0  0  0
   22.0737    6.4123   56.0552 O   0  0  0  0  0  0  0  0  0  0  0  0
   22.1959    5.7744   53.5395 N   0  0  0  0  0  0  0  0  0  0  0  0
   23.0550    5.8883   52.3152 H   0  0  0  0  0  0  0  0  0  0  0  0
   26.8029    8.4662   54.4225 C   0  0  0  0  0  0  0  0  0  0  0  0
   25.7691    8.9909   55.3744 C   0  0  0  0  0  0  0  0  0  0  0  0
   24.4354    8.3130   55.4815 C   0  0  0  0  0  0  0  0  0  0  0  0
   24.1355    7.1103   54.6367 C   0  0  0  0  0  0  0  0  0  0  0  0
   25.1692    6.5856   53.6849 C   0  0  0  0  0  0  0  0  0  0  0  0
   26.5029    7.2636   53.5777 C   0  0  0  0  0  0  0  0  0  0  0  0
   29.4704    9.8221   54.2082 F   0  0  0  0  0  0  0  0  0  0  0  0
   28.1367    9.1442   54.3154 C   0  0  0  0  0  0  0  0  0  0  0  0
   27.9979    9.1814   52.8222 F   0  0  0  0  0  0  0  0  0  0  0  0
   28.2755    9.1071   55.8085 F   0  0  0  0  0  0  0  0  0  0  0  0
 26 27  1  0  0  0
 27 28  1  0  0  0
 27 29  1  0  0  0
 27 20  1  0  0  0
 20 21  2  0  0  0
 21 22  1  0  0  0
 22 23  2  0  0  0
 23 24  1  0  0  0
 24 25  2  0  0  0
 23 16  1  0  0  0
 16 17  2  0  0  0
 16 18  1  0  0  0
 18  1  1  0  0  0
  1  2  1  0  0  0
  2  3  1  0  0  0
  3  4  1  0  0  0
  4  5  1  0  0  0
  5  6  1  0  0  0
  6  7  1  0  0  0
  7 10  1  0  0  0
 10 11  2  0  0  0
 11 12  1  0  0  0
 12 13  2  0  0  0
 13 14  1  0  0  0
 14 15  2  0  0  0
  5  8  1  0  0  0
  8  9  1  0  0  0
 25 20  1  0  0  0
  7  1  1  0  0  0
 15 10  1  0  0  0
  9  3  1  0  0  0
  8  4  1  0  0  0
 18 19  1  0  0  0
M  END
> <minimizedAffinity>
19.19742

> <CNNscore>
0.5569180846

> <CNNaffinity>
6.3288164139

> <CNN_VS>
3.5246322155

> <CNNaffinity_variance>
0.6058672071

$$$$
[H]c1c([H])c([H])c([C@]2([H])C([H])([H])[C@]3([H])N4C([H])([H])[C@@]([H])(C([H])([H])[C@]2([H])N([H])C(=O)c2c([H])c([H])c(C(F)(F)F)c([H])c2[H])[C@@]43[H])c([H])c1[H]


 29 33  0  0  0  0  0  0  0  0999 V2000
   20.8617    5.0952   53.6461 C   0  0  0  0  0  0  0  0  0  0  0  0
   19.9560    3.9058   53.7684 C   0  0  0  0  0  0  0  0  0  0  0  0
   18.4579    3.8743   53.8384 C   0  0  0  0  0  0  0  0  0  0  0  0
   17.4957    5.0245   53.8035 C   0  0  0  0  0  0  0  0  0  0  0  0
   17.7937    6.4901   53.6900 C   0  0  0  0  0  0  0  0  0  0  0  0
   19.1277    7.1677   53.5833 C   0  0  0  0  0  0  0  0  0  0  0  0
   20.4931    6.5469   53.5638 C   0  0  0  0  0  0  0  0  0  0  0  0
   16.3729    6.0190   53.7866 N   0  0  0  0  0  0  0  0  0  0  0  0
   16.9596    3.8988   53.9047 C   0  0  0  0  0  0  0  0  0  0  0  0
   20.7911    8.0127   53.4502 C   0  0  0  0  0  0  0  0  0  0  0  0
   20.8442    8.8649   54.6835 C   0  0  0  0  0  0  0  0  0  0  0  0
   21.1422   10.3306   54.5700 C   0  0  0  0  0  0  0  0  0  0  0  0
   21.3872   10.9440   53.2233 C   0  0  0  0  0  0  0  0  0  0  0  0
   21.3341   10.0918   51.9901 C   0  0  0  0  0  0  0  0  0  0  0  0
   21.0360    8.6261   52.1035 C   0  0  0  0  0  0  0  0  0  0  0  0
   22.8001    6.4327   54.7433 C   0  0  0  0  0  0  0  0  0  0  0  0
   22.0706    6.4149   56.0539 O   0  0  0  0  0  0  0  0  0  0  0  0
   22.1957    5.7729   53.5394 N   0  0  0  0  0  0  0  0  0  0  0  0
   23.0562    5.8847   52.3159 H   0  0  0  0  0  0  0  0  0  0  0  0
   26.8020    8.4654   54.4232 C   0  0  0  0  0  0  0  0  0  0  0  0
   26.5037    7.2599   53.5819 C   0  0  0  0  0  0  0  0  0  0  0  0
   25.1698    6.5823   53.6886 C   0  0  0  0  0  0  0  0  0  0  0  0
   24.1341    7.1103   54.6366 C   0  0  0  0  0  0  0  0  0  0  0  0
   24.4324    8.3158   55.4779 C   0  0  0  0  0  0  0  0  0  0  0  0
   25.7664    8.9934   55.3712 C   0  0  0  0  0  0  0  0  0  0  0  0
   29.4699    9.8206   54.2097 F   0  0  0  0  0  0  0  0  0  0  0  0
   28.1360    9.1431   54.3165 C   0  0  0  0  0  0  0  0  0  0  0  0
   27.9990    9.1776   52.8231 F   0  0  0  0  0  0  0  0  0  0  0  0
   28.2730    9.1085   55.8098 F   0  0  0  0  0  0  0  0  0  0  0  0
 26 27  1  0  0  0
 27 28  1  0  0  0
 27 29  1  0  0  0
 27 20  1  0  0  0
 20 21  2  0  0  0
 21 22  1  0  0  0
 22 23  2  0  0  0
 23 24  1  0  0  0
 24 25  2  0  0  0
 23 16  1  0  0  0
 16 17  2  0  0  0
 16 18  1  0  0  0
 18  1  1  0  0  0
  1  2  1  0  0  0
  2  3  1  0  0  0
  3  4  1  0  0  0
  4  5  1  0  0  0
  5  6  1  0  0  0
  6  7  1  0  0  0
  7 10  1  0  0  0
 10 11  2  0  0  0
 11 12  1  0  0  0
 12 13  2  0  0  0
 13 14  1  0  0  0
 14 15  2  0  0  0
  5  8  1  0  0  0
  8  9  1  0  0  0
 25 20  1  0  0  0
  7  1  1  0  0  0
 15 10  1  0  0  0
  9  3  1  0  0  0
  8  4  1  0  0  0
 18 19  1  0  0  0
M  END
> <minimizedAffinity>
19.17764

> <CNNscore>
0.5568342805

> <CNNaffinity>
6.3295545578

> <CNN_VS>
3.5245130062

> <CNNaffinity_variance>
0.6051840782

$$$$
[H]c1c([H])c([H])c([C@]2([H])C([H])([H])[C@]3([H])N4C([H])([H])[C@@]([H])(C([H])([H])[C@]2([H])N([H])C(=O)c2c([H])c([H])c(C(F)(F)F)c([H])c2[H])[C@@]43[H])c([H])c1[H]


 29 33  0  0  0  0  0  0  0  0999 V2000
   20.8641    5.0978   53.6457 C   0  0  0  0  0  0  0  0  0  0  0  0
   19.9586    3.9084   53.7695 C   0  0  0  0  0  0  0  0  0  0  0  0
   18.4605    3.8768   53.8395 C   0  0  0  0  0  0  0  0  0  0  0  0
   17.4981    5.0267   53.8029 C   0  0  0  0  0  0  0  0  0  0  0  0
   17.7959    6.4923   53.6874 C   0  0  0  0  0  0  0  0  0  0  0  0
   19.1298    7.1699   53.5799 C   0  0  0  0  0  0  0  0  0  0  0  0
   20.4953    6.5493   53.5613 C   0  0  0  0  0  0  0  0  0  0  0  0
   16.3752    6.0210   53.7845 N   0  0  0  0  0  0  0  0  0  0  0  0
   16.9622    3.9011   53.9056 C   0  0  0  0  0  0  0  0  0  0  0  0
   20.7931    8.0149   53.4458 C   0  0  0  0  0  0  0  0  0  0  0  0
   21.0351    8.6271   52.0979 C   0  0  0  0  0  0  0  0  0  0  0  0
   21.3329   10.0926   51.9823 C   0  0  0  0  0  0  0  0  0  0  0  0
   21.3887   10.9460   53.2146 C   0  0  0  0  0  0  0  0  0  0  0  0
   21.1467   10.3339   54.5625 C   0  0  0  0  0  0  0  0  0  0  0  0
   20.8489    8.8683   54.6780 C   0  0  0  0  0  0  0  0  0  0  0  0
   22.8026    6.4363   54.7414 C   0  0  0  0  0  0  0  0  0  0  0  0
   22.0734    6.4194   56.0521 O   0  0  0  0  0  0  0  0  0  0  0  0
   22.1980    5.7755   53.5381 N   0  0  0  0  0  0  0  0  0  0  0  0
   23.0582    5.8864   52.3143 H   0  0  0  0  0  0  0  0  0  0  0  0
   26.8042    8.4692   54.4187 C   0  0  0  0  0  0  0  0  0  0  0  0
   26.5047    7.2650   53.5761 C   0  0  0  0  0  0  0  0  0  0  0  0
   25.1708    6.5873   53.6836 C   0  0  0  0  0  0  0  0  0  0  0  0
   24.1366    7.1140   54.6339 C   0  0  0  0  0  0  0  0  0  0  0  0
   24.4361    8.3182   55.4765 C   0  0  0  0  0  0  0  0  0  0  0  0
   25.7700    8.9958   55.3690 C   0  0  0  0  0  0  0  0  0  0  0  0
   29.4720    9.8245   54.2038 F   0  0  0  0  0  0  0  0  0  0  0  0
   28.1382    9.1469   54.3112 C   0  0  0  0  0  0  0  0  0  0  0  0
   28.2742    9.1161   55.8048 F   0  0  0  0  0  0  0  0  0  0  0  0
   28.0021    9.1777   52.8177 F   0  0  0  0  0  0  0  0  0  0  0  0
 26 27  1  0  0  0
 27 28  1  0  0  0
 27 29  1  0  0  0
 27 20  1  0  0  0
 20 21  2  0  0  0
 21 22  1  0  0  0
 22 23  2  0  0  0
 23 24  1  0  0  0
 24 25  2  0  0  0
 23 16  1  0  0  0
 16 17  2  0  0  0
 16 18  1  0  0  0
 18  1  1  0  0  0
  1  2  1  0  0  0
  2  3  1  0  0  0
  3  4  1  0  0  0
  4  5  1  0  0  0
  5  6  1  0  0  0
  6  7  1  0  0  0
  7 10  1  0  0  0
 10 11  2  0  0  0
 11 12  1  0  0  0
 12 13  2  0  0  0
 13 14  1  0  0  0
 14 15  2  0  0  0
  5  8  1  0  0  0
  8  9  1  0  0  0
 25 20  1  0  0  0
  7  1  1  0  0  0
 15 10  1  0  0  0
  9  3  1  0  0  0
  8  4  1  0  0  0
 18 19  1  0  0  0
M  END
> <minimizedAffinity>
19.14707

> <CNNscore>
0.5564906597

> <CNNaffinity>
6.3293542862

> <CNN_VS>
3.5222265720

> <CNNaffinity_variance>
0.6048716307

$$$$
[H]c1c([H])c([H])c([C@]2([H])C([H])([H])[C@]3([H])N4C([H])([H])[C@@]([H])(C([H])([H])[C@]2([H])N([H])C(=O)c2c([H])c([H])c(C(F)(F)F)c([H])c2[H])[C@@]43[H])c([H])c1[H]


 29 33  0  0  0  0  0  0  0  0999 V2000
   19.5818    5.2946   53.1069 C   0  0  0  0  0  0  0  0  0  0  0  0
   18.7003    4.0912   52.9494 C   0  0  0  0  0  0  0  0  0  0  0  0
   19.0780    2.6408   53.0116 C   0  0  0  0  0  0  0  0  0  0  0  0
   20.4303    2.0357   53.2464 C   0  0  0  0  0  0  0  0  0  0  0  0
   21.7389    2.7315   53.4772 C   0  0  0  0  0  0  0  0  0  0  0  0
   22.0185    4.2042   53.5301 C   0  0  0  0  0  0  0  0  0  0  0  0
   21.0585    5.3450   53.3653 C   0  0  0  0  0  0  0  0  0  0  0  0
   21.6787    1.2328   53.4626 N   0  0  0  0  0  0  0  0  0  0  0  0
   19.5087    1.2058   53.0830 C   0  0  0  0  0  0  0  0  0  0  0  0
   22.3672    6.0408   53.5961 C   0  0  0  0  0  0  0  0  0  0  0  0
   22.5064    7.0225   54.7216 C   0  0  0  0  0  0  0  0  0  0  0  0
   23.8150    7.7182   54.9525 C   0  0  0  0  0  0  0  0  0  0  0  0
   24.9845    7.4323   54.0577 C   0  0  0  0  0  0  0  0  0  0  0  0
   24.8453    6.4506   52.9322 C   0  0  0  0  0  0  0  0  0  0  0  0
   23.5367    5.7548   52.7014 C   0  0  0  0  0  0  0  0  0  0  0  0
   20.5282    7.4463   52.0002 C   0  0  0  0  0  0  0  0  0  0  0  0
   20.9154    6.6525   50.7879 O   0  0  0  0  0  0  0  0  0  0  0  0
   19.8614    6.7675   53.1598 N   0  0  0  0  0  0  0  0  0  0  0  0
   19.5437    7.7068   54.2853 H   0  0  0  0  0  0  0  0  0  0  0  0
   21.3671   11.8645   52.1590 C   0  0  0  0  0  0  0  0  0  0  0  0
   21.4539   11.0393   53.4086 C   0  0  0  0  0  0  0  0  0  0  0  0
   21.1743    9.5666   53.3557 C   0  0  0  0  0  0  0  0  0  0  0  0
   20.8079    8.9191   52.0532 C   0  0  0  0  0  0  0  0  0  0  0  0
   20.7211    9.7444   50.8036 C   0  0  0  0  0  0  0  0  0  0  0  0
   21.0007   11.2171   50.8565 C   0  0  0  0  0  0  0  0  0  0  0  0
   21.9263   14.8101   52.2649 F   0  0  0  0  0  0  0  0  0  0  0  0
   21.6468   13.3373   52.2120 C   0  0  0  0  0  0  0  0  0  0  0  0
   20.5470   13.5100   53.2173 F   0  0  0  0  0  0  0  0  0  0  0  0
   22.7465   13.1646   51.2067 F   0  0  0  0  0  0  0  0  0  0  0  0
 26 27  1  0  0  0
 27 28  1  0  0  0
 27 29  1  0  0  0
 27 20  1  0  0  0
 20 21  2  0  0  0
 21 22  1  0  0  0
 22 23  2  0  0  0
 23 24  1  0  0  0
 24 25  2  0  0  0
 23 16  1  0  0  0
 16 17  2  0  0  0
 16 18  1  0  0  0
 18  1  1  0  0  0
  1  2  1  0  0  0
  2  3  1  0  0  0
  3  4  1  0  0  0
  4  5  1  0  0  0
  5  6  1  0  0  0
  6  7  1  0  0  0
  7 10  1  0  0  0
 10 11  2  0  0  0
 11 12  1  0  0  0
 12 13  2  0  0  0
 13 14  1  0  0  0
 14 15  2  0  0  0
  5  8  1  0  0  0
  8  9  1  0  0  0
 25 20  1  0  0  0
  7  1  1  0  0  0
 15 10  1  0  0  0
  9  3  1  0  0  0
  8  4  1  0  0  0
 18 19  1  0  0  0
M  END
> <minimizedAffinity>
51.82064

> <CNNscore>
0.4540453255

> <CNNaffinity>
5.9521112442

> <CNN_VS>
2.7025282383

> <CNNaffinity_variance>
0.3301136494

$$$$
[H]c1c([H])c([H])c([C@]2([H])C([H])([H])[C@]3([H])N4C([H])([H])[C@@]([H])(C([H])([H])[C@]2([H])N([H])C(=O)c2c([H])c([H])c(C(F)(F)F)c([H])c2[H])[C@@]43[H])c([H])c1[H]


 29 33  0  0  0  0  0  0  0  0999 V2000
   25.1117    6.6618   53.5359 C   0  0  0  0  0  0  0  0  0  0  0  0
   26.5685    6.3086   53.4802 C   0  0  0  0  0  0  0  0  0  0  0  0
   27.7444    7.1134   53.9490 C   0  0  0  0  0  0  0  0  0  0  0  0
   27.7540    8.4698   54.5892 C   0  0  0  0  0  0  0  0  0  0  0  0
   26.5900    9.3567   54.9187 C   0  0  0  0  0  0  0  0  0  0  0  0
   25.1290    9.1061   54.6895 C   0  0  0  0  0  0  0  0  0  0  0  0
   24.4711    7.9068   54.0741 C   0  0  0  0  0  0  0  0  0  0  0  0
   27.9865    9.8033   55.2355 N   0  0  0  0  0  0  0  0  0  0  0  0
   28.8849    7.9583   54.4341 C   0  0  0  0  0  0  0  0  0  0  0  0
   23.3071    8.7937   54.4036 C   0  0  0  0  0  0  0  0  0  0  0  0
   22.4313    9.3206   53.3058 C   0  0  0  0  0  0  0  0  0  0  0  0
   21.2673   10.2075   53.6353 C   0  0  0  0  0  0  0  0  0  0  0  0
   20.9792   10.5674   55.0626 C   0  0  0  0  0  0  0  0  0  0  0  0
   21.8550   10.0405   56.1605 C   0  0  0  0  0  0  0  0  0  0  0  0
   23.0189    9.1536   55.8310 C   0  0  0  0  0  0  0  0  0  0  0  0
   22.8138    5.8062   54.3946 C   0  0  0  0  0  0  0  0  0  0  0  0
   23.4379    5.4517   55.7117 O   0  0  0  0  0  0  0  0  0  0  0  0
   23.6506    6.4112   53.3067 N   0  0  0  0  0  0  0  0  0  0  0  0
   22.8694    6.7028   52.0598 H   0  0  0  0  0  0  0  0  0  0  0  0
   18.4307    5.0544   53.7069 C   0  0  0  0  0  0  0  0  0  0  0  0
   19.3547    3.9051   53.9812 C   0  0  0  0  0  0  0  0  0  0  0  0
   20.8157    4.1557   54.2105 C   0  0  0  0  0  0  0  0  0  0  0  0
   21.3527    5.5556   54.1654 C   0  0  0  0  0  0  0  0  0  0  0  0
   20.4286    6.7049   53.8910 C   0  0  0  0  0  0  0  0  0  0  0  0
   18.9676    6.4543   53.6618 C   0  0  0  0  0  0  0  0  0  0  0  0
   15.5086    4.5532   53.2484 F   0  0  0  0  0  0  0  0  0  0  0  0
   16.9696    4.8038   53.4776 C   0  0  0  0  0  0  0  0  0  0  0  0
   17.2469    3.3391   53.3110 F   0  0  0  0  0  0  0  0  0  0  0  0
   16.6922    6.2685   53.6443 F   0  0  0  0  0  0  0  0  0  0  0  0
 26 27  1  0  0  0
 27 28  1  0  0  0
 27 29  1  0  0  0
 27 20  1  0  0  0
 20 21  2  0  0  0
 21 22  1  0  0  0
 22 23  2  0  0  0
 23 24  1  0  0  0
 24 25  2  0  0  0
 23 16  1  0  0  0
 16 17  2  0  0  0
 16 18  1  0  0  0
 18  1  1  0  0  0
  1  2  1  0  0  0
  2  3  1  0  0  0
  3  4  1  0  0  0
  4  5  1  0  0  0
  5  6  1  0  0  0
  6  7  1  0  0  0
  7 10  1  0  0  0
 10 11  2  0  0  0
 11 12  1  0  0  0
 12 13  2  0  0  0
 13 14  1  0  0  0
 14 15  2  0  0  0
  5  8  1  0  0  0
  8  9  1  0  0  0
 25 20  1  0  0  0
  7  1  1  0  0  0
 15 10  1  0  0  0
  9  3  1  0  0  0
  8  4  1  0  0  0
 18 19  1  0  0  0
M  END
> <minimizedAffinity>
30.74603

> <CNNscore>
0.4272692204

> <CNNaffinity>
5.8131260872

> <CNN_VS>
2.4837698936

> <CNNaffinity_variance>
0.4493302405

$$$$
[H]c1c([H])c([H])c([C@]2([H])C([H])([H])[C@]3([H])N4C([H])([H])[C@@]([H])(C([H])([H])[C@]2([H])N([H])C(=O)c2c([H])c([H])c(C(F)(F)F)c([H])c2[H])[C@@]43[H])c([H])c1[H]


 29 33  0  0  0  0  0  0  0  0999 V2000
   25.0540    6.6347   53.5027 C   0  0  0  0  0  0  0  0  0  0  0  0
   26.5099    6.2780   53.4468 C   0  0  0  0  0  0  0  0  0  0  0  0
   27.6885    7.0840   53.9066 C   0  0  0  0  0  0  0  0  0  0  0  0
   27.7023    8.4456   54.5358 C   0  0  0  0  0  0  0  0  0  0  0  0
   26.5409    9.3375   54.8607 C   0  0  0  0  0  0  0  0  0  0  0  0
   25.0788    9.0882   54.6366 C   0  0  0  0  0  0  0  0  0  0  0  0
   24.4171    7.8853   54.0322 C   0  0  0  0  0  0  0  0  0  0  0  0
   27.9390    9.7837   55.1708 N   0  0  0  0  0  0  0  0  0  0  0  0
   28.8318    7.9304   54.3824 C   0  0  0  0  0  0  0  0  0  0  0  0
   23.2557    8.7772   54.3572 C   0  0  0  0  0  0  0  0  0  0  0  0
   22.4009    9.3272   53.2541 C   0  0  0  0  0  0  0  0  0  0  0  0
   21.2395   10.2192   53.5789 C   0  0  0  0  0  0  0  0  0  0  0  0
   20.9329   10.5611   55.0069 C   0  0  0  0  0  0  0  0  0  0  0  0
   21.7877   10.0111   56.1099 C   0  0  0  0  0  0  0  0  0  0  0  0
   22.9491    9.1192   55.7851 C   0  0  0  0  0  0  0  0  0  0  0  0
   22.7520    5.8092   54.3798 C   0  0  0  0  0  0  0  0  0  0  0  0
   23.3741    5.4824   55.7050 O   0  0  0  0  0  0  0  0  0  0  0  0
   23.5919    6.3853   53.2786 N   0  0  0  0  0  0  0  0  0  0  0  0
   22.8125    6.6516   52.0250 H   0  0  0  0  0  0  0  0  0  0  0  0
   18.3658    5.0613   53.7076 C   0  0  0  0  0  0  0  0  0  0  0  0
   18.9001    6.4627   53.6831 C   0  0  0  0  0  0  0  0  0  0  0  0
   20.3621    6.7120   53.9071 C   0  0  0  0  0  0  0  0  0  0  0  0
   21.2899    5.5599   54.1557 C   0  0  0  0  0  0  0  0  0  0  0  0
   20.7556    4.1585   54.1802 C   0  0  0  0  0  0  0  0  0  0  0  0
   19.2936    3.9091   53.9561 C   0  0  0  0  0  0  0  0  0  0  0  0
   15.4417    4.5627   53.2594 F   0  0  0  0  0  0  0  0  0  0  0  0
   16.9037    4.8120   53.4835 C   0  0  0  0  0  0  0  0  0  0  0  0
   16.6271    6.2758   53.6591 F   0  0  0  0  0  0  0  0  0  0  0  0
   17.1803    3.3482   53.3078 F   0  0  0  0  0  0  0  0  0  0  0  0
 26 27  1  0  0  0
 27 28  1  0  0  0
 27 29  1  0  0  0
 27 20  1  0  0  0
 20 21  2  0  0  0
 21 22  1  0  0  0
 22 23  2  0  0  0
 23 24  1  0  0  0
 24 25  2  0  0  0
 23 16  1  0  0  0
 16 17  2  0  0  0
 16 18  1  0  0  0
 18  1  1  0  0  0
  1  2  1  0  0  0
  2  3  1  0  0  0
  3  4  1  0  0  0
  4  5  1  0  0  0
  5  6  1  0  0  0
  6  7  1  0  0  0
  7 10  1  0  0  0
 10 11  2  0  0  0
 11 12  1  0  0  0
 12 13  2  0  0  0
 13 14  1  0  0  0
 14 15  2  0  0  0
  5  8  1  0  0  0
  8  9  1  0  0  0
 25 20  1  0  0  0
  7  1  1  0  0  0
 15 10  1  0  0  0
  9  3  1  0  0  0
  8  4  1  0  0  0
 18 19  1  0  0  0
M  END
> <minimizedAffinity>
30.80601

> <CNNscore>
0.4266607165

> <CNNaffinity>
5.8173441887

> <CNN_VS>
2.4820322990

> <CNNaffinity_variance>
0.4502682686

$$$$
[H]c1c([H])c([H])c([C@]2([H])C([H])([H])[C@]3([H])N4C([H])([H])[C@@]([H])(C([H])([H])[C@]2([H])N([H])C(=O)c2c([H])c([H])c(C(F)(F)F)c([H])c2[H])[C@@]43[H])c([H])c1[H]


 29 33  0  0  0  0  0  0  0  0999 V2000
   24.6053    6.5276   54.6497 C   0  0  0  0  0  0  0  0  0  0  0  0
   24.6853    5.4363   55.6756 C   0  0  0  0  0  0  0  0  0  0  0  0
   23.6371    4.9924   56.6525 C   0  0  0  0  0  0  0  0  0  0  0  0
   22.2501    5.5302   56.8447 C   0  0  0  0  0  0  0  0  0  0  0  0
   21.5687    6.6447   56.1075 C   0  0  0  0  0  0  0  0  0  0  0  0
   22.1059    7.4967   54.9960 C   0  0  0  0  0  0  0  0  0  0  0  0
   23.4574    7.4446   54.3472 C   0  0  0  0  0  0  0  0  0  0  0  0
   20.8436    5.9134   57.1982 N   0  0  0  0  0  0  0  0  0  0  0  0
   22.5547    4.5878   57.6088 C   0  0  0  0  0  0  0  0  0  0  0  0
   22.7759    8.5591   53.6100 C   0  0  0  0  0  0  0  0  0  0  0  0
   22.6171    9.9015   54.2602 C   0  0  0  0  0  0  0  0  0  0  0  0
   21.9357   11.0160   53.5230 C   0  0  0  0  0  0  0  0  0  0  0  0
   21.4130   10.7881   52.1357 C   0  0  0  0  0  0  0  0  0  0  0  0
   21.5717    9.4457   51.4855 C   0  0  0  0  0  0  0  0  0  0  0  0
   22.2532    8.3312   52.2226 C   0  0  0  0  0  0  0  0  0  0  0  0
   26.5875    7.7826   53.5333 C   0  0  0  0  0  0  0  0  0  0  0  0
   27.4950    7.3335   54.6400 O   0  0  0  0  0  0  0  0  0  0  0  0
   25.1426    7.3797   53.5382 N   0  0  0  0  0  0  0  0  0  0  0  0
   24.3812    7.9137   52.3612 H   0  0  0  0  0  0  0  0  0  0  0  0
   28.1992   10.3386   50.1989 C   0  0  0  0  0  0  0  0  0  0  0  0
   28.5763   10.6347   51.6202 C   0  0  0  0  0  0  0  0  0  0  0  0
   28.0390    9.7827   52.7317 C   0  0  0  0  0  0  0  0  0  0  0  0
   27.1247    8.6346   52.4218 C   0  0  0  0  0  0  0  0  0  0  0  0
   26.7477    8.3386   51.0005 C   0  0  0  0  0  0  0  0  0  0  0  0
   27.2849    9.1905   49.8890 C   0  0  0  0  0  0  0  0  0  0  0  0
   29.2738   12.0427   47.9759 F   0  0  0  0  0  0  0  0  0  0  0  0
   28.7365   11.1906   49.0874 C   0  0  0  0  0  0  0  0  0  0  0  0
   29.4578   12.0429   50.0892 F   0  0  0  0  0  0  0  0  0  0  0  0
   28.0153   10.3385   48.0856 F   0  0  0  0  0  0  0  0  0  0  0  0
 26 27  1  0  0  0
 27 28  1  0  0  0
 27 29  1  0  0  0
 27 20  1  0  0  0
 20 21  2  0  0  0
 21 22  1  0  0  0
 22 23  2  0  0  0
 23 24  1  0  0  0
 24 25  2  0  0  0
 23 16  1  0  0  0
 16 17  2  0  0  0
 16 18  1  0  0  0
 18  1  1  0  0  0
  1  2  1  0  0  0
  2  3  1  0  0  0
  3  4  1  0  0  0
  4  5  1  0  0  0
  5  6  1  0  0  0
  6  7  1  0  0  0
  7 10  1  0  0  0
 10 11  2  0  0  0
 11 12  1  0  0  0
 12 13  2  0  0  0
 13 14  1  0  0  0
 14 15  2  0  0  0
  5  8  1  0  0  0
  8  9  1  0  0  0
 25 20  1  0  0  0
  7  1  1  0  0  0
 15 10  1  0  0  0
  9  3  1  0  0  0
  8  4  1  0  0  0
 18 19  1  0  0  0
M  END
> <minimizedAffinity>
48.88591

> <CNNscore>
0.3958171308

> <CNNaffinity>
5.5009832382

> <CNN_VS>
2.1773834229

> <CNNaffinity_variance>
0.5044000745

$$$$
[H]c1c([H])c([H])c([C@]2([H])C([H])([H])[C@]3([H])N4C([H])([H])[C@@]([H])(C([H])([H])[C@]2([H])N([H])C(=O)c2c([H])c([H])c(C(F)(F)F)c([H])c2[H])[C@@]43[H])c([H])c1[H]


 29 33  0  0  0  0  0  0  0  0999 V2000
   22.5194    5.1623   53.2003 C   0  0  0  0  0  0  0  0  0  0  0  0
   22.0270    3.7570   53.0193 C   0  0  0  0  0  0  0  0  0  0  0  0
   22.8226    2.4863   52.9710 C   0  0  0  0  0  0  0  0  0  0  0  0
   24.3069    2.3070   53.0916 C   0  0  0  0  0  0  0  0  0  0  0  0
   25.3623    3.3541   53.2904 C   0  0  0  0  0  0  0  0  0  0  0  0
   25.1941    4.8392   53.4176 C   0  0  0  0  0  0  0  0  0  0  0  0
   23.9288    5.6439   53.3775 C   0  0  0  0  0  0  0  0  0  0  0  0
   25.7499    1.9087   53.1873 N   0  0  0  0  0  0  0  0  0  0  0  0
   23.6648    1.2457   52.9298 C   0  0  0  0  0  0  0  0  0  0  0  0
   24.9843    6.6911   53.5763 C   0  0  0  0  0  0  0  0  0  0  0  0
   25.4156    7.5494   52.4243 C   0  0  0  0  0  0  0  0  0  0  0  0
   26.4710    8.5965   52.6230 C   0  0  0  0  0  0  0  0  0  0  0  0
   27.0952    8.7853   53.9738 C   0  0  0  0  0  0  0  0  0  0  0  0
   26.6639    7.9270   55.1259 C   0  0  0  0  0  0  0  0  0  0  0  0
   25.6085    6.8798   54.9271 C   0  0  0  0  0  0  0  0  0  0  0  0
   21.4673    7.3871   52.3674 C   0  0  0  0  0  0  0  0  0  0  0  0
   20.7518    6.6416   51.2801 O   0  0  0  0  0  0  0  0  0  0  0  0
   22.3511    6.6474   53.3276 N   0  0  0  0  0  0  0  0  0  0  0  0
   22.9873    7.5438   54.3482 H   0  0  0  0  0  0  0  0  0  0  0  0
   20.9627   11.8423   52.7493 C   0  0  0  0  0  0  0  0  0  0  0  0
   21.0003   10.9837   53.9786 C   0  0  0  0  0  0  0  0  0  0  0  0
   21.1685    9.4986   53.8514 C   0  0  0  0  0  0  0  0  0  0  0  0
   21.2991    8.8722   52.4947 C   0  0  0  0  0  0  0  0  0  0  0  0
   21.2615    9.7308   51.2653 C   0  0  0  0  0  0  0  0  0  0  0  0
   21.0933   11.2159   51.3926 C   0  0  0  0  0  0  0  0  0  0  0  0
   20.6263   14.8125   53.0037 F   0  0  0  0  0  0  0  0  0  0  0  0
   20.7945   13.3275   52.8765 C   0  0  0  0  0  0  0  0  0  0  0  0
   21.5834   13.5248   51.6161 F   0  0  0  0  0  0  0  0  0  0  0  0
   20.0056   13.1301   54.1369 F   0  0  0  0  0  0  0  0  0  0  0  0
 26 27  1  0  0  0
 27 28  1  0  0  0
 27 29  1  0  0  0
 27 20  1  0  0  0
 20 21  2  0  0  0
 21 22  1  0  0  0
 22 23  2  0  0  0
 23 24  1  0  0  0
 24 25  2  0  0  0
 23 16  1  0  0  0
 16 17  2  0  0  0
 16 18  1  0  0  0
 18  1  1  0  0  0
  1  2  1  0  0  0
  2  3  1  0  0  0
  3  4  1  0  0  0
  4  5  1  0  0  0
  5  6  1  0  0  0
  6  7  1  0  0  0
  7 10  1  0  0  0
 10 11  2  0  0  0
 11 12  1  0  0  0
 12 13  2  0  0  0
 13 14  1  0  0  0
 14 15  2  0  0  0
  5  8  1  0  0  0
  8  9  1  0  0  0
 25 20  1  0  0  0
  7  1  1  0  0  0
 15 10  1  0  0  0
  9  3  1  0  0  0
  8  4  1  0  0  0
 18 19  1  0  0  0
M  END
> <minimizedAffinity>
63.83636

> <CNNscore>
0.3808592558

> <CNNaffinity>
5.6219573021

> <CNN_VS>
2.1411745548

> <CNNaffinity_variance>
0.6652526855

$$$$
[H]c1c([H])c([H])c([C@]2([H])C([H])([H])[C@]3([H])N4C([H])([H])[C@@]([H])(C([H])([H])[C@]2([H])N([H])C(=O)c2c([H])c([H])c(C(F)(F)F)c([H])c2[H])[C@@]43[H])c([H])c1[H]


 29 33  0  0  0  0  0  0  0  0999 V2000
   19.0601    6.2844   53.0641 C   0  0  0  0  0  0  0  0  0  0  0  0
   17.9154    5.3591   53.3526 C   0  0  0  0  0  0  0  0  0  0  0  0
   17.9286    4.0611   54.1044 C   0  0  0  0  0  0  0  0  0  0  0  0
   19.0899    3.3679   54.7531 C   0  0  0  0  0  0  0  0  0  0  0  0
   20.5247    3.8014   54.8104 C   0  0  0  0  0  0  0  0  0  0  0  0
   21.1527    5.0352   54.2331 C   0  0  0  0  0  0  0  0  0  0  0  0
   20.5008    6.1403   53.4559 C   0  0  0  0  0  0  0  0  0  0  0  0
   20.1027    2.5173   55.4608 N   0  0  0  0  0  0  0  0  0  0  0  0
   17.9970    2.7696   54.8641 C   0  0  0  0  0  0  0  0  0  0  0  0
   21.9357    6.5738   53.5132 C   0  0  0  0  0  0  0  0  0  0  0  0
   22.5206    7.3812   52.3924 C   0  0  0  0  0  0  0  0  0  0  0  0
   23.9554    7.8147   52.4497 C   0  0  0  0  0  0  0  0  0  0  0  0
   24.8054    7.4409   53.6277 C   0  0  0  0  0  0  0  0  0  0  0  0
   24.2205    6.6335   54.7484 C   0  0  0  0  0  0  0  0  0  0  0  0
   22.7857    6.1999   54.6911 C   0  0  0  0  0  0  0  0  0  0  0  0
   20.1588    8.6154   53.3950 C   0  0  0  0  0  0  0  0  0  0  0  0
   20.0015    8.4787   54.8804 O   0  0  0  0  0  0  0  0  0  0  0  0
   19.6881    7.5183   52.4867 N   0  0  0  0  0  0  0  0  0  0  0  0
   19.9216    7.8180   51.0356 H   0  0  0  0  0  0  0  0  0  0  0  0
   22.0427   12.3169   51.6630 C   0  0  0  0  0  0  0  0  0  0  0  0
   21.3475   11.3382   50.7637 C   0  0  0  0  0  0  0  0  0  0  0  0
   20.7195   10.1043   51.3410 C   0  0  0  0  0  0  0  0  0  0  0  0
   20.7868    9.8493   52.8176 C   0  0  0  0  0  0  0  0  0  0  0  0
   21.4820   10.8281   53.7169 C   0  0  0  0  0  0  0  0  0  0  0  0
   22.1099   12.0619   53.1396 C   0  0  0  0  0  0  0  0  0  0  0  0
   23.2985   14.7846   50.5084 F   0  0  0  0  0  0  0  0  0  0  0  0
   22.6707   13.5508   51.0856 C   0  0  0  0  0  0  0  0  0  0  0  0
   21.3218   14.2029   51.0121 F   0  0  0  0  0  0  0  0  0  0  0  0
   24.0194   12.8987   51.1592 F   0  0  0  0  0  0  0  0  0  0  0  0
 26 27  1  0  0  0
 27 28  1  0  0  0
 27 29  1  0  0  0
 27 20  1  0  0  0
 20 21  2  0  0  0
 21 22  1  0  0  0
 22 23  2  0  0  0
 23 24  1  0  0  0
 24 25  2  0  0  0
 23 16  1  0  0  0
 16 17  2  0  0  0
 16 18  1  0  0  0
 18  1  1  0  0  0
  1  2  1  0  0  0
  2  3  1  0  0  0
  3  4  1  0  0  0
  4  5  1  0  0  0
  5  6  1  0  0  0
  6  7  1  0  0  0
  7 10  1  0  0  0
 10 11  2  0  0  0
 11 12  1  0  0  0
 12 13  2  0  0  0
 13 14  1  0  0  0
 14 15  2  0  0  0
  5  8  1  0  0  0
  8  9  1  0  0  0
 25 20  1  0  0  0
  7  1  1  0  0  0
 15 10  1  0  0  0
  9  3  1  0  0  0
  8  4  1  0  0  0
 18 19  1  0  0  0
M  END
> <minimizedAffinity>
50.11460

> <CNNscore>
0.3756286204

> <CNNaffinity>
5.5383133888

> <CNN_VS>
2.0803489685

> <CNNaffinity_variance>
0.3576230407

$$$$
[H]c1c([H])c([H])c(N([H])C(=O)N2[C@]3([H])C([H])([H])[C@@]([H])(c4c([H])c([H])c([H])c([H])c4[H])[C@@]([H])(N([H])C(=O)c4c([H])c([H])c(C(F)(F)F)c([H])c4[H])C([H])([H])[C@@]23[H])c([H])c1[H]


 37 41  0  0  0  0  0  0  0  0999 V2000
   23.2089    8.6307   55.2035 C   0  0  0  0  0  0  0  0  0  0  0  0
   21.8155    8.0327   55.5663 C   0  0  0  0  0  0  0  0  0  0  0  0
   21.8092    6.6999   54.9087 C   0  0  0  0  0  0  0  0  0  0  0  0
   22.1391    7.0780   53.4635 C   0  0  0  0  0  0  0  0  0  0  0  0
   23.6057    6.8819   53.4419 C   0  0  0  0  0  0  0  0  0  0  0  0
   24.1366    7.5997   54.6965 C   0  0  0  0  0  0  0  0  0  0  0  0
   21.0673    6.2556   53.8128 N   0  0  0  0  0  0  0  0  0  0  0  0
   19.9608    5.4606   53.3420 C   0  0  0  0  0  0  0  0  0  0  0  0
   19.6741    5.4741   52.0881 O   0  0  0  0  0  0  0  0  0  0  0  0
   19.1698    4.6544   54.1749 N   0  0  0  0  0  0  0  0  0  0  0  0
   19.4041    4.5919   55.2161 H   0  0  0  0  0  0  0  0  0  0  0  0
   25.4782    8.0915   54.4906 C   0  0  0  0  0  0  0  0  0  0  0  0
   26.0130    8.1481   53.2257 C   0  0  0  0  0  0  0  0  0  0  0  0
   27.3191    8.6091   53.0235 C   0  0  0  0  0  0  0  0  0  0  0  0
   28.0963    9.0155   54.0824 C   0  0  0  0  0  0  0  0  0  0  0  0
   27.5696    8.9609   55.3385 C   0  0  0  0  0  0  0  0  0  0  0  0
   26.2821    8.5056   55.5238 C   0  0  0  0  0  0  0  0  0  0  0  0
   18.0557    3.8901   53.7770 C   0  0  0  0  0  0  0  0  0  0  0  0
   16.7684    4.1752   54.2582 C   0  0  0  0  0  0  0  0  0  0  0  0
   15.6767    3.4450   53.8656 C   0  0  0  0  0  0  0  0  0  0  0  0
   15.8035    2.3928   52.9731 C   0  0  0  0  0  0  0  0  0  0  0  0
   17.0678    2.1090   52.4979 C   0  0  0  0  0  0  0  0  0  0  0  0
   18.1818    2.8407   52.8882 C   0  0  0  0  0  0  0  0  0  0  0  0
   21.7665   10.1385   53.8880 C   0  0  0  0  0  0  0  0  0  0  0  0
   20.7600    9.4139   54.1066 O   0  0  0  0  0  0  0  0  0  0  0  0
   23.0395    9.8106   54.4204 N   0  0  0  0  0  0  0  0  0  0  0  0
   23.8197   10.4500   54.2430 H   0  0  0  0  0  0  0  0  0  0  0  0
   20.9393   13.7218   51.6962 C   0  0  0  0  0  0  0  0  0  0  0  0
   20.5970   13.5633   53.0359 C   0  0  0  0  0  0  0  0  0  0  0  0
   20.8917   12.3904   53.6883 C   0  0  0  0  0  0  0  0  0  0  0  0
   21.5360   11.3194   53.0549 C   0  0  0  0  0  0  0  0  0  0  0  0
   21.8669   11.4760   51.7570 C   0  0  0  0  0  0  0  0  0  0  0  0
   21.5693   12.6692   51.0840 C   0  0  0  0  0  0  0  0  0  0  0  0
   21.7329   15.7501   50.8614 F   0  0  0  0  0  0  0  0  0  0  0  0
   20.6273   14.9719   50.9725 C   0  0  0  0  0  0  0  0  0  0  0  0
   19.6506   15.7215   51.6268 F   0  0  0  0  0  0  0  0  0  0  0  0
   20.1677   14.7139   49.6929 F   0  0  0  0  0  0  0  0  0  0  0  0
 34 35  1  0  0  0
 35 36  1  0  0  0
 35 37  1  0  0  0
 35 28  1  0  0  0
 28 29  2  0  0  0
 29 30  1  0  0  0
 30 31  2  0  0  0
 31 32  1  0  0  0
 32 33  2  0  0  0
 31 24  1  0  0  0
 24 25  2  0  0  0
 24 26  1  0  0  0
 26  1  1  0  0  0
  1  2  1  0  0  0
  2  3  1  0  0  0
  3  4  1  0  0  0
  4  5  1  0  0  0
  5  6  1  0  0  0
  6 12  1  0  0  0
 12 13  2  0  0  0
 13 14  1  0  0  0
 14 15  2  0  0  0
 15 16  1  0  0  0
 16 17  2  0  0  0
  4  7  1  0  0  0
  7  8  1  0  0  0
  8  9  2  0  0  0
  8 10  1  0  0  0
 10 18  1  0  0  0
 18 19  2  0  0  0
 19 20  1  0  0  0
 20 21  2  0  0  0
 21 22  1  0  0  0
 22 23  2  0  0  0
 33 28  1  0  0  0
  6  1  1  0  0  0
 17 12  1  0  0  0
 23 18  1  0  0  0
  7  3  1  0  0  0
 26 27  1  0  0  0
 10 11  1  0  0  0
M  END
> <minimizedAffinity>
27.46393

> <CNNscore>
0.5679335594

> <CNNaffinity>
6.5643148422

> <CNN_VS>
3.7280945778

> <CNNaffinity_variance>
0.2721856534

$$$$
[H]c1c([H])c([H])c(N([H])C(=O)N2[C@]3([H])C([H])([H])[C@@]([H])(c4c([H])c([H])c([H])c([H])c4[H])[C@@]([H])(N([H])C(=O)c4c([H])c([H])c(C(F)(F)F)c([H])c4[H])C([H])([H])[C@@]23[H])c([H])c1[H]


 37 41  0  0  0  0  0  0  0  0999 V2000
   23.2155    8.4478   55.0829 C   0  0  0  0  0  0  0  0  0  0  0  0
   21.8203    7.8857   55.4929 C   0  0  0  0  0  0  0  0  0  0  0  0
   21.7426    6.5694   54.8071 C   0  0  0  0  0  0  0  0  0  0  0  0
   22.0222    6.9707   53.3576 C   0  0  0  0  0  0  0  0  0  0  0  0
   23.4794    6.7290   53.2677 C   0  0  0  0  0  0  0  0  0  0  0  0
   24.0867    7.4003   54.5134 C   0  0  0  0  0  0  0  0  0  0  0  0
   20.9403    6.1745   53.7351 N   0  0  0  0  0  0  0  0  0  0  0  0
   19.7894    5.4260   53.2956 C   0  0  0  0  0  0  0  0  0  0  0  0
   19.4498    5.4778   52.0560 O   0  0  0  0  0  0  0  0  0  0  0  0
   19.0090    4.6258   54.1444 N   0  0  0  0  0  0  0  0  0  0  0  0
   19.2856    4.5316   55.1727 H   0  0  0  0  0  0  0  0  0  0  0  0
   25.4335    7.8542   54.2601 C   0  0  0  0  0  0  0  0  0  0  0  0
   25.6966    8.7044   53.2126 C   0  0  0  0  0  0  0  0  0  0  0  0
   27.0034    9.1341   52.9538 C   0  0  0  0  0  0  0  0  0  0  0  0
   28.0523    8.7174   53.7391 C   0  0  0  0  0  0  0  0  0  0  0  0
   27.7955    7.8742   54.7789 C   0  0  0  0  0  0  0  0  0  0  0  0
   26.5043    7.4591   55.0233 C   0  0  0  0  0  0  0  0  0  0  0  0
   17.8546    3.9065   53.7786 C   0  0  0  0  0  0  0  0  0  0  0  0
   17.9172    2.8502   52.8567 C   0  0  0  0  0  0  0  0  0  0  0  0
   16.8010    2.1363   52.5053 C   0  0  0  0  0  0  0  0  0  0  0  0
   15.5621    2.4316   53.0510 C   0  0  0  0  0  0  0  0  0  0  0  0
   15.4963    3.4700   53.9578 C   0  0  0  0  0  0  0  0  0  0  0  0
   16.6196    4.2012   54.3217 C   0  0  0  0  0  0  0  0  0  0  0  0
   21.7520   10.1268   54.0230 C   0  0  0  0  0  0  0  0  0  0  0  0
   20.7213    9.5166   54.4121 O   0  0  0  0  0  0  0  0  0  0  0  0
   23.0511    9.6504   54.3341 N   0  0  0  0  0  0  0  0  0  0  0  0
   23.8575   10.2007   54.0242 H   0  0  0  0  0  0  0  0  0  0  0  0
   21.1373   13.5001   51.4596 C   0  0  0  0  0  0  0  0  0  0  0  0
   21.4152   12.2261   50.9730 C   0  0  0  0  0  0  0  0  0  0  0  0
   21.5996   11.1804   51.8452 C   0  0  0  0  0  0  0  0  0  0  0  0
   21.5195   11.3380   53.2352 C   0  0  0  0  0  0  0  0  0  0  0  0
   21.2496   12.5734   53.7037 C   0  0  0  0  0  0  0  0  0  0  0  0
   21.0608   13.6456   52.8206 C   0  0  0  0  0  0  0  0  0  0  0  0
   20.2075   14.2672   49.4626 F   0  0  0  0  0  0  0  0  0  0  0  0
   20.9410   14.6408   50.5408 C   0  0  0  0  0  0  0  0  0  0  0  0
   22.1531   15.1437   50.0699 F   0  0  0  0  0  0  0  0  0  0  0  0
   20.2710   15.6804   51.1619 F   0  0  0  0  0  0  0  0  0  0  0  0
 34 35  1  0  0  0
 35 36  1  0  0  0
 35 37  1  0  0  0
 35 28  1  0  0  0
 28 29  2  0  0  0
 29 30  1  0  0  0
 30 31  2  0  0  0
 31 32  1  0  0  0
 32 33  2  0  0  0
 31 24  1  0  0  0
 24 25  2  0  0  0
 24 26  1  0  0  0
 26  1  1  0  0  0
  1  2  1  0  0  0
  2  3  1  0  0  0
  3  4  1  0  0  0
  4  5  1  0  0  0
  5  6  1  0  0  0
  6 12  1  0  0  0
 12 13  2  0  0  0
 13 14  1  0  0  0
 14 15  2  0  0  0
 15 16  1  0  0  0
 16 17  2  0  0  0
  4  7  1  0  0  0
  7  8  1  0  0  0
  8  9  2  0  0  0
  8 10  1  0  0  0
 10 18  1  0  0  0
 18 19  2  0  0  0
 19 20  1  0  0  0
 20 21  2  0  0  0
 21 22  1  0  0  0
 22 23  2  0  0  0
 33 28  1  0  0  0
  6  1  1  0  0  0
 17 12  1  0  0  0
 23 18  1  0  0  0
  7  3  1  0  0  0
 26 27  1  0  0  0
 10 11  1  0  0  0
M  END
> <minimizedAffinity>
34.06615

> <CNNscore>
0.5509633422

> <CNNaffinity>
6.4837226868

> <CNN_VS>
3.5722935200

> <CNNaffinity_variance>
0.2817791104

$$$$
[H]c1c([H])c([H])c(N([H])C(=O)N2[C@]3([H])C([H])([H])[C@@]([H])(c4c([H])c([H])c([H])c([H])c4[H])[C@@]([H])(N([H])C(=O)c4c([H])c([H])c(C(F)(F)F)c([H])c4[H])C([H])([H])[C@@]23[H])c([H])c1[H]


 37 41  0  0  0  0  0  0  0  0999 V2000
   21.5848    7.5816   51.9899 C   0  0  0  0  0  0  0  0  0  0  0  0
   21.0741    6.1827   51.5287 C   0  0  0  0  0  0  0  0  0  0  0  0
   19.7502    6.0427   52.1895 C   0  0  0  0  0  0  0  0  0  0  0  0
   20.1193    6.2903   53.6534 C   0  0  0  0  0  0  0  0  0  0  0  0
   19.8299    7.7358   53.7830 C   0  0  0  0  0  0  0  0  0  0  0  0
   20.5012    8.4016   52.5676 C   0  0  0  0  0  0  0  0  0  0  0  0
   19.3640    5.1960   53.2301 N   0  0  0  0  0  0  0  0  0  0  0  0
   18.6457    4.0092   53.6220 C   0  0  0  0  0  0  0  0  0  0  0  0
   18.6886    3.6337   54.8516 O   0  0  0  0  0  0  0  0  0  0  0  0
   17.8843    3.2305   52.7368 N   0  0  0  0  0  0  0  0  0  0  0  0
   17.7978    3.5354   51.7159 H   0  0  0  0  0  0  0  0  0  0  0  0
   20.9079    9.7536   52.8690 C   0  0  0  0  0  0  0  0  0  0  0  0
   21.1275   10.6570   51.8566 C   0  0  0  0  0  0  0  0  0  0  0  0
   21.5375   11.9643   52.1438 C   0  0  0  0  0  0  0  0  0  0  0  0
   21.7297   12.3749   53.4418 C   0  0  0  0  0  0  0  0  0  0  0  0
   21.5130   11.4820   54.4486 C   0  0  0  0  0  0  0  0  0  0  0  0
   21.1089   10.1981   54.1524 C   0  0  0  0  0  0  0  0  0  0  0  0
   17.1965    2.0435   53.0555 C   0  0  0  0  0  0  0  0  0  0  0  0
   17.7116    0.7868   52.7016 C   0  0  0  0  0  0  0  0  0  0  0  0
   17.0554   -0.3740   53.0196 C   0  0  0  0  0  0  0  0  0  0  0  0
   15.8526   -0.3502   53.7071 C   0  0  0  0  0  0  0  0  0  0  0  0
   15.3426    0.8837   54.0566 C   0  0  0  0  0  0  0  0  0  0  0  0
   15.9974    2.0669   53.7399 C   0  0  0  0  0  0  0  0  0  0  0  0
   23.7537    8.4633   52.7665 C   0  0  0  0  0  0  0  0  0  0  0  0
   23.5809    9.5337   52.1259 O   0  0  0  0  0  0  0  0  0  0  0  0
   22.7800    7.4321   52.7535 N   0  0  0  0  0  0  0  0  0  0  0  0
   22.9514    6.5950   53.3183 H   0  0  0  0  0  0  0  0  0  0  0  0
   27.5836    8.2079   54.6625 C   0  0  0  0  0  0  0  0  0  0  0  0
   27.4293    8.5414   53.3201 C   0  0  0  0  0  0  0  0  0  0  0  0
   26.1733    8.6113   52.7674 C   0  0  0  0  0  0  0  0  0  0  0  0
   25.0111    8.3569   53.5076 C   0  0  0  0  0  0  0  0  0  0  0  0
   25.1636    8.0344   54.8082 C   0  0  0  0  0  0  0  0  0  0  0  0
   26.4415    7.9603   55.3795 C   0  0  0  0  0  0  0  0  0  0  0  0
   28.8310    8.0926   56.6302 F   0  0  0  0  0  0  0  0  0  0  0  0
   28.9247    8.1210   55.2772 C   0  0  0  0  0  0  0  0  0  0  0  0
   29.7250    9.2102   54.9348 F   0  0  0  0  0  0  0  0  0  0  0  0
   29.5893    6.9738   54.8802 F   0  0  0  0  0  0  0  0  0  0  0  0
 34 35  1  0  0  0
 35 36  1  0  0  0
 35 37  1  0  0  0
 35 28  1  0  0  0
 28 29  2  0  0  0
 29 30  1  0  0  0
 30 31  2  0  0  0
 31 32  1  0  0  0
 32 33  2  0  0  0
 31 24  1  0  0  0
 24 25  2  0  0  0
 24 26  1  0  0  0
 26  1  1  0  0  0
  1  2  1  0  0  0
  2  3  1  0  0  0
  3  4  1  0  0  0
  4  5  1  0  0  0
  5  6  1  0  0  0
  6 12  1  0  0  0
 12 13  2  0  0  0
 13 14  1  0  0  0
 14 15  2  0  0  0
 15 16  1  0  0  0
 16 17  2  0  0  0
  4  7  1  0  0  0
  7  8  1  0  0  0
  8  9  2  0  0  0
  8 10  1  0  0  0
 10 18  1  0  0  0
 18 19  2  0  0  0
 19 20  1  0  0  0
 20 21  2  0  0  0
 21 22  1  0  0  0
 22 23  2  0  0  0
 33 28  1  0  0  0
  6  1  1  0  0  0
 17 12  1  0  0  0
 23 18  1  0  0  0
  7  3  1  0  0  0
 26 27  1  0  0  0
 10 11  1  0  0  0
M  END
> <minimizedAffinity>
58.88245

> <CNNscore>
0.5166715384

> <CNNaffinity>
6.3654651642

> <CNN_VS>
3.2888545990

> <CNNaffinity_variance>
0.5637836456

$$$$
[H]c1c([H])c([H])c(N([H])C(=O)N2[C@]3([H])C([H])([H])[C@@]([H])(c4c([H])c([H])c([H])c([H])c4[H])[C@@]([H])(N([H])C(=O)c4c([H])c([H])c(C(F)(F)F)c([H])c4[H])C([H])([H])[C@@]23[H])c([H])c1[H]


 37 41  0  0  0  0  0  0  0  0999 V2000
   27.1423    8.1088   55.3322 C   0  0  0  0  0  0  0  0  0  0  0  0
   27.0835    7.4613   53.9151 C   0  0  0  0  0  0  0  0  0  0  0  0
   28.1554    8.1542   53.1537 C   0  0  0  0  0  0  0  0  0  0  0  0
   27.7649    9.6197   53.3543 C   0  0  0  0  0  0  0  0  0  0  0  0
   28.6036    9.9849   54.5175 C   0  0  0  0  0  0  0  0  0  0  0  0
   28.3975    8.8569   55.5452 C   0  0  0  0  0  0  0  0  0  0  0  0
   28.0480    9.0684   52.1041 N   0  0  0  0  0  0  0  0  0  0  0  0
   28.1724    9.3054   50.6877 C   0  0  0  0  0  0  0  0  0  0  0  0
   27.8481   10.4587   50.2191 O   0  0  0  0  0  0  0  0  0  0  0  0
   28.6395    8.3473   49.7747 N   0  0  0  0  0  0  0  0  0  0  0  0
   28.9521    7.3911   50.1362 H   0  0  0  0  0  0  0  0  0  0  0  0
   28.5486    9.3442   56.8957 C   0  0  0  0  0  0  0  0  0  0  0  0
   28.7104    8.4648   57.9396 C   0  0  0  0  0  0  0  0  0  0  0  0
   28.8412    8.9325   59.2524 C   0  0  0  0  0  0  0  0  0  0  0  0
   28.8112   10.2791   59.5285 C   0  0  0  0  0  0  0  0  0  0  0  0
   28.6509   11.1545   58.4960 C   0  0  0  0  0  0  0  0  0  0  0  0
   28.5239   10.6810   57.2080 C   0  0  0  0  0  0  0  0  0  0  0  0
   28.7440    8.5106   48.3797 C   0  0  0  0  0  0  0  0  0  0  0  0
   28.3933    9.7203   47.7604 C   0  0  0  0  0  0  0  0  0  0  0  0
   28.5046    9.8922   46.4050 C   0  0  0  0  0  0  0  0  0  0  0  0
   28.9713    8.8727   45.5908 C   0  0  0  0  0  0  0  0  0  0  0  0
   29.3169    7.6814   46.1959 C   0  0  0  0  0  0  0  0  0  0  0  0
   29.2082    7.4945   47.5679 C   0  0  0  0  0  0  0  0  0  0  0  0
   24.6975    8.2992   55.0654 C   0  0  0  0  0  0  0  0  0  0  0  0
   24.6654    7.2623   54.3515 O   0  0  0  0  0  0  0  0  0  0  0  0
   25.9159    8.7829   55.6068 N   0  0  0  0  0  0  0  0  0  0  0  0
   25.8850    9.6104   56.2096 H   0  0  0  0  0  0  0  0  0  0  0  0
   20.8015    9.9550   55.7041 C   0  0  0  0  0  0  0  0  0  0  0  0
   21.0314    8.5853   55.6137 C   0  0  0  0  0  0  0  0  0  0  0  0
   22.3055    8.1123   55.4114 C   0  0  0  0  0  0  0  0  0  0  0  0
   23.4123    8.9627   55.2885 C   0  0  0  0  0  0  0  0  0  0  0  0
   23.1866   10.2893   55.3769 C   0  0  0  0  0  0  0  0  0  0  0  0
   21.8897   10.7800   55.5826 C   0  0  0  0  0  0  0  0  0  0  0  0
   18.5056    9.5768   55.5407 F   0  0  0  0  0  0  0  0  0  0  0  0
   19.4391   10.4869   55.9157 C   0  0  0  0  0  0  0  0  0  0  0  0
   19.2137   11.6478   55.1771 F   0  0  0  0  0  0  0  0  0  0  0  0
   19.2160   10.7898   57.2475 F   0  0  0  0  0  0  0  0  0  0  0  0
 34 35  1  0  0  0
 35 36  1  0  0  0
 35 37  1  0  0  0
 35 28  1  0  0  0
 28 29  2  0  0  0
 29 30  1  0  0  0
 30 31  2  0  0  0
 31 32  1  0  0  0
 32 33  2  0  0  0
 31 24  1  0  0  0
 24 25  2  0  0  0
 24 26  1  0  0  0
 26  1  1  0  0  0
  1  2  1  0  0  0
  2  3  1  0  0  0
  3  4  1  0  0  0
  4  5  1  0  0  0
  5  6  1  0  0  0
  6 12  1  0  0  0
 12 13  2  0  0  0
 13 14  1  0  0  0
 14 15  2  0  0  0
 15 16  1  0  0  0
 16 17  2  0  0  0
  4  7  1  0  0  0
  7  8  1  0  0  0
  8  9  2  0  0  0
  8 10  1  0  0  0
 10 18  1  0  0  0
 18 19  2  0  0  0
 19 20  1  0  0  0
 20 21  2  0  0  0
 21 22  1  0  0  0
 22 23  2  0  0  0
 33 28  1  0  0  0
  6  1  1  0  0  0
 17 12  1  0  0  0
 23 18  1  0  0  0
  7  3  1  0  0  0
 26 27  1  0  0  0
 10 11  1  0  0  0
M  END
> <minimizedAffinity>
52.04655

> <CNNscore>
0.4980548620

> <CNNaffinity>
5.9667954445

> <CNN_VS>
2.9717915058

> <CNNaffinity_variance>
0.3448826671

$$$$
[H]c1c([H])c([H])c(N([H])C(=O)N2[C@]3([H])C([H])([H])[C@@]([H])(c4c([H])c([H])c([H])c([H])c4[H])[C@@]([H])(N([H])C(=O)c4c([H])c([H])c(C(F)(F)F)c([H])c4[H])C([H])([H])[C@@]23[H])c([H])c1[H]


 37 41  0  0  0  0  0  0  0  0999 V2000
   22.0947    9.3447   55.1507 C   0  0  0  0  0  0  0  0  0  0  0  0
   22.7851    9.3754   56.5482 C   0  0  0  0  0  0  0  0  0  0  0  0
   24.1059   10.0053   56.2877 C   0  0  0  0  0  0  0  0  0  0  0  0
   24.6494    9.1096   55.1729 C   0  0  0  0  0  0  0  0  0  0  0  0
   24.2499    9.8726   53.9696 C   0  0  0  0  0  0  0  0  0  0  0  0
   22.7683   10.2336   54.1829 C   0  0  0  0  0  0  0  0  0  0  0  0
   25.3803    9.4361   56.3158 N   0  0  0  0  0  0  0  0  0  0  0  0
   26.6285    9.2964   57.0234 C   0  0  0  0  0  0  0  0  0  0  0  0
   27.5254    8.5039   56.5521 O   0  0  0  0  0  0  0  0  0  0  0  0
   26.9356    9.9861   58.2064 N   0  0  0  0  0  0  0  0  0  0  0  0
   26.2268   10.6801   58.6048 H   0  0  0  0  0  0  0  0  0  0  0  0
   22.0686   10.3412   52.9247 C   0  0  0  0  0  0  0  0  0  0  0  0
   21.8490   11.5716   52.3528 C   0  0  0  0  0  0  0  0  0  0  0  0
   21.1570   11.6815   51.1409 C   0  0  0  0  0  0  0  0  0  0  0  0
   20.6818   10.5643   50.4954 C   0  0  0  0  0  0  0  0  0  0  0  0
   20.8975    9.3423   51.0594 C   0  0  0  0  0  0  0  0  0  0  0  0
   21.5809    9.2479   52.2525 C   0  0  0  0  0  0  0  0  0  0  0  0
   28.1194    9.8588   58.9588 C   0  0  0  0  0  0  0  0  0  0  0  0
   28.6084    8.5992   59.3384 C   0  0  0  0  0  0  0  0  0  0  0  0
   29.7667    8.4656   60.0591 C   0  0  0  0  0  0  0  0  0  0  0  0
   30.5033    9.5753   60.4413 C   0  0  0  0  0  0  0  0  0  0  0  0
   30.0255   10.8158   60.0703 C   0  0  0  0  0  0  0  0  0  0  0  0
   28.8532   10.9646   59.3406 C   0  0  0  0  0  0  0  0  0  0  0  0
   20.5740    7.5898   54.3188 C   0  0  0  0  0  0  0  0  0  0  0  0
   19.6197    8.4087   54.2496 O   0  0  0  0  0  0  0  0  0  0  0  0
   21.8609    7.9942   54.7566 N   0  0  0  0  0  0  0  0  0  0  0  0
   22.6128    7.2986   54.7627 H   0  0  0  0  0  0  0  0  0  0  0  0
   19.9827    3.5183   53.1350 C   0  0  0  0  0  0  0  0  0  0  0  0
   21.2461    4.0845   53.2777 C   0  0  0  0  0  0  0  0  0  0  0  0
   21.3733    5.3969   53.6643 C   0  0  0  0  0  0  0  0  0  0  0  0
   20.2657    6.2135   53.9284 C   0  0  0  0  0  0  0  0  0  0  0  0
   19.0429    5.6621   53.7897 C   0  0  0  0  0  0  0  0  0  0  0  0
   18.9044    4.3241   53.3952 C   0  0  0  0  0  0  0  0  0  0  0  0
   20.6399    1.8249   51.6717 F   0  0  0  0  0  0  0  0  0  0  0  0
   19.8212    2.1107   52.7149 C   0  0  0  0  0  0  0  0  0  0  0  0
   18.5154    1.8352   52.3112 F   0  0  0  0  0  0  0  0  0  0  0  0
   20.1333    1.2376   53.7423 F   0  0  0  0  0  0  0  0  0  0  0  0
 34 35  1  0  0  0
 35 36  1  0  0  0
 35 37  1  0  0  0
 35 28  1  0  0  0
 28 29  2  0  0  0
 29 30  1  0  0  0
 30 31  2  0  0  0
 31 32  1  0  0  0
 32 33  2  0  0  0
 31 24  1  0  0  0
 24 25  2  0  0  0
 24 26  1  0  0  0
 26  1  1  0  0  0
  1  2  1  0  0  0
  2  3  1  0  0  0
  3  4  1  0  0  0
  4  5  1  0  0  0
  5  6  1  0  0  0
  6 12  1  0  0  0
 12 13  2  0  0  0
 13 14  1  0  0  0
 14 15  2  0  0  0
 15 16  1  0  0  0
 16 17  2  0  0  0
  4  7  1  0  0  0
  7  8  1  0  0  0
  8  9  2  0  0  0
  8 10  1  0  0  0
 10 18  1  0  0  0
 18 19  2  0  0  0
 19 20  1  0  0  0
 20 21  2  0  0  0
 21 22  1  0  0  0
 22 23  2  0  0  0
 33 28  1  0  0  0
  6  1  1  0  0  0
 17 12  1  0  0  0
 23 18  1  0  0  0
  7  3  1  0  0  0
 26 27  1  0  0  0
 10 11  1  0  0  0
M  END
> <minimizedAffinity>
45.11499

> <CNNscore>
0.4688350260

> <CNNaffinity>
5.9607229233

> <CNN_VS>
2.7945957184

> <CNNaffinity_variance>
0.4539430737

$$$$
[H]c1c([H])c([H])c(N([H])C(=O)N2[C@]3([H])C([H])([H])[C@@]([H])(c4c([H])c([H])c([H])c([H])c4[H])[C@@]([H])(N([H])C(=O)c4c([H])c([H])c(C(F)(F)F)c([H])c4[H])C([H])([H])[C@@]23[H])c([H])c1[H]


 37 41  0  0  0  0  0  0  0  0999 V2000
   22.7635    8.2431   52.3030 C   0  0  0  0  0  0  0  0  0  0  0  0
   22.6593    6.7336   51.9272 C   0  0  0  0  0  0  0  0  0  0  0  0
   21.2133    6.4217   52.0717 C   0  0  0  0  0  0  0  0  0  0  0  0
   20.9496    6.8845   53.5058 C   0  0  0  0  0  0  0  0  0  0  0  0
   20.4464    8.2574   53.2777 C   0  0  0  0  0  0  0  0  0  0  0  0
   21.4435    8.9050   52.2991 C   0  0  0  0  0  0  0  0  0  0  0  0
   20.5678    5.6316   53.0246 N   0  0  0  0  0  0  0  0  0  0  0  0
   19.9154    4.3803   53.3187 C   0  0  0  0  0  0  0  0  0  0  0  0
   19.5265    4.1495   54.5229 O   0  0  0  0  0  0  0  0  0  0  0  0
   19.6661    3.3865   52.3596 N   0  0  0  0  0  0  0  0  0  0  0  0
   19.9435    3.5620   51.3423 H   0  0  0  0  0  0  0  0  0  0  0  0
   21.5210   10.3328   52.4983 C   0  0  0  0  0  0  0  0  0  0  0  0
   21.5193   10.8601   53.7676 C   0  0  0  0  0  0  0  0  0  0  0  0
   21.5781   12.2447   53.9647 C   0  0  0  0  0  0  0  0  0  0  0  0
   21.6389   13.1081   52.8964 C   0  0  0  0  0  0  0  0  0  0  0  0
   21.6407   12.5890   51.6360 C   0  0  0  0  0  0  0  0  0  0  0  0
   21.5831   11.2239   51.4556 C   0  0  0  0  0  0  0  0  0  0  0  0
   19.0700    2.1329   52.5979 C   0  0  0  0  0  0  0  0  0  0  0  0
   17.6812    1.9568   52.4979 C   0  0  0  0  0  0  0  0  0  0  0  0
   17.0942    0.7372   52.7150 C   0  0  0  0  0  0  0  0  0  0  0  0
   17.8543   -0.3742   53.0420 C   0  0  0  0  0  0  0  0  0  0  0  0
   19.2204   -0.2051   53.1417 C   0  0  0  0  0  0  0  0  0  0  0  0
   19.8272    1.0253   52.9248 C   0  0  0  0  0  0  0  0  0  0  0  0
   24.9848    8.5167   53.3400 C   0  0  0  0  0  0  0  0  0  0  0  0
   25.5446    8.5091   52.2119 O   0  0  0  0  0  0  0  0  0  0  0  0
   23.5771    8.3971   53.4642 N   0  0  0  0  0  0  0  0  0  0  0  0
   23.1664    8.4433   54.4014 H   0  0  0  0  0  0  0  0  0  0  0  0
   27.3466    9.0422   56.8718 C   0  0  0  0  0  0  0  0  0  0  0  0
   25.9987    9.3835   56.8103 C   0  0  0  0  0  0  0  0  0  0  0  0
   25.2908    9.1883   55.6490 C   0  0  0  0  0  0  0  0  0  0  0  0
   25.8740    8.6490   54.4947 C   0  0  0  0  0  0  0  0  0  0  0  0
   27.1800    8.3188   54.5574 C   0  0  0  0  0  0  0  0  0  0  0  0
   27.9095    8.5153   55.7382 C   0  0  0  0  0  0  0  0  0  0  0  0
   27.3524    9.0622   59.2043 F   0  0  0  0  0  0  0  0  0  0  0  0
   28.1295    9.2484   58.1081 C   0  0  0  0  0  0  0  0  0  0  0  0
   28.6562   10.5373   58.1811 F   0  0  0  0  0  0  0  0  0  0  0  0
   29.1875    8.3601   58.1904 F   0  0  0  0  0  0  0  0  0  0  0  0
 34 35  1  0  0  0
 35 36  1  0  0  0
 35 37  1  0  0  0
 35 28  1  0  0  0
 28 29  2  0  0  0
 29 30  1  0  0  0
 30 31  2  0  0  0
 31 32  1  0  0  0
 32 33  2  0  0  0
 31 24  1  0  0  0
 24 25  2  0  0  0
 24 26  1  0  0  0
 26  1  1  0  0  0
  1  2  1  0  0  0
  2  3  1  0  0  0
  3  4  1  0  0  0
  4  5  1  0  0  0
  5  6  1  0  0  0
  6 12  1  0  0  0
 12 13  2  0  0  0
 13 14  1  0  0  0
 14 15  2  0  0  0
 15 16  1  0  0  0
 16 17  2  0  0  0
  4  7  1  0  0  0
  7  8  1  0  0  0
  8  9  2  0  0  0
  8 10  1  0  0  0
 10 18  1  0  0  0
 18 19  2  0  0  0
 19 20  1  0  0  0
 20 21  2  0  0  0
 21 22  1  0  0  0
 22 23  2  0  0  0
 33 28  1  0  0  0
  6  1  1  0  0  0
 17 12  1  0  0  0
 23 18  1  0  0  0
  7  3  1  0  0  0
 26 27  1  0  0  0
 10 11  1  0  0  0
M  END
> <minimizedAffinity>
51.35917

> <CNNscore>
0.4238380790

> <CNNaffinity>
6.4986624718

> <CNN_VS>
2.7543807030

> <CNNaffinity_variance>
0.3692628145

$$$$
[H]c1c([H])c([H])c(N([H])C(=O)N2[C@]3([H])C([H])([H])[C@@]([H])(c4c([H])c([H])c([H])c([H])c4[H])[C@@]([H])(N([H])C(=O)c4c([H])c([H])c(C(F)(F)F)c([H])c4[H])C([H])([H])[C@@]23[H])c([H])c1[H]


 37 41  0  0  0  0  0  0  0  0999 V2000
   23.9515    7.7768   53.0196 C   0  0  0  0  0  0  0  0  0  0  0  0
   25.4190    7.9874   53.5020 C   0  0  0  0  0  0  0  0  0  0  0  0
   25.3322    7.8934   54.9827 C   0  0  0  0  0  0  0  0  0  0  0  0
   24.2579    8.9393   55.2862 C   0  0  0  0  0  0  0  0  0  0  0  0
   23.0427    8.0966   55.3414 C   0  0  0  0  0  0  0  0  0  0  0  0
   23.0970    7.2111   54.0828 C   0  0  0  0  0  0  0  0  0  0  0  0
   25.4870    8.8928   55.9450 N   0  0  0  0  0  0  0  0  0  0  0  0
   26.3277    9.4758   56.9606 C   0  0  0  0  0  0  0  0  0  0  0  0
   25.9361   10.5491   57.5517 O   0  0  0  0  0  0  0  0  0  0  0  0
   27.5603    8.9349   57.3577 N   0  0  0  0  0  0  0  0  0  0  0  0
   27.8977    8.0234   56.9125 H   0  0  0  0  0  0  0  0  0  0  0  0
   21.7713    6.8671   53.6264 C   0  0  0  0  0  0  0  0  0  0  0  0
   21.3395    5.5626   53.6605 C   0  0  0  0  0  0  0  0  0  0  0  0
   20.0607    5.2225   53.2039 C   0  0  0  0  0  0  0  0  0  0  0  0
   19.2082    6.1825   52.7118 C   0  0  0  0  0  0  0  0  0  0  0  0
   19.6328    7.4773   52.6763 C   0  0  0  0  0  0  0  0  0  0  0  0
   20.8939    7.7989   53.1295 C   0  0  0  0  0  0  0  0  0  0  0  0
   28.4385    9.4820   58.3133 C   0  0  0  0  0  0  0  0  0  0  0  0
   28.6961   10.8608   58.3594 C   0  0  0  0  0  0  0  0  0  0  0  0
   29.5389   11.4033   59.2946 C   0  0  0  0  0  0  0  0  0  0  0  0
   30.1710   10.6063   60.2354 C   0  0  0  0  0  0  0  0  0  0  0  0
   29.9206    9.2497   60.1931 C   0  0  0  0  0  0  0  0  0  0  0  0
   29.0693    8.6878   59.2505 C   0  0  0  0  0  0  0  0  0  0  0  0
   22.5393    9.7988   52.9774 C   0  0  0  0  0  0  0  0  0  0  0  0
   22.0997    9.5512   54.1313 O   0  0  0  0  0  0  0  0  0  0  0  0
   23.4887    8.9498   52.3534 N   0  0  0  0  0  0  0  0  0  0  0  0
   23.8414    9.2127   51.4284 H   0  0  0  0  0  0  0  0  0  0  0  0
   21.0163   13.4630   51.3706 C   0  0  0  0  0  0  0  0  0  0  0  0
   21.5078   13.3574   52.6684 C   0  0  0  0  0  0  0  0  0  0  0  0
   21.9874   12.1545   53.1278 C   0  0  0  0  0  0  0  0  0  0  0  0
   22.0063   11.0002   52.3337 C   0  0  0  0  0  0  0  0  0  0  0  0
   21.5299   11.1057   51.0765 C   0  0  0  0  0  0  0  0  0  0  0  0
   21.0382   12.3290   50.6004 C   0  0  0  0  0  0  0  0  0  0  0  0
   20.0102   14.5954   49.5968 F   0  0  0  0  0  0  0  0  0  0  0  0
   20.4902   14.7449   50.8567 C   0  0  0  0  0  0  0  0  0  0  0  0
   21.4741   15.7320   50.8165 F   0  0  0  0  0  0  0  0  0  0  0  0
   19.4557   15.2188   51.6444 F   0  0  0  0  0  0  0  0  0  0  0  0
 34 35  1  0  0  0
 35 36  1  0  0  0
 35 37  1  0  0  0
 35 28  1  0  0  0
 28 29  2  0  0  0
 29 30  1  0  0  0
 30 31  2  0  0  0
 31 32  1  0  0  0
 32 33  2  0  0  0
 31 24  1  0  0  0
 24 25  2  0  0  0
 24 26  1  0  0  0
 26  1  1  0  0  0
  1  2  1  0  0  0
  2  3  1  0  0  0
  3  4  1  0  0  0
  4  5  1  0  0  0
  5  6  1  0  0  0
  6 12  1  0  0  0
 12 13  2  0  0  0
 13 14  1  0  0  0
 14 15  2  0  0  0
 15 16  1  0  0  0
 16 17  2  0  0  0
  4  7  1  0  0  0
  7  8  1  0  0  0
  8  9  2  0  0  0
  8 10  1  0  0  0
 10 18  1  0  0  0
 18 19  2  0  0  0
 19 20  1  0  0  0
 20 21  2  0  0  0
 21 22  1  0  0  0
 22 23  2  0  0  0
 33 28  1  0  0  0
  6  1  1  0  0  0
 17 12  1  0  0  0
 23 18  1  0  0  0
  7  3  1  0  0  0
 26 27  1  0  0  0
 10 11  1  0  0  0
M  END
> <minimizedAffinity>
28.38349

> <CNNscore>
0.4225249887

> <CNNaffinity>
5.9021368027

> <CNN_VS>
2.4938004017

> <CNNaffinity_variance>
0.2589918375

$$$$
[H]c1c([H])c([H])c(N([H])C(=O)N2[C@]3([H])C([H])([H])[C@@]([H])(c4c([H])c([H])c([H])c([H])c4[H])[C@@]([H])(N([H])C(=O)c4c([H])c([H])c(C(F)(F)F)c([H])c4[H])C([H])([H])[C@@]23[H])c([H])c1[H]


 37 41  0  0  0  0  0  0  0  0999 V2000
   27.6054    7.8129   54.8085 C   0  0  0  0  0  0  0  0  0  0  0  0
   27.8622    7.1862   53.4042 C   0  0  0  0  0  0  0  0  0  0  0  0
   28.5657    8.2571   52.6510 C   0  0  0  0  0  0  0  0  0  0  0  0
   27.5917    9.4257   52.8131 C   0  0  0  0  0  0  0  0  0  0  0  0
   28.1679   10.1206   53.9856 C   0  0  0  0  0  0  0  0  0  0  0  0
   28.4253    9.0206   55.0320 C   0  0  0  0  0  0  0  0  0  0  0  0
   28.1140    9.0313   51.5807 N   0  0  0  0  0  0  0  0  0  0  0  0
   28.1665    9.2843   50.1625 C   0  0  0  0  0  0  0  0  0  0  0  0
   27.4019   10.1905   49.6636 O   0  0  0  0  0  0  0  0  0  0  0  0
   29.0170    8.6013   49.2795 N   0  0  0  0  0  0  0  0  0  0  0  0
   29.6914    7.8680   49.6671 H   0  0  0  0  0  0  0  0  0  0  0  0
   28.3212    9.5400   56.3749 C   0  0  0  0  0  0  0  0  0  0  0  0
   28.2782   10.8959   56.5960 C   0  0  0  0  0  0  0  0  0  0  0  0
   28.1935   11.4040   57.8976 C   0  0  0  0  0  0  0  0  0  0  0  0
   28.1511   10.5612   58.9831 C   0  0  0  0  0  0  0  0  0  0  0  0
   28.1935    9.2159   58.7681 C   0  0  0  0  0  0  0  0  0  0  0  0
   28.2763    8.7286   57.4816 C   0  0  0  0  0  0  0  0  0  0  0  0
   29.0817    8.7792   47.8838 C   0  0  0  0  0  0  0  0  0  0  0  0
   29.2504    7.6874   47.0182 C   0  0  0  0  0  0  0  0  0  0  0  0
   29.3010    7.8501   45.6581 C   0  0  0  0  0  0  0  0  0  0  0  0
   29.1858    9.1056   45.0833 C   0  0  0  0  0  0  0  0  0  0  0  0
   29.0203   10.1819   45.9311 C   0  0  0  0  0  0  0  0  0  0  0  0
   28.9680   10.0305   47.3108 C   0  0  0  0  0  0  0  0  0  0  0  0
   25.2834    7.7119   53.9824 C   0  0  0  0  0  0  0  0  0  0  0  0
   25.6781    7.4237   52.8217 O   0  0  0  0  0  0  0  0  0  0  0  0
   26.2024    7.9133   55.0437 N   0  0  0  0  0  0  0  0  0  0  0  0
   25.8305    8.1119   55.9772 H   0  0  0  0  0  0  0  0  0  0  0  0
   21.0134    7.8297   54.2669 C   0  0  0  0  0  0  0  0  0  0  0  0
   21.6886    6.9233   53.4547 C   0  0  0  0  0  0  0  0  0  0  0  0
   23.0618    6.9308   53.4072 C   0  0  0  0  0  0  0  0  0  0  0  0
   23.8349    7.8288   54.1552 C   0  0  0  0  0  0  0  0  0  0  0  0
   23.1779    8.7055   54.9415 C   0  0  0  0  0  0  0  0  0  0  0  0
   21.7771    8.7048   54.9952 C   0  0  0  0  0  0  0  0  0  0  0  0
   19.1125    8.3357   55.5206 F   0  0  0  0  0  0  0  0  0  0  0  0
   19.5369    7.8440   54.3296 C   0  0  0  0  0  0  0  0  0  0  0  0
   18.9981    6.5660   54.1873 F   0  0  0  0  0  0  0  0  0  0  0  0
   18.9964    8.6380   53.3333 F   0  0  0  0  0  0  0  0  0  0  0  0
 34 35  1  0  0  0
 35 36  1  0  0  0
 35 37  1  0  0  0
 35 28  1  0  0  0
 28 29  2  0  0  0
 29 30  1  0  0  0
 30 31  2  0  0  0
 31 32  1  0  0  0
 32 33  2  0  0  0
 31 24  1  0  0  0
 24 25  2  0  0  0
 24 26  1  0  0  0
 26  1  1  0  0  0
  1  2  1  0  0  0
  2  3  1  0  0  0
  3  4  1  0  0  0
  4  5  1  0  0  0
  5  6  1  0  0  0
  6 12  1  0  0  0
 12 13  2  0  0  0
 13 14  1  0  0  0
 14 15  2  0  0  0
 15 16  1  0  0  0
 16 17  2  0  0  0
  4  7  1  0  0  0
  7  8  1  0  0  0
  8  9  2  0  0  0
  8 10  1  0  0  0
 10 18  1  0  0  0
 18 19  2  0  0  0
 19 20  1  0  0  0
 20 21  2  0  0  0
 21 22  1  0  0  0
 22 23  2  0  0  0
 33 28  1  0  0  0
  6  1  1  0  0  0
 17 12  1  0  0  0
 23 18  1  0  0  0
  7  3  1  0  0  0
 26 27  1  0  0  0
 10 11  1  0  0  0
M  END
> <minimizedAffinity>
46.87430

> <CNNscore>
0.4117513299

> <CNNaffinity>
5.8780488968

> <CNN_VS>
2.4202945232

> <CNNaffinity_variance>
0.2769267261

$$$$
[H]c1c([H])c([H])c(N([H])C(=O)N2[C@]3([H])C([H])([H])[C@@]([H])(c4c([H])c([H])c([H])c([H])c4[H])[C@@]([H])(N([H])C(=O)c4c([H])c([H])c(C(F)(F)F)c([H])c4[H])C([H])([H])[C@@]23[H])c([H])c1[H]


 37 41  0  0  0  0  0  0  0  0999 V2000
   22.7704    8.2892   52.3165 C   0  0  0  0  0  0  0  0  0  0  0  0
   22.7270    6.7583   52.0249 C   0  0  0  0  0  0  0  0  0  0  0  0
   21.2788    6.4248   52.0463 C   0  0  0  0  0  0  0  0  0  0  0  0
   20.8678    6.9657   53.4171 C   0  0  0  0  0  0  0  0  0  0  0  0
   20.3685    8.3117   53.0579 C   0  0  0  0  0  0  0  0  0  0  0  0
   21.4472    8.9215   52.1436 C   0  0  0  0  0  0  0  0  0  0  0  0
   20.5547    5.6788   52.9780 N   0  0  0  0  0  0  0  0  0  0  0  0
   19.8958    4.4334   53.2827 C   0  0  0  0  0  0  0  0  0  0  0  0
   19.3936    4.2658   54.4551 O   0  0  0  0  0  0  0  0  0  0  0  0
   19.7576    3.3796   52.3661 N   0  0  0  0  0  0  0  0  0  0  0  0
   20.1313    3.5006   51.3719 H   0  0  0  0  0  0  0  0  0  0  0  0
   21.4826   10.3598   52.2622 C   0  0  0  0  0  0  0  0  0  0  0  0
   21.5101   11.1510   51.1385 C   0  0  0  0  0  0  0  0  0  0  0  0
   21.5607   12.5455   51.2491 C   0  0  0  0  0  0  0  0  0  0  0  0
   21.5840   13.1556   52.4810 C   0  0  0  0  0  0  0  0  0  0  0  0
   21.5569   12.3746   53.5978 C   0  0  0  0  0  0  0  0  0  0  0  0
   21.5065   11.0028   53.4751 C   0  0  0  0  0  0  0  0  0  0  0  0
   19.1603    2.1298   52.6209 C   0  0  0  0  0  0  0  0  0  0  0  0
   17.7712    1.9542   52.5247 C   0  0  0  0  0  0  0  0  0  0  0  0
   17.1829    0.7382   52.7579 C   0  0  0  0  0  0  0  0  0  0  0  0
   17.9420   -0.3699   53.0982 C   0  0  0  0  0  0  0  0  0  0  0  0
   19.3085   -0.2012   53.1942 C   0  0  0  0  0  0  0  0  0  0  0  0
   19.9165    1.0255   52.9610 C   0  0  0  0  0  0  0  0  0  0  0  0
   24.8808    8.5519   53.5662 C   0  0  0  0  0  0  0  0  0  0  0  0
   25.5569    8.3822   52.5173 O   0  0  0  0  0  0  0  0  0  0  0  0
   23.4630    8.5288   53.5400 N   0  0  0  0  0  0  0  0  0  0  0  0
   22.9580    8.7063   54.4133 H   0  0  0  0  0  0  0  0  0  0  0  0
   27.3796    9.0726   57.0031 C   0  0  0  0  0  0  0  0  0  0  0  0
   27.8759    8.6737   55.7656 C   0  0  0  0  0  0  0  0  0  0  0  0
   27.0250    8.5268   54.6968 C   0  0  0  0  0  0  0  0  0  0  0  0
   25.6476    8.7649   54.7943 C   0  0  0  0  0  0  0  0  0  0  0  0
   25.1696    9.1517   55.9945 C   0  0  0  0  0  0  0  0  0  0  0  0
   26.0310    9.3033   57.0901 C   0  0  0  0  0  0  0  0  0  0  0  0
   28.8820   10.4445   58.1440 F   0  0  0  0  0  0  0  0  0  0  0  0
   28.2748    9.2317   58.1681 C   0  0  0  0  0  0  0  0  0  0  0  0
   29.2761    8.2616   58.1908 F   0  0  0  0  0  0  0  0  0  0  0  0
   27.5761    9.1379   59.3590 F   0  0  0  0  0  0  0  0  0  0  0  0
 34 35  1  0  0  0
 35 36  1  0  0  0
 35 37  1  0  0  0
 35 28  1  0  0  0
 28 29  2  0  0  0
 29 30  1  0  0  0
 30 31  2  0  0  0
 31 32  1  0  0  0
 32 33  2  0  0  0
 31 24  1  0  0  0
 24 25  2  0  0  0
 24 26  1  0  0  0
 26  1  1  0  0  0
  1  2  1  0  0  0
  2  3  1  0  0  0
  3  4  1  0  0  0
  4  5  1  0  0  0
  5  6  1  0  0  0
  6 12  1  0  0  0
 12 13  2  0  0  0
 13 14  1  0  0  0
 14 15  2  0  0  0
 15 16  1  0  0  0
 16 17  2  0  0  0
  4  7  1  0  0  0
  7  8  1  0  0  0
  8  9  2  0  0  0
  8 10  1  0  0  0
 10 18  1  0  0  0
 18 19  2  0  0  0
 19 20  1  0  0  0
 20 21  2  0  0  0
 21 22  1  0  0  0
 22 23  2  0  0  0
 33 28  1  0  0  0
  6  1  1  0  0  0
 17 12  1  0  0  0
 23 18  1  0  0  0
  7  3  1  0  0  0
 26 27  1  0  0  0
 10 11  1  0  0  0
M  END
> <minimizedAffinity>
51.22927

> <CNNscore>
0.4038119614

> <CNNaffinity>
6.4261169434

> <CNN_VS>
2.5949428082

> <CNNaffinity_variance>
0.3441408873

$$$$
[H]c1c([H])c([H])c(N([H])C(=O)N2[C@@]3([H])C([H])([H])[C@]([H])(N([H])C(=O)c4c([H])c([H])c(C(F)(F)F)c([H])c4[H])[C@@]([H])(c4c([H])c([H])c([H])c([H])c4[H])C([H])([H])[C@@]23[H])c([H])c1[H]


 37 41  0  0  0  0  0  0  0  0999 V2000
   23.1704    7.8277   54.3139 C   0  0  0  0  0  0  0  0  0  0  0  0
   24.3833    6.8450   54.4985 C   0  0  0  0  0  0  0  0  0  0  0  0
   25.6162    7.3613   53.8993 C   0  0  0  0  0  0  0  0  0  0  0  0
   25.7794    8.7099   53.5073 C   0  0  0  0  0  0  0  0  0  0  0  0
   24.5352    9.5255   53.3070 C   0  0  0  0  0  0  0  0  0  0  0  0
   23.4121    8.4780   53.0379 C   0  0  0  0  0  0  0  0  0  0  0  0
   26.2925    8.3889   54.8016 N   0  0  0  0  0  0  0  0  0  0  0  0
   26.8930    8.4995   56.0854 C   0  0  0  0  0  0  0  0  0  0  0  0
   26.9039    7.4606   56.8511 O   0  0  0  0  0  0  0  0  0  0  0  0
   27.4742    9.6945   56.5413 N   0  0  0  0  0  0  0  0  0  0  0  0
   27.4904   10.5341   55.9253 H   0  0  0  0  0  0  0  0  0  0  0  0
   22.3446    9.0654   52.2553 C   0  0  0  0  0  0  0  0  0  0  0  0
   22.1603   10.4458   52.2607 C   0  0  0  0  0  0  0  0  0  0  0  0
   21.1544   11.0821   51.5845 C   0  0  0  0  0  0  0  0  0  0  0  0
   20.2498   10.3354   50.8378 C   0  0  0  0  0  0  0  0  0  0  0  0
   20.4328    8.9663   50.8293 C   0  0  0  0  0  0  0  0  0  0  0  0
   21.4511    8.3286   51.5172 C   0  0  0  0  0  0  0  0  0  0  0  0
   28.0600    9.8302   57.8221 C   0  0  0  0  0  0  0  0  0  0  0  0
   28.3222    8.7332   58.6024 C   0  0  0  0  0  0  0  0  0  0  0  0
   28.9655    8.8607   59.8505 C   0  0  0  0  0  0  0  0  0  0  0  0
   29.3422   10.0871   60.3074 C   0  0  0  0  0  0  0  0  0  0  0  0
   29.0830   11.2053   59.5350 C   0  0  0  0  0  0  0  0  0  0  0  0
   28.4471   11.0702   58.3011 C   0  0  0  0  0  0  0  0  0  0  0  0
   21.4255    6.3431   53.5214 C   0  0  0  0  0  0  0  0  0  0  0  0
   21.9888    6.3355   52.3619 O   0  0  0  0  0  0  0  0  0  0  0  0
   21.9972    7.0947   54.5897 N   0  0  0  0  0  0  0  0  0  0  0  0
   21.5507    7.0911   55.5126 H   0  0  0  0  0  0  0  0  0  0  0  0
   17.7557    4.3078   54.0796 C   0  0  0  0  0  0  0  0  0  0  0  0
   17.7746    5.6775   53.9391 C   0  0  0  0  0  0  0  0  0  0  0  0
   18.9921    6.2754   53.7540 C   0  0  0  0  0  0  0  0  0  0  0  0
   20.2047    5.5766   53.7032 C   0  0  0  0  0  0  0  0  0  0  0  0
   20.1401    4.2189   53.8455 C   0  0  0  0  0  0  0  0  0  0  0  0
   18.9311    3.5528   54.0338 C   0  0  0  0  0  0  0  0  0  0  0  0
   15.4368    4.5092   53.8294 F   0  0  0  0  0  0  0  0  0  0  0  0
   16.4459    3.6507   54.2820 C   0  0  0  0  0  0  0  0  0  0  0  0
   16.2217    3.4629   55.6124 F   0  0  0  0  0  0  0  0  0  0  0  0
   16.3349    2.4629   53.5859 F   0  0  0  0  0  0  0  0  0  0  0  0
 34 35  1  0  0  0
 35 36  1  0  0  0
 35 37  1  0  0  0
 35 28  1  0  0  0
 28 29  2  0  0  0
 29 30  1  0  0  0
 30 31  2  0  0  0
 31 32  1  0  0  0
 32 33  2  0  0  0
 31 24  1  0  0  0
 24 25  2  0  0  0
 24 26  1  0  0  0
 26  1  1  0  0  0
  1  2  1  0  0  0
  2  3  1  0  0  0
  3  4  1  0  0  0
  4  5  1  0  0  0
  5  6  1  0  0  0
  6 12  1  0  0  0
 12 13  2  0  0  0
 13 14  1  0  0  0
 14 15  2  0  0  0
 15 16  1  0  0  0
 16 17  2  0  0  0
  4  7  1  0  0  0
  7  8  1  0  0  0
  8  9  2  0  0  0
  8 10  1  0  0  0
 10 18  1  0  0  0
 18 19  2  0  0  0
 19 20  1  0  0  0
 20 21  2  0  0  0
 21 22  1  0  0  0
 22 23  2  0  0  0
 33 28  1  0  0  0
  6  1  1  0  0  0
 17 12  1  0  0  0
 23 18  1  0  0  0
  7  3  1  0  0  0
 26 27  1  0  0  0
 10 11  1  0  0  0
M  END
> <minimizedAffinity>
32.73573

> <CNNscore>
0.4652127624

> <CNNaffinity>
6.1523585320

> <CNN_VS>
2.8621556759

> <CNNaffinity_variance>
0.2796356678

$$$$
[H]c1c([H])c([H])c(N([H])C(=O)N2[C@@]3([H])C([H])([H])[C@]([H])(N([H])C(=O)c4c([H])c([H])c(C(F)(F)F)c([H])c4[H])[C@@]([H])(c4c([H])c([H])c([H])c([H])c4[H])C([H])([H])[C@@]23[H])c([H])c1[H]


 37 41  0  0  0  0  0  0  0  0999 V2000
   22.3194    6.7616   53.4121 C   0  0  0  0  0  0  0  0  0  0  0  0
   22.2763    7.7495   54.6339 C   0  0  0  0  0  0  0  0  0  0  0  0
   22.7723    7.1339   55.8671 C   0  0  0  0  0  0  0  0  0  0  0  0
   23.5089    5.9274   55.8868 C   0  0  0  0  0  0  0  0  0  0  0  0
   23.4168    5.0430   54.6773 C   0  0  0  0  0  0  0  0  0  0  0  0
   22.0789    5.4501   53.9880 C   0  0  0  0  0  0  0  0  0  0  0  0
   24.2970    7.1187   55.9143 N   0  0  0  0  0  0  0  0  0  0  0  0
   25.4058    8.0082   55.9353 C   0  0  0  0  0  0  0  0  0  0  0  0
   25.1785    9.2767   55.8638 O   0  0  0  0  0  0  0  0  0  0  0  0
   26.7312    7.5528   56.0348 N   0  0  0  0  0  0  0  0  0  0  0  0
   26.9270    6.5330   56.1140 H   0  0  0  0  0  0  0  0  0  0  0  0
   21.5512    4.3491   53.2094 C   0  0  0  0  0  0  0  0  0  0  0  0
   22.0306    4.1182   51.9223 C   0  0  0  0  0  0  0  0  0  0  0  0
   21.5618    3.1280   51.1017 C   0  0  0  0  0  0  0  0  0  0  0  0
   20.5509    2.2855   51.5508 C   0  0  0  0  0  0  0  0  0  0  0  0
   20.0762    2.5113   52.8281 C   0  0  0  0  0  0  0  0  0  0  0  0
   20.5532    3.5162   53.6524 C   0  0  0  0  0  0  0  0  0  0  0  0
   27.8488    8.4204   56.0386 C   0  0  0  0  0  0  0  0  0  0  0  0
   28.1773    9.1499   57.1526 C   0  0  0  0  0  0  0  0  0  0  0  0
   29.3277    9.9645   57.1801 C   0  0  0  0  0  0  0  0  0  0  0  0
   30.1414   10.0415   56.0907 C   0  0  0  0  0  0  0  0  0  0  0  0
   29.8242    9.3149   54.9570 C   0  0  0  0  0  0  0  0  0  0  0  0
   28.6848    8.5107   54.9386 C   0  0  0  0  0  0  0  0  0  0  0  0
   21.2638    8.7201   52.4492 C   0  0  0  0  0  0  0  0  0  0  0  0
   21.7961    9.4370   53.3789 O   0  0  0  0  0  0  0  0  0  0  0  0
   21.5050    7.3155   52.4021 N   0  0  0  0  0  0  0  0  0  0  0  0
   21.0867    6.7503   51.6561 H   0  0  0  0  0  0  0  0  0  0  0  0
   18.6922   10.4332   49.5555 C   0  0  0  0  0  0  0  0  0  0  0  0
   18.4508    9.1645   50.0334 C   0  0  0  0  0  0  0  0  0  0  0  0
   19.3145    8.6701   50.9733 C   0  0  0  0  0  0  0  0  0  0  0  0
   20.4186    9.3766   51.4667 C   0  0  0  0  0  0  0  0  0  0  0  0
   20.6202   10.6324   50.9665 C   0  0  0  0  0  0  0  0  0  0  0  0
   19.7747   11.1913   50.0107 C   0  0  0  0  0  0  0  0  0  0  0  0
   16.5339   11.2426   49.1468 F   0  0  0  0  0  0  0  0  0  0  0  0
   17.7665   10.9774   48.5381 C   0  0  0  0  0  0  0  0  0  0  0  0
   17.5271   10.0395   47.5797 F   0  0  0  0  0  0  0  0  0  0  0  0
   18.2246   12.1545   47.9793 F   0  0  0  0  0  0  0  0  0  0  0  0
 34 35  1  0  0  0
 35 36  1  0  0  0
 35 37  1  0  0  0
 35 28  1  0  0  0
 28 29  2  0  0  0
 29 30  1  0  0  0
 30 31  2  0  0  0
 31 32  1  0  0  0
 32 33  2  0  0  0
 31 24  1  0  0  0
 24 25  2  0  0  0
 24 26  1  0  0  0
 26  1  1  0  0  0
  1  2  1  0  0  0
  2  3  1  0  0  0
  3  4  1  0  0  0
  4  5  1  0  0  0
  5  6  1  0  0  0
  6 12  1  0  0  0
 12 13  2  0  0  0
 13 14  1  0  0  0
 14 15  2  0  0  0
 15 16  1  0  0  0
 16 17  2  0  0  0
  4  7  1  0  0  0
  7  8  1  0  0  0
  8  9  2  0  0  0
  8 10  1  0  0  0
 10 18  1  0  0  0
 18 19  2  0  0  0
 19 20  1  0  0  0
 20 21  2  0  0  0
 21 22  1  0  0  0
 22 23  2  0  0  0
 33 28  1  0  0  0
  6  1  1  0  0  0
 17 12  1  0  0  0
 23 18  1  0  0  0
  7  3  1  0  0  0
 26 27  1  0  0  0
 10 11  1  0  0  0
M  END
> <minimizedAffinity>
113.39915

> <CNNscore>
0.0060994630

> <CNNaffinity>
4.6652317047

> <CNN_VS>
0.0284554083

> <CNNaffinity_variance>
1.6201076508

$$$$
[H]c1c([H])c([H])c(N([H])C(=O)N2[C@@]3([H])C([H])([H])[C@]([H])(N([H])C(=O)c4c([H])c([H])c(C(F)(F)F)c([H])c4[H])[C@@]([H])(c4c([H])c([H])c([H])c([H])c4[H])C([H])([H])[C@@]23[H])c([H])c1[H]


 37 41  0  0  0  0  0  0  0  0999 V2000
   26.3172    8.1663   57.2648 C   0  0  0  0  0  0  0  0  0  0  0  0
   26.1098    9.5258   58.0260 C   0  0  0  0  0  0  0  0  0  0  0  0
   27.3220    9.9675   58.7198 C   0  0  0  0  0  0  0  0  0  0  0  0
   28.6017    9.4248   58.4616 C   0  0  0  0  0  0  0  0  0  0  0  0
   28.6597    8.0887   57.7797 C   0  0  0  0  0  0  0  0  0  0  0  0
   27.2759    7.4326   58.0722 C   0  0  0  0  0  0  0  0  0  0  0  0
   28.3052   10.6358   57.7638 N   0  0  0  0  0  0  0  0  0  0  0  0
   28.4097   11.7633   56.9042 C   0  0  0  0  0  0  0  0  0  0  0  0
   27.3867   12.5406   56.7817 O   0  0  0  0  0  0  0  0  0  0  0  0
   29.5847   12.0576   56.1924 N   0  0  0  0  0  0  0  0  0  0  0  0
   30.4239   11.4501   56.2983 H   0  0  0  0  0  0  0  0  0  0  0  0
   27.3775    5.9887   58.0297 C   0  0  0  0  0  0  0  0  0  0  0  0
   26.9749    5.2332   59.1282 C   0  0  0  0  0  0  0  0  0  0  0  0
   27.0729    3.8693   59.1912 C   0  0  0  0  0  0  0  0  0  0  0  0
   27.5979    3.1683   58.1112 C   0  0  0  0  0  0  0  0  0  0  0  0
   27.9952    3.9158   57.0198 C   0  0  0  0  0  0  0  0  0  0  0  0
   27.8954    5.2956   56.9633 C   0  0  0  0  0  0  0  0  0  0  0  0
   29.7027   13.1636   55.3180 C   0  0  0  0  0  0  0  0  0  0  0  0
   29.7643   12.9904   53.9588 C   0  0  0  0  0  0  0  0  0  0  0  0
   29.8157   14.0939   53.0827 C   0  0  0  0  0  0  0  0  0  0  0  0
   29.8042   15.3635   53.5753 C   0  0  0  0  0  0  0  0  0  0  0  0
   29.7454   15.5574   54.9438 C   0  0  0  0  0  0  0  0  0  0  0  0
   29.6938   14.4603   55.8034 C   0  0  0  0  0  0  0  0  0  0  0  0
   24.8434    7.1133   55.6535 C   0  0  0  0  0  0  0  0  0  0  0  0
   25.8243    7.0685   54.8184 O   0  0  0  0  0  0  0  0  0  0  0  0
   25.0355    7.6655   56.9540 N   0  0  0  0  0  0  0  0  0  0  0  0
   24.2550    7.6914   57.6181 H   0  0  0  0  0  0  0  0  0  0  0  0
   21.0966    5.7364   54.2439 C   0  0  0  0  0  0  0  0  0  0  0  0
   21.9018    6.5061   53.4343 C   0  0  0  0  0  0  0  0  0  0  0  0
   23.1045    6.9136   53.9457 C   0  0  0  0  0  0  0  0  0  0  0  0
   23.5525    6.5953   55.2339 C   0  0  0  0  0  0  0  0  0  0  0  0
   22.7229    5.8285   56.0030 C   0  0  0  0  0  0  0  0  0  0  0  0
   21.4884    5.3810   55.5377 C   0  0  0  0  0  0  0  0  0  0  0  0
   19.5478    5.9729   52.5045 F   0  0  0  0  0  0  0  0  0  0  0  0
   19.7938    5.2916   53.7026 C   0  0  0  0  0  0  0  0  0  0  0  0
   18.7922    5.6432   54.5564 F   0  0  0  0  0  0  0  0  0  0  0  0
   19.7657    3.9373   53.4330 F   0  0  0  0  0  0  0  0  0  0  0  0
 34 35  1  0  0  0
 35 36  1  0  0  0
 35 37  1  0  0  0
 35 28  1  0  0  0
 28 29  2  0  0  0
 29 30  1  0  0  0
 30 31  2  0  0  0
 31 32  1  0  0  0
 32 33  2  0  0  0
 31 24  1  0  0  0
 24 25  2  0  0  0
 24 26  1  0  0  0
 26  1  1  0  0  0
  1  2  1  0  0  0
  2  3  1  0  0  0
  3  4  1  0  0  0
  4  5  1  0  0  0
  5  6  1  0  0  0
  6 12  1  0  0  0
 12 13  2  0  0  0
 13 14  1  0  0  0
 14 15  2  0  0  0
 15 16  1  0  0  0
 16 17  2  0  0  0
  4  7  1  0  0  0
  7  8  1  0  0  0
  8  9  2  0  0  0
  8 10  1  0  0  0
 10 18  1  0  0  0
 18 19  2  0  0  0
 19 20  1  0  0  0
 20 21  2  0  0  0
 21 22  1  0  0  0
 22 23  2  0  0  0
 33 28  1  0  0  0
  6  1  1  0  0  0
 17 12  1  0  0  0
 23 18  1  0  0  0
  7  3  1  0  0  0
 26 27  1  0  0  0
 10 11  1  0  0  0
M  END
> <minimizedAffinity>
159.01894

> <CNNscore>
0.0033936484

> <CNNaffinity>
4.0736289024

> <CNN_VS>
0.0138244648

> <CNNaffinity_variance>
1.4388195276

$$$$
[H]c1c([H])c([H])c(N([H])C(=O)N2[C@@]3([H])C([H])([H])[C@]([H])(N([H])C(=O)c4c([H])c([H])c(C(F)(F)F)c([H])c4[H])[C@@]([H])(c4c([H])c([H])c([H])c([H])c4[H])C([H])([H])[C@@]23[H])c([H])c1[H]


 37 41  0  0  0  0  0  0  0  0999 V2000
   22.9659    5.4264   56.4913 C   0  0  0  0  0  0  0  0  0  0  0  0
   23.5075    4.9795   57.8976 C   0  0  0  0  0  0  0  0  0  0  0  0
   23.2325    3.5685   58.1790 C   0  0  0  0  0  0  0  0  0  0  0  0
   22.8378    2.6445   57.1843 C   0  0  0  0  0  0  0  0  0  0  0  0
   22.2802    3.2022   55.9069 C   0  0  0  0  0  0  0  0  0  0  0  0
   21.7712    4.6269   56.2838 C   0  0  0  0  0  0  0  0  0  0  0  0
   24.2345    2.6510   57.4851 N   0  0  0  0  0  0  0  0  0  0  0  0
   25.6250    2.3559   57.4650 C   0  0  0  0  0  0  0  0  0  0  0  0
   26.4120    3.0484   58.2179 O   0  0  0  0  0  0  0  0  0  0  0  0
   26.1645    1.3387   56.6600 N   0  0  0  0  0  0  0  0  0  0  0  0
   25.5378    0.7590   56.0635 H   0  0  0  0  0  0  0  0  0  0  0  0
   20.7094    5.0414   55.3906 C   0  0  0  0  0  0  0  0  0  0  0  0
   20.7172    6.3267   54.8543 C   0  0  0  0  0  0  0  0  0  0  0  0
   19.7353    6.8159   54.0357 C   0  0  0  0  0  0  0  0  0  0  0  0
   18.6557    6.0067   53.6993 C   0  0  0  0  0  0  0  0  0  0  0  0
   18.6478    4.7307   54.2281 C   0  0  0  0  0  0  0  0  0  0  0  0
   19.6432    4.2426   55.0574 C   0  0  0  0  0  0  0  0  0  0  0  0
   27.5470    1.0419   56.6117 C   0  0  0  0  0  0  0  0  0  0  0  0
   28.2549    1.1465   55.4416 C   0  0  0  0  0  0  0  0  0  0  0  0
   29.6451    0.9149   55.4050 C   0  0  0  0  0  0  0  0  0  0  0  0
   30.3164    0.5807   56.5419 C   0  0  0  0  0  0  0  0  0  0  0  0
   29.6181    0.4677   57.7309 C   0  0  0  0  0  0  0  0  0  0  0  0
   28.2431    0.6995   57.7585 C   0  0  0  0  0  0  0  0  0  0  0  0
   22.4051    7.4986   57.6176 C   0  0  0  0  0  0  0  0  0  0  0  0
   21.9585    6.8114   58.6126 O   0  0  0  0  0  0  0  0  0  0  0  0
   22.9548    6.8370   56.4804 N   0  0  0  0  0  0  0  0  0  0  0  0
   23.3167    7.3874   55.6949 H   0  0  0  0  0  0  0  0  0  0  0  0
   22.3006   11.7307   57.6235 C   0  0  0  0  0  0  0  0  0  0  0  0
   22.7617   11.0499   56.5188 C   0  0  0  0  0  0  0  0  0  0  0  0
   22.7632    9.6822   56.5765 C   0  0  0  0  0  0  0  0  0  0  0  0
   22.3284    8.9478   57.6869 C   0  0  0  0  0  0  0  0  0  0  0  0
   21.8775    9.6629   58.7607 C   0  0  0  0  0  0  0  0  0  0  0  0
   21.8490   11.0558   58.7611 C   0  0  0  0  0  0  0  0  0  0  0  0
   21.0177   13.6671   57.9147 F   0  0  0  0  0  0  0  0  0  0  0  0
   22.2959   13.2091   57.5733 C   0  0  0  0  0  0  0  0  0  0  0  0
   22.5268   13.6308   56.2988 F   0  0  0  0  0  0  0  0  0  0  0  0
   23.1972   13.7727   58.4552 F   0  0  0  0  0  0  0  0  0  0  0  0
 34 35  1  0  0  0
 35 36  1  0  0  0
 35 37  1  0  0  0
 35 28  1  0  0  0
 28 29  2  0  0  0
 29 30  1  0  0  0
 30 31  2  0  0  0
 31 32  1  0  0  0
 32 33  2  0  0  0
 31 24  1  0  0  0
 24 25  2  0  0  0
 24 26  1  0  0  0
 26  1  1  0  0  0
  1  2  1  0  0  0
  2  3  1  0  0  0
  3  4  1  0  0  0
  4  5  1  0  0  0
  5  6  1  0  0  0
  6 12  1  0  0  0
 12 13  2  0  0  0
 13 14  1  0  0  0
 14 15  2  0  0  0
 15 16  1  0  0  0
 16 17  2  0  0  0
  4  7  1  0  0  0
  7  8  1  0  0  0
  8  9  2  0  0  0
  8 10  1  0  0  0
 10 18  1  0  0  0
 18 19  2  0  0  0
 19 20  1  0  0  0
 20 21  2  0  0  0
 21 22  1  0  0  0
 22 23  2  0  0  0
 33 28  1  0  0  0
  6  1  1  0  0  0
 17 12  1  0  0  0
 23 18  1  0  0  0
  7  3  1  0  0  0
 26 27  1  0  0  0
 10 11  1  0  0  0
M  END
> <minimizedAffinity>
269.75211

> <CNNscore>
0.0000432747

> <CNNaffinity>
2.8904292583

> <CNN_VS>
0.0001250824

> <CNNaffinity_variance>
1.3193659782

$$$$
[H]c1c([H])c([H])c(N([H])C(=O)N2[C@]3([H])C([H])([H])[C@]([H])(N([H])C(=O)c4c([H])c([H])c(C(F)(F)F)c([H])c4[H])[C@@]([H])(c4c([H])c([H])c([H])c([H])c4[H])C([H])([H])[C@@]23[H])c([H])c1[H]


 37 41  0  0  0  0  0  0  0  0999 V2000
   26.2945    8.1423   52.9908 C   0  0  0  0  0  0  0  0  0  0  0  0
   27.5066    7.9863   53.8607 C   0  0  0  0  0  0  0  0  0  0  0  0
   27.1107    8.2576   55.2347 C   0  0  0  0  0  0  0  0  0  0  0  0
   26.7325    9.7269   55.1338 C   0  0  0  0  0  0  0  0  0  0  0  0
   25.3144    9.6798   54.7635 C   0  0  0  0  0  0  0  0  0  0  0  0
   25.0782    8.7972   53.6076 C   0  0  0  0  0  0  0  0  0  0  0  0
   27.4695    9.2250   56.1917 N   0  0  0  0  0  0  0  0  0  0  0  0
   28.1603    9.4385   57.4517 C   0  0  0  0  0  0  0  0  0  0  0  0
   28.2306   10.5798   57.9518 O   0  0  0  0  0  0  0  0  0  0  0  0
   28.7619    8.3487   58.1249 N   0  0  0  0  0  0  0  0  0  0  0  0
   28.6249    7.4206   57.5707 H   0  0  0  0  0  0  0  0  0  0  0  0
   23.9230    7.9106   53.6648 C   0  0  0  0  0  0  0  0  0  0  0  0
   22.6945    8.3028   53.2304 C   0  0  0  0  0  0  0  0  0  0  0  0
   21.5856    7.4895   53.3005 C   0  0  0  0  0  0  0  0  0  0  0  0
   21.7078    6.2110   53.8336 C   0  0  0  0  0  0  0  0  0  0  0  0
   22.9356    5.7849   54.2798 C   0  0  0  0  0  0  0  0  0  0  0  0
   24.0192    6.6429   54.1866 C   0  0  0  0  0  0  0  0  0  0  0  0
   29.4590    8.3267   59.3279 C   0  0  0  0  0  0  0  0  0  0  0  0
   30.0693    9.5285   59.7169 C   0  0  0  0  0  0  0  0  0  0  0  0
   30.7943    9.6523   60.8639 C   0  0  0  0  0  0  0  0  0  0  0  0
   30.9591    8.5803   61.7029 C   0  0  0  0  0  0  0  0  0  0  0  0
   30.3673    7.3936   61.3381 C   0  0  0  0  0  0  0  0  0  0  0  0
   29.6200    7.2719   60.1515 C   0  0  0  0  0  0  0  0  0  0  0  0
   27.8137    9.5191   51.5233 C   0  0  0  0  0  0  0  0  0  0  0  0
   28.6482    9.6164   52.4728 O   0  0  0  0  0  0  0  0  0  0  0  0
   26.6408    8.8090   51.7206 N   0  0  0  0  0  0  0  0  0  0  0  0
   25.9563    8.7359   50.9364 H   0  0  0  0  0  0  0  0  0  0  0  0
   28.6491   11.4554   47.8109 C   0  0  0  0  0  0  0  0  0  0  0  0
   28.5106   10.0721   47.8689 C   0  0  0  0  0  0  0  0  0  0  0  0
   28.2447    9.4431   49.0798 C   0  0  0  0  0  0  0  0  0  0  0  0
   28.1100   10.1560   50.2525 C   0  0  0  0  0  0  0  0  0  0  0  0
   28.2563   11.5430   50.1569 C   0  0  0  0  0  0  0  0  0  0  0  0
   28.5190   12.1830   48.9718 C   0  0  0  0  0  0  0  0  0  0  0  0
   30.1098   12.8845   46.6641 F   0  0  0  0  0  0  0  0  0  0  0  0
   28.9443   12.1520   46.5048 C   0  0  0  0  0  0  0  0  0  0  0  0
   27.8879   12.9844   46.2599 F   0  0  0  0  0  0  0  0  0  0  0  0
   29.1867   11.2436   45.4923 F   0  0  0  0  0  0  0  0  0  0  0  0
 34 35  1  0  0  0
 35 36  1  0  0  0
 35 37  1  0  0  0
 35 28  1  0  0  0
 28 29  2  0  0  0
 29 30  1  0  0  0
 30 31  2  0  0  0
 31 32  1  0  0  0
 32 33  2  0  0  0
 31 24  1  0  0  0
 24 25  2  0  0  0
 24 26  1  0  0  0
 26  1  1  0  0  0
  1  2  1  0  0  0
  2  3  1  0  0  0
  3  4  1  0  0  0
  4  5  1  0  0  0
  5  6  1  0  0  0
  6 12  1  0  0  0
 12 13  2  0  0  0
 13 14  1  0  0  0
 14 15  2  0  0  0
 15 16  1  0  0  0
 16 17  2  0  0  0
  4  7  1  0  0  0
  7  8  1  0  0  0
  8  9  2  0  0  0
  8 10  1  0  0  0
 10 18  1  0  0  0
 18 19  2  0  0  0
 19 20  1  0  0  0
 20 21  2  0  0  0
 21 22  1  0  0  0
 22 23  2  0  0  0
 33 28  1  0  0  0
  6  1  1  0  0  0
 17 12  1  0  0  0
 23 18  1  0  0  0
  7  3  1  0  0  0
 26 27  1  0  0  0
 10 11  1  0  0  0
M  END
> <minimizedAffinity>
33.59631

> <CNNscore>
0.5361315608

> <CNNaffinity>
6.2010998726

> <CNN_VS>
3.3246054649

> <CNNaffinity_variance>
0.1056819409

$$$$
[H]c1c([H])c([H])c(N([H])C(=O)N2[C@]3([H])C([H])([H])[C@]([H])(N([H])C(=O)c4c([H])c([H])c(C(F)(F)F)c([H])c4[H])[C@@]([H])(c4c([H])c([H])c([H])c([H])c4[H])C([H])([H])[C@@]23[H])c([H])c1[H]


 37 41  0  0  0  0  0  0  0  0999 V2000
   21.2379    9.3584   54.4935 C   0  0  0  0  0  0  0  0  0  0  0  0
   22.0747    9.3386   55.7383 C   0  0  0  0  0  0  0  0  0  0  0  0
   23.4497    9.6283   55.3593 C   0  0  0  0  0  0  0  0  0  0  0  0
   23.7678    8.4125   54.5032 C   0  0  0  0  0  0  0  0  0  0  0  0
   23.3400    8.8287   53.1638 C   0  0  0  0  0  0  0  0  0  0  0  0
   21.9671    9.3638   53.1679 C   0  0  0  0  0  0  0  0  0  0  0  0
   24.6625    8.9180   55.4296 N   0  0  0  0  0  0  0  0  0  0  0  0
   25.9580    8.8574   56.0842 C   0  0  0  0  0  0  0  0  0  0  0  0
   26.7731    7.9571   55.7969 O   0  0  0  0  0  0  0  0  0  0  0  0
   26.3072    9.8236   57.0575 N   0  0  0  0  0  0  0  0  0  0  0  0
   25.5001   10.5401   57.2072 H   0  0  0  0  0  0  0  0  0  0  0  0
   21.7128   10.5659   52.3843 C   0  0  0  0  0  0  0  0  0  0  0  0
   21.2245   10.5061   51.1155 C   0  0  0  0  0  0  0  0  0  0  0  0
   21.0027   11.6287   50.3497 C   0  0  0  0  0  0  0  0  0  0  0  0
   21.2827   12.8839   50.8789 C   0  0  0  0  0  0  0  0  0  0  0  0
   21.7756   12.9777   52.1581 C   0  0  0  0  0  0  0  0  0  0  0  0
   21.9809   11.8170   52.8859 C   0  0  0  0  0  0  0  0  0  0  0  0
   27.4795    9.9552   57.7939 C   0  0  0  0  0  0  0  0  0  0  0  0
   27.9181    8.8113   58.4774 C   0  0  0  0  0  0  0  0  0  0  0  0
   29.0425    8.7954   59.2470 C   0  0  0  0  0  0  0  0  0  0  0  0
   29.8074    9.9250   59.3861 C   0  0  0  0  0  0  0  0  0  0  0  0
   29.3931   11.0562   58.7226 C   0  0  0  0  0  0  0  0  0  0  0  0
   28.2303   11.0664   57.9295 C   0  0  0  0  0  0  0  0  0  0  0  0
   20.1490    7.2908   53.5467 C   0  0  0  0  0  0  0  0  0  0  0  0
   20.9650    7.3013   52.5764 O   0  0  0  0  0  0  0  0  0  0  0  0
   20.2348    8.2763   54.5165 N   0  0  0  0  0  0  0  0  0  0  0  0
   19.5579    8.2642   55.3104 H   0  0  0  0  0  0  0  0  0  0  0  0
   17.1508    4.2609   53.7910 C   0  0  0  0  0  0  0  0  0  0  0  0
   18.4913    3.9162   53.6484 C   0  0  0  0  0  0  0  0  0  0  0  0
   19.4653    4.9044   53.5628 C   0  0  0  0  0  0  0  0  0  0  0  0
   19.1445    6.2446   53.6154 C   0  0  0  0  0  0  0  0  0  0  0  0
   17.7887    6.5538   53.7580 C   0  0  0  0  0  0  0  0  0  0  0  0
   16.8121    5.5937   53.8441 C   0  0  0  0  0  0  0  0  0  0  0  0
   14.9306    3.7015   53.2921 F   0  0  0  0  0  0  0  0  0  0  0  0
   16.0813    3.1994   53.8786 C   0  0  0  0  0  0  0  0  0  0  0  0
   15.8745    2.9640   55.2093 F   0  0  0  0  0  0  0  0  0  0  0  0
   16.4292    2.0723   53.1590 F   0  0  0  0  0  0  0  0  0  0  0  0
 34 35  1  0  0  0
 35 36  1  0  0  0
 35 37  1  0  0  0
 35 28  1  0  0  0
 28 29  2  0  0  0
 29 30  1  0  0  0
 30 31  2  0  0  0
 31 32  1  0  0  0
 32 33  2  0  0  0
 31 24  1  0  0  0
 24 25  2  0  0  0
 24 26  1  0  0  0
 26  1  1  0  0  0
  1  2  1  0  0  0
  2  3  1  0  0  0
  3  4  1  0  0  0
  4  5  1  0  0  0
  5  6  1  0  0  0
  6 12  1  0  0  0
 12 13  2  0  0  0
 13 14  1  0  0  0
 14 15  2  0  0  0
 15 16  1  0  0  0
 16 17  2  0  0  0
  4  7  1  0  0  0
  7  8  1  0  0  0
  8  9  2  0  0  0
  8 10  1  0  0  0
 10 18  1  0  0  0
 18 19  2  0  0  0
 19 20  1  0  0  0
 20 21  2  0  0  0
 21 22  1  0  0  0
 22 23  2  0  0  0
 33 28  1  0  0  0
  6  1  1  0  0  0
 17 12  1  0  0  0
 23 18  1  0  0  0
  7  3  1  0  0  0
 26 27  1  0  0  0
 10 11  1  0  0  0
M  END
> <minimizedAffinity>
31.18418

> <CNNscore>
0.5228645205

> <CNNaffinity>
6.2838301659

> <CNN_VS>
3.2855918407

> <CNNaffinity_variance>
0.2805436254

$$$$
[H]c1c([H])c([H])c(N([H])C(=O)N2[C@]3([H])C([H])([H])[C@]([H])(N([H])C(=O)c4c([H])c([H])c(C(F)(F)F)c([H])c4[H])[C@@]([H])(c4c([H])c([H])c([H])c([H])c4[H])C([H])([H])[C@@]23[H])c([H])c1[H]


 37 41  0  0  0  0  0  0  0  0999 V2000
   26.6036    8.0897   53.3064 C   0  0  0  0  0  0  0  0  0  0  0  0
   25.7089    6.9972   53.8125 C   0  0  0  0  0  0  0  0  0  0  0  0
   24.4268    7.1169   53.1343 C   0  0  0  0  0  0  0  0  0  0  0  0
   23.9523    8.4609   53.6643 C   0  0  0  0  0  0  0  0  0  0  0  0
   24.5179    9.4144   52.7046 C   0  0  0  0  0  0  0  0  0  0  0  0
   25.9599    9.1938   52.4968 C   0  0  0  0  0  0  0  0  0  0  0  0
   23.1081    7.3701   53.5555 N   0  0  0  0  0  0  0  0  0  0  0  0
   21.7876    6.7858   53.7141 C   0  0  0  0  0  0  0  0  0  0  0  0
   20.8471    7.4596   54.1822 O   0  0  0  0  0  0  0  0  0  0  0  0
   21.5563    5.4415   53.3370 N   0  0  0  0  0  0  0  0  0  0  0  0
   22.4649    4.9796   52.9519 H   0  0  0  0  0  0  0  0  0  0  0  0
   26.4591    9.2609   51.1293 C   0  0  0  0  0  0  0  0  0  0  0  0
   26.1383   10.2888   50.2973 C   0  0  0  0  0  0  0  0  0  0  0  0
   26.5782   10.3567   48.9943 C   0  0  0  0  0  0  0  0  0  0  0  0
   27.3851    9.3420   48.4910 C   0  0  0  0  0  0  0  0  0  0  0  0
   27.7278    8.2908   49.3069 C   0  0  0  0  0  0  0  0  0  0  0  0
   27.2583    8.2707   50.6100 C   0  0  0  0  0  0  0  0  0  0  0  0
   20.3854    4.6938   53.3972 C   0  0  0  0  0  0  0  0  0  0  0  0
   19.3401    5.2328   54.1621 C   0  0  0  0  0  0  0  0  0  0  0  0
   18.1405    4.6062   54.3205 C   0  0  0  0  0  0  0  0  0  0  0  0
   17.9032    3.3949   53.7234 C   0  0  0  0  0  0  0  0  0  0  0  0
   18.9164    2.8511   52.9690 C   0  0  0  0  0  0  0  0  0  0  0  0
   20.1537    3.5031   52.8096 C   0  0  0  0  0  0  0  0  0  0  0  0
   26.8969    8.9224   55.6680 C   0  0  0  0  0  0  0  0  0  0  0  0
   25.6820    8.6579   55.9157 O   0  0  0  0  0  0  0  0  0  0  0  0
   27.4035    8.6658   54.4045 N   0  0  0  0  0  0  0  0  0  0  0  0
   28.4032    8.8893   54.2059 H   0  0  0  0  0  0  0  0  0  0  0  0
   29.3741   10.5210   58.7563 C   0  0  0  0  0  0  0  0  0  0  0  0
   28.0684   10.9739   58.5947 C   0  0  0  0  0  0  0  0  0  0  0  0
   27.2655   10.4565   57.5846 C   0  0  0  0  0  0  0  0  0  0  0  0
   27.7261    9.4885   56.7170 C   0  0  0  0  0  0  0  0  0  0  0  0
   29.0423    9.0581   56.9083 C   0  0  0  0  0  0  0  0  0  0  0  0
   29.8509    9.5560   57.8988 C   0  0  0  0  0  0  0  0  0  0  0  0
   29.4440   11.5917   60.8395 F   0  0  0  0  0  0  0  0  0  0  0  0
   30.2599   11.0779   59.8442 C   0  0  0  0  0  0  0  0  0  0  0  0
   30.9995   12.0750   59.2719 F   0  0  0  0  0  0  0  0  0  0  0  0
   31.0201   10.0855   60.4329 F   0  0  0  0  0  0  0  0  0  0  0  0
 34 35  1  0  0  0
 35 36  1  0  0  0
 35 37  1  0  0  0
 35 28  1  0  0  0
 28 29  2  0  0  0
 29 30  1  0  0  0
 30 31  2  0  0  0
 31 32  1  0  0  0
 32 33  2  0  0  0
 31 24  1  0  0  0
 24 25  2  0  0  0
 24 26  1  0  0  0
 26  1  1  0  0  0
  1  2  1  0  0  0
  2  3  1  0  0  0
  3  4  1  0  0  0
  4  5  1  0  0  0
  5  6  1  0  0  0
  6 12  1  0  0  0
 12 13  2  0  0  0
 13 14  1  0  0  0
 14 15  2  0  0  0
 15 16  1  0  0  0
 16 17  2  0  0  0
  4  7  1  0  0  0
  7  8  1  0  0  0
  8  9  2  0  0  0
  8 10  1  0  0  0
 10 18  1  0  0  0
 18 19  2  0  0  0
 19 20  1  0  0  0
 20 21  2  0  0  0
 21 22  1  0  0  0
 22 23  2  0  0  0
 33 28  1  0  0  0
  6  1  1  0  0  0
 17 12  1  0  0  0
 23 18  1  0  0  0
  7  3  1  0  0  0
 26 27  1  0  0  0
 10 11  1  0  0  0
M  END
> <minimizedAffinity>
76.46156

> <CNNscore>
0.1334359944

> <CNNaffinity>
5.3963313103

> <CNN_VS>
0.7200648189

> <CNNaffinity_variance>
0.3910683393

$$$$
[H]c1c([H])c([H])c(N([H])C(=O)N2[C@]3([H])C([H])([H])[C@]([H])(N([H])C(=O)c4c([H])c([H])c(C(F)(F)F)c([H])c4[H])[C@@]([H])(c4c([H])c([H])c([H])c([H])c4[H])C([H])([H])[C@@]23[H])c([H])c1[H]


 37 41  0  0  0  0  0  0  0  0999 V2000
   25.6481    8.9781   58.1616 C   0  0  0  0  0  0  0  0  0  0  0  0
   25.7806    7.5926   58.7211 C   0  0  0  0  0  0  0  0  0  0  0  0
   27.0395    7.0362   58.2482 C   0  0  0  0  0  0  0  0  0  0  0  0
   26.7724    6.9664   56.7528 C   0  0  0  0  0  0  0  0  0  0  0  0
   27.2072    8.2833   56.2764 C   0  0  0  0  0  0  0  0  0  0  0  0
   26.6078    9.3764   57.0620 C   0  0  0  0  0  0  0  0  0  0  0  0
   27.3912    5.9381   57.4412 N   0  0  0  0  0  0  0  0  0  0  0  0
   28.0151    4.6262   57.4409 C   0  0  0  0  0  0  0  0  0  0  0  0
   28.0954    3.9615   56.3877 O   0  0  0  0  0  0  0  0  0  0  0  0
   28.5393    4.0892   58.6408 N   0  0  0  0  0  0  0  0  0  0  0  0
   28.3940    4.7753   59.4746 H   0  0  0  0  0  0  0  0  0  0  0  0
   27.4743   10.4860   57.4383 C   0  0  0  0  0  0  0  0  0  0  0  0
   28.7267   10.2843   57.9308 C   0  0  0  0  0  0  0  0  0  0  0  0
   29.5502   11.3181   58.3166 C   0  0  0  0  0  0  0  0  0  0  0  0
   29.1003   12.6292   58.2048 C   0  0  0  0  0  0  0  0  0  0  0  0
   27.8405   12.8660   57.7097 C   0  0  0  0  0  0  0  0  0  0  0  0
   27.0521   11.7899   57.3361 C   0  0  0  0  0  0  0  0  0  0  0  0
   29.1740    2.8720   58.8633 C   0  0  0  0  0  0  0  0  0  0  0  0
   30.5107    2.7808   58.4476 C   0  0  0  0  0  0  0  0  0  0  0  0
   31.2539    1.6477   58.5906 C   0  0  0  0  0  0  0  0  0  0  0  0
   30.7100    0.5253   59.1605 C   0  0  0  0  0  0  0  0  0  0  0  0
   29.4004    0.5963   59.5746 C   0  0  0  0  0  0  0  0  0  0  0  0
   28.6378    1.7697   59.4237 C   0  0  0  0  0  0  0  0  0  0  0  0
   23.3755   10.0240   58.4754 C   0  0  0  0  0  0  0  0  0  0  0  0
   23.7606   10.5412   59.5670 O   0  0  0  0  0  0  0  0  0  0  0  0
   24.2583    9.2462   57.7441 N   0  0  0  0  0  0  0  0  0  0  0  0
   23.9341    8.8202   56.8485 H   0  0  0  0  0  0  0  0  0  0  0  0
   19.3901   10.6650   57.0845 C   0  0  0  0  0  0  0  0  0  0  0  0
   20.1087   11.7039   57.6678 C   0  0  0  0  0  0  0  0  0  0  0  0
   21.4041   11.4915   58.1256 C   0  0  0  0  0  0  0  0  0  0  0  0
   22.0171   10.2606   58.0205 C   0  0  0  0  0  0  0  0  0  0  0  0
   21.2653    9.2404   57.4304 C   0  0  0  0  0  0  0  0  0  0  0  0
   19.9856    9.4294   56.9723 C   0  0  0  0  0  0  0  0  0  0  0  0
   17.6172    9.7702   55.8406 F   0  0  0  0  0  0  0  0  0  0  0  0
   17.9805   10.8787   56.5886 C   0  0  0  0  0  0  0  0  0  0  0  0
   18.0098   11.9961   55.8017 F   0  0  0  0  0  0  0  0  0  0  0  0
   17.0835   10.9563   57.6368 F   0  0  0  0  0  0  0  0  0  0  0  0
 34 35  1  0  0  0
 35 36  1  0  0  0
 35 37  1  0  0  0
 35 28  1  0  0  0
 28 29  2  0  0  0
 29 30  1  0  0  0
 30 31  2  0  0  0
 31 32  1  0  0  0
 32 33  2  0  0  0
 31 24  1  0  0  0
 24 25  2  0  0  0
 24 26  1  0  0  0
 26  1  1  0  0  0
  1  2  1  0  0  0
  2  3  1  0  0  0
  3  4  1  0  0  0
  4  5  1  0  0  0
  5  6  1  0  0  0
  6 12  1  0  0  0
 12 13  2  0  0  0
 13 14  1  0  0  0
 14 15  2  0  0  0
 15 16  1  0  0  0
 16 17  2  0  0  0
  4  7  1  0  0  0
  7  8  1  0  0  0
  8  9  2  0  0  0
  8 10  1  0  0  0
 10 18  1  0  0  0
 18 19  2  0  0  0
 19 20  1  0  0  0
 20 21  2  0  0  0
 21 22  1  0  0  0
 22 23  2  0  0  0
 33 28  1  0  0  0
  6  1  1  0  0  0
 17 12  1  0  0  0
 23 18  1  0  0  0
  7  3  1  0  0  0
 26 27  1  0  0  0
 10 11  1  0  0  0
M  END
> <minimizedAffinity>
261.29520

> <CNNscore>
0.0001429098

> <CNNaffinity>
2.9061098099

> <CNN_VS>
0.0004153117

> <CNNaffinity_variance>
1.6102110147

$$$$
