[H]c1c(-c2c([H])c([H])c(F)c(OC3([H])C([H])([H])C3([H])[H])c2[H])nc(C(=O)N([H])[H])nc1C([H])(C([H])([H])[H])C([H])([H])[H]


 25 27  0  0  0  0  0  0  0  0999 V2000
   21.8815    9.3886   53.4330 C   0  0  0  0  0  0  0  0  0  0  0  0
   23.2086    9.5055   53.8118 C   0  0  0  0  0  0  0  0  0  0  0  0
   24.0022    8.4140   54.1043 C   0  0  0  0  0  0  0  0  0  0  0  0
   23.3940    7.2018   53.9964 N   0  0  0  0  0  0  0  0  0  0  0  0
   22.1283    7.0723   53.6362 C   0  0  0  0  0  0  0  0  0  0  0  0
   21.3776    8.1571   53.3566 N   0  0  0  0  0  0  0  0  0  0  0  0
   25.3971    8.5164   54.5036 C   0  0  0  0  0  0  0  0  0  0  0  0
   26.3675    8.1482   53.6017 C   0  0  0  0  0  0  0  0  0  0  0  0
   27.7246    8.2196   53.9144 C   0  0  0  0  0  0  0  0  0  0  0  0
   28.0584    8.6784   55.1759 C   0  0  0  0  0  0  0  0  0  0  0  0
   29.3774    8.7690   55.5368 F   0  0  0  0  0  0  0  0  0  0  0  0
   27.1148    9.0551   56.1032 C   0  0  0  0  0  0  0  0  0  0  0  0
   25.7716    8.9669   55.7468 C   0  0  0  0  0  0  0  0  0  0  0  0
   27.5134    9.5018   57.3383 O   0  0  0  0  0  0  0  0  0  0  0  0
   28.5974   10.3113   57.6504 C   0  0  0  0  0  0  0  0  0  0  0  0
   28.9774   10.4663   59.0814 C   0  0  0  0  0  0  0  0  0  0  0  0
   28.1907   11.5737   58.4218 C   0  0  0  0  0  0  0  0  0  0  0  0
   21.5545    5.7174   53.5464 C   0  0  0  0  0  0  0  0  0  0  0  0
   20.2110    5.4654   53.1876 N   0  0  0  0  0  0  0  0  0  0  0  0
   22.2908    4.7386   53.8000 O   0  0  0  0  0  0  0  0  0  0  0  0
   19.8895    4.6534   52.6491 H   0  0  0  0  0  0  0  0  0  0  0  0
   19.4911    6.1602   53.4949 H   0  0  0  0  0  0  0  0  0  0  0  0
   21.4933   11.1781   51.7722 C   0  0  0  0  0  0  0  0  0  0  0  0
   21.1161   10.6138   53.1413 C   0  0  0  0  0  0  0  0  0  0  0  0
   21.3114   11.6722   54.2115 C   0  0  0  0  0  0  0  0  0  0  0  0
 23 24  1  0  0  0
 24 25  1  0  0  0
 24  1  1  0  0  0
  1  2  2  0  0  0
  2  3  1  0  0  0
  3  4  2  0  0  0
  4  5  1  0  0  0
  5  6  2  0  0  0
  5 18  1  0  0  0
 18 19  1  0  0  0
 18 20  2  0  0  0
  3  7  1  0  0  0
  7  8  2  0  0  0
  8  9  1  0  0  0
  9 10  2  0  0  0
 10 11  1  0  0  0
 10 12  1  0  0  0
 12 14  1  0  0  0
 14 15  1  0  0  0
 15 16  1  0  0  0
 16 17  1  0  0  0
 12 13  2  0  0  0
  6  1  1  0  0  0
 13  7  1  0  0  0
 17 15  1  0  0  0
 19 21  1  0  0  0
 19 22  1  0  0  0
M  END
> <minimizedAffinity>
5.35456

> <CNNscore>
0.7308717966

> <CNNaffinity>
6.0258259773

> <CNN_VS>
4.4041061401

> <CNNaffinity_variance>
0.1708881110

$$$$
[H]c1c(-c2c([H])c([H])c(F)c(OC3([H])C([H])([H])C3([H])[H])c2[H])nc(C(=O)N([H])[H])nc1C([H])(C([H])([H])[H])C([H])([H])[H]


 25 27  0  0  0  0  0  0  0  0999 V2000
   21.9600    7.7949   53.2756 C   0  0  0  0  0  0  0  0  0  0  0  0
   23.3126    7.7597   53.5719 C   0  0  0  0  0  0  0  0  0  0  0  0
   23.9226    8.6850   54.3955 C   0  0  0  0  0  0  0  0  0  0  0  0
   23.1043    9.6453   54.9047 N   0  0  0  0  0  0  0  0  0  0  0  0
   21.8114    9.6937   54.6322 C   0  0  0  0  0  0  0  0  0  0  0  0
   21.2433    8.7758   53.8239 N   0  0  0  0  0  0  0  0  0  0  0  0
   25.3407    8.6646   54.7182 C   0  0  0  0  0  0  0  0  0  0  0  0
   26.2230    8.1962   53.7733 C   0  0  0  0  0  0  0  0  0  0  0  0
   27.5959    8.1471   54.0121 C   0  0  0  0  0  0  0  0  0  0  0  0
   28.0384    8.5911   55.2453 C   0  0  0  0  0  0  0  0  0  0  0  0
   29.3779    8.5653   55.5339 F   0  0  0  0  0  0  0  0  0  0  0  0
   27.1850    9.0658   56.2140 C   0  0  0  0  0  0  0  0  0  0  0  0
   25.8219    9.0963   55.9310 C   0  0  0  0  0  0  0  0  0  0  0  0
   27.6893    9.4915   57.4175 O   0  0  0  0  0  0  0  0  0  0  0  0
   28.6237   10.4913   57.6521 C   0  0  0  0  0  0  0  0  0  0  0  0
   29.0474   10.7501   59.0555 C   0  0  0  0  0  0  0  0  0  0  0  0
   28.0374   11.6795   58.4259 C   0  0  0  0  0  0  0  0  0  0  0  0
   21.0033   10.7718   55.2301 C   0  0  0  0  0  0  0  0  0  0  0  0
   20.2484   10.6111   56.4140 N   0  0  0  0  0  0  0  0  0  0  0  0
   20.9819   11.8869   54.6639 O   0  0  0  0  0  0  0  0  0  0  0  0
   20.0951   11.3430   57.1165 H   0  0  0  0  0  0  0  0  0  0  0  0
   19.8137    9.6745   56.5856 H   0  0  0  0  0  0  0  0  0  0  0  0
   20.4137    7.3748   51.3932 C   0  0  0  0  0  0  0  0  0  0  0  0
   21.4013    6.7620   52.3853 C   0  0  0  0  0  0  0  0  0  0  0  0
   20.7303    5.6452   53.1639 C   0  0  0  0  0  0  0  0  0  0  0  0
 23 24  1  0  0  0
 24 25  1  0  0  0
 24  1  1  0  0  0
  1  2  2  0  0  0
  2  3  1  0  0  0
  3  4  2  0  0  0
  4  5  1  0  0  0
  5  6  2  0  0  0
  5 18  1  0  0  0
 18 19  1  0  0  0
 18 20  2  0  0  0
  3  7  1  0  0  0
  7  8  2  0  0  0
  8  9  1  0  0  0
  9 10  2  0  0  0
 10 11  1  0  0  0
 10 12  1  0  0  0
 12 14  1  0  0  0
 14 15  1  0  0  0
 15 16  1  0  0  0
 16 17  1  0  0  0
 12 13  2  0  0  0
  6  1  1  0  0  0
 13  7  1  0  0  0
 17 15  1  0  0  0
 19 21  1  0  0  0
 19 22  1  0  0  0
M  END
> <minimizedAffinity>
7.50105

> <CNNscore>
0.7288680077

> <CNNaffinity>
5.7704138756

> <CNN_VS>
4.2058701515

> <CNNaffinity_variance>
0.1376761943

$$$$
[H]c1c(-c2c([H])c([H])c(F)c(OC3([H])C([H])([H])C3([H])[H])c2[H])nc(C(=O)N([H])[H])nc1C([H])(C([H])([H])[H])C([H])([H])[H]


 25 27  0  0  0  0  0  0  0  0999 V2000
   22.1449    6.6001   53.7417 C   0  0  0  0  0  0  0  0  0  0  0  0
   23.4394    6.8669   54.1559 C   0  0  0  0  0  0  0  0  0  0  0  0
   24.0812    8.0590   53.8846 C   0  0  0  0  0  0  0  0  0  0  0  0
   23.3560    8.9669   53.1771 N   0  0  0  0  0  0  0  0  0  0  0  0
   22.1194    8.7286   52.7739 C   0  0  0  0  0  0  0  0  0  0  0  0
   21.5182    7.5544   53.0539 N   0  0  0  0  0  0  0  0  0  0  0  0
   25.4394    8.3575   54.3108 C   0  0  0  0  0  0  0  0  0  0  0  0
   26.4753    8.0712   53.4530 C   0  0  0  0  0  0  0  0  0  0  0  0
   27.8025    8.3299   53.7935 C   0  0  0  0  0  0  0  0  0  0  0  0
   28.0378    8.8894   55.0365 C   0  0  0  0  0  0  0  0  0  0  0  0
   29.3234    9.1647   55.4233 F   0  0  0  0  0  0  0  0  0  0  0  0
   27.0268    9.1888   55.9199 C   0  0  0  0  0  0  0  0  0  0  0  0
   25.7167    8.9131   55.5369 C   0  0  0  0  0  0  0  0  0  0  0  0
   27.3285    9.7433   57.1386 O   0  0  0  0  0  0  0  0  0  0  0  0
   28.5815    9.9984   57.6799 C   0  0  0  0  0  0  0  0  0  0  0  0
   28.8509    9.5651   59.0784 C   0  0  0  0  0  0  0  0  0  0  0  0
   28.5352   11.0197   58.8239 C   0  0  0  0  0  0  0  0  0  0  0  0
   21.4111    9.7730   52.0120 C   0  0  0  0  0  0  0  0  0  0  0  0
   21.4729   11.1472   52.3360 N   0  0  0  0  0  0  0  0  0  0  0  0
   20.7192    9.4296   51.0283 O   0  0  0  0  0  0  0  0  0  0  0  0
   21.4543   11.9129   51.6532 H   0  0  0  0  0  0  0  0  0  0  0  0
   21.5430   11.4015   53.3489 H   0  0  0  0  0  0  0  0  0  0  0  0
   20.1544    5.1608   53.4629 C   0  0  0  0  0  0  0  0  0  0  0  0
   21.5456    5.2971   54.0803 C   0  0  0  0  0  0  0  0  0  0  0  0
   21.4719    5.0800   55.5807 C   0  0  0  0  0  0  0  0  0  0  0  0
 23 24  1  0  0  0
 24 25  1  0  0  0
 24  1  1  0  0  0
  1  2  2  0  0  0
  2  3  1  0  0  0
  3  4  2  0  0  0
  4  5  1  0  0  0
  5  6  2  0  0  0
  5 18  1  0  0  0
 18 19  1  0  0  0
 18 20  2  0  0  0
  3  7  1  0  0  0
  7  8  2  0  0  0
  8  9  1  0  0  0
  9 10  2  0  0  0
 10 11  1  0  0  0
 10 12  1  0  0  0
 12 14  1  0  0  0
 14 15  1  0  0  0
 15 16  1  0  0  0
 16 17  1  0  0  0
 12 13  2  0  0  0
  6  1  1  0  0  0
 13  7  1  0  0  0
 17 15  1  0  0  0
 19 21  1  0  0  0
 19 22  1  0  0  0
M  END
> <minimizedAffinity>
7.67588

> <CNNscore>
0.6824237108

> <CNNaffinity>
5.7951288223

> <CNN_VS>
3.9547333717

> <CNNaffinity_variance>
0.0646456853

$$$$
[H]c1c(-c2c([H])c([H])c(F)c(OC3([H])C([H])([H])C3([H])[H])c2[H])nc(C(=O)N([H])[H])nc1C([H])(C([H])([H])[H])C([H])([H])[H]


 25 27  0  0  0  0  0  0  0  0999 V2000
   21.5931    9.1532   54.2323 C   0  0  0  0  0  0  0  0  0  0  0  0
   22.9717    9.2857   54.2126 C   0  0  0  0  0  0  0  0  0  0  0  0
   23.8222    8.2242   53.9748 C   0  0  0  0  0  0  0  0  0  0  0  0
   23.2164    7.0254   53.7583 N   0  0  0  0  0  0  0  0  0  0  0  0
   21.9022    6.8812   53.7735 C   0  0  0  0  0  0  0  0  0  0  0  0
   21.0965    7.9367   54.0087 N   0  0  0  0  0  0  0  0  0  0  0  0
   25.2716    8.3434   53.9501 C   0  0  0  0  0  0  0  0  0  0  0  0
   25.9628    8.2026   55.1305 C   0  0  0  0  0  0  0  0  0  0  0  0
   27.3525    8.3042   55.1834 C   0  0  0  0  0  0  0  0  0  0  0  0
   28.0129    8.5540   53.9940 C   0  0  0  0  0  0  0  0  0  0  0  0
   29.3790    8.6637   53.9876 F   0  0  0  0  0  0  0  0  0  0  0  0
   27.3545    8.7006   52.7952 C   0  0  0  0  0  0  0  0  0  0  0  0
   25.9663    8.5911   52.7905 C   0  0  0  0  0  0  0  0  0  0  0  0
   28.0701    8.9474   51.6502 O   0  0  0  0  0  0  0  0  0  0  0  0
   27.6324    9.5445   50.4756 C   0  0  0  0  0  0  0  0  0  0  0  0
   28.4238    9.3287   49.2333 C   0  0  0  0  0  0  0  0  0  0  0  0
   28.5887   10.6344   49.9737 C   0  0  0  0  0  0  0  0  0  0  0  0
   21.3354    5.5427   53.5282 C   0  0  0  0  0  0  0  0  0  0  0  0
   19.9732    5.3200   53.2249 N   0  0  0  0  0  0  0  0  0  0  0  0
   22.0954    4.5513   53.5907 O   0  0  0  0  0  0  0  0  0  0  0  0
   19.6235    4.5871   52.5978 H   0  0  0  0  0  0  0  0  0  0  0  0
   19.2694    5.9509   53.6745 H   0  0  0  0  0  0  0  0  0  0  0  0
   21.2361   11.5282   53.6465 C   0  0  0  0  0  0  0  0  0  0  0  0
   20.7691   10.3463   54.4952 C   0  0  0  0  0  0  0  0  0  0  0  0
   20.7756   10.7269   55.9645 C   0  0  0  0  0  0  0  0  0  0  0  0
 23 24  1  0  0  0
 24 25  1  0  0  0
 24  1  1  0  0  0
  1  2  2  0  0  0
  2  3  1  0  0  0
  3  4  2  0  0  0
  4  5  1  0  0  0
  5  6  2  0  0  0
  5 18  1  0  0  0
 18 19  1  0  0  0
 18 20  2  0  0  0
  3  7  1  0  0  0
  7  8  2  0  0  0
  8  9  1  0  0  0
  9 10  2  0  0  0
 10 11  1  0  0  0
 10 12  1  0  0  0
 12 14  1  0  0  0
 14 15  1  0  0  0
 15 16  1  0  0  0
 16 17  1  0  0  0
 12 13  2  0  0  0
  6  1  1  0  0  0
 13  7  1  0  0  0
 17 15  1  0  0  0
 19 21  1  0  0  0
 19 22  1  0  0  0
M  END
> <minimizedAffinity>
13.64406

> <CNNscore>
0.6820375323

> <CNNaffinity>
6.0287780762

> <CNN_VS>
4.1118531227

> <CNNaffinity_variance>
0.1318291724

$$$$
[H]c1c(-c2c([H])c([H])c(F)c(OC3([H])C([H])([H])C3([H])[H])c2[H])nc(C(=O)N([H])[H])nc1C([H])(C([H])([H])[H])C([H])([H])[H]


 25 27  0  0  0  0  0  0  0  0999 V2000
   21.2474    8.0362   53.2777 C   0  0  0  0  0  0  0  0  0  0  0  0
   22.5562    7.6998   53.5814 C   0  0  0  0  0  0  0  0  0  0  0  0
   23.5755    8.6299   53.6314 C   0  0  0  0  0  0  0  0  0  0  0  0
   23.2118    9.9127   53.3610 N   0  0  0  0  0  0  0  0  0  0  0  0
   21.9674   10.2512   53.0693 C   0  0  0  0  0  0  0  0  0  0  0  0
   20.9924    9.3204   53.0279 N   0  0  0  0  0  0  0  0  0  0  0  0
   24.9554    8.2962   53.9482 C   0  0  0  0  0  0  0  0  0  0  0  0
   25.4004    7.0221   53.6850 C   0  0  0  0  0  0  0  0  0  0  0  0
   26.7097    6.6304   53.9622 C   0  0  0  0  0  0  0  0  0  0  0  0
   27.5488    7.5804   54.5162 C   0  0  0  0  0  0  0  0  0  0  0  0
   28.8463    7.2501   54.8090 F   0  0  0  0  0  0  0  0  0  0  0  0
   27.1381    8.8637   54.7928 C   0  0  0  0  0  0  0  0  0  0  0  0
   25.8216    9.2098   54.4992 C   0  0  0  0  0  0  0  0  0  0  0  0
   28.0216    9.7584   55.3431 O   0  0  0  0  0  0  0  0  0  0  0  0
   28.3461    9.9325   56.6818 C   0  0  0  0  0  0  0  0  0  0  0  0
   27.9218    8.8893   57.6553 C   0  0  0  0  0  0  0  0  0  0  0  0
   27.1124   10.1609   57.5650 C   0  0  0  0  0  0  0  0  0  0  0  0
   21.6673   11.6672   52.7903 C   0  0  0  0  0  0  0  0  0  0  0  0
   21.7205   12.2317   51.4958 N   0  0  0  0  0  0  0  0  0  0  0  0
   21.3491   12.4100   53.7450 O   0  0  0  0  0  0  0  0  0  0  0  0
   21.1010   12.9743   51.1532 H   0  0  0  0  0  0  0  0  0  0  0  0
   22.4471   11.8636   50.8384 H   0  0  0  0  0  0  0  0  0  0  0  0
   20.8700    5.5998   53.4577 C   0  0  0  0  0  0  0  0  0  0  0  0
   20.2292    6.9712   53.2489 C   0  0  0  0  0  0  0  0  0  0  0  0
   19.4342    6.9820   51.9560 C   0  0  0  0  0  0  0  0  0  0  0  0
 23 24  1  0  0  0
 24 25  1  0  0  0
 24  1  1  0  0  0
  1  2  2  0  0  0
  2  3  1  0  0  0
  3  4  2  0  0  0
  4  5  1  0  0  0
  5  6  2  0  0  0
  5 18  1  0  0  0
 18 19  1  0  0  0
 18 20  2  0  0  0
  3  7  1  0  0  0
  7  8  2  0  0  0
  8  9  1  0  0  0
  9 10  2  0  0  0
 10 11  1  0  0  0
 10 12  1  0  0  0
 12 14  1  0  0  0
 14 15  1  0  0  0
 15 16  1  0  0  0
 16 17  1  0  0  0
 12 13  2  0  0  0
  6  1  1  0  0  0
 13  7  1  0  0  0
 17 15  1  0  0  0
 19 21  1  0  0  0
 19 22  1  0  0  0
M  END
> <minimizedAffinity>
18.15061

> <CNNscore>
0.6779603958

> <CNNaffinity>
5.5015563965

> <CNN_VS>
3.7298374176

> <CNNaffinity_variance>
0.1935124695

$$$$
[H]c1c(-c2c([H])c([H])c(F)c(OC3([H])C([H])([H])C3([H])[H])c2[H])nc(C(=O)N([H])[H])nc1C([H])(C([H])([H])[H])C([H])([H])[H]


 25 27  0  0  0  0  0  0  0  0999 V2000
   21.9938   10.3326   54.0028 C   0  0  0  0  0  0  0  0  0  0  0  0
   23.3222   10.1788   54.3639 C   0  0  0  0  0  0  0  0  0  0  0  0
   23.9890    8.9735   54.2675 C   0  0  0  0  0  0  0  0  0  0  0  0
   23.2532    7.9334   53.7905 N   0  0  0  0  0  0  0  0  0  0  0  0
   21.9844    8.0628   53.4414 C   0  0  0  0  0  0  0  0  0  0  0  0
   21.3593    9.2530   53.5466 N   0  0  0  0  0  0  0  0  0  0  0  0
   25.3829    8.7923   54.6415 C   0  0  0  0  0  0  0  0  0  0  0  0
   26.2814    8.4214   53.6689 C   0  0  0  0  0  0  0  0  0  0  0  0
   27.6329    8.2293   53.9536 C   0  0  0  0  0  0  0  0  0  0  0  0
   28.0369    8.4280   55.2615 C   0  0  0  0  0  0  0  0  0  0  0  0
   29.3540    8.2531   55.5978 F   0  0  0  0  0  0  0  0  0  0  0  0
   27.1664    8.7991   56.2598 C   0  0  0  0  0  0  0  0  0  0  0  0
   25.8258    8.9793   55.9290 C   0  0  0  0  0  0  0  0  0  0  0  0
   27.6324    8.9799   57.5382 O   0  0  0  0  0  0  0  0  0  0  0  0
   28.4288   10.0079   58.0248 C   0  0  0  0  0  0  0  0  0  0  0  0
   27.8832   11.3929   58.0140 C   0  0  0  0  0  0  0  0  0  0  0  0
   28.8563   10.9943   56.9302 C   0  0  0  0  0  0  0  0  0  0  0  0
   21.2670    6.8789   52.9345 C   0  0  0  0  0  0  0  0  0  0  0  0
   21.1951    5.6549   53.6371 N   0  0  0  0  0  0  0  0  0  0  0  0
   20.6915    6.9578   51.8268 O   0  0  0  0  0  0  0  0  0  0  0  0
   20.3888    5.0204   53.6302 H   0  0  0  0  0  0  0  0  0  0  0  0
   22.0276    5.3759   54.2069 H   0  0  0  0  0  0  0  0  0  0  0  0
   20.1720   11.6020   55.0896 C   0  0  0  0  0  0  0  0  0  0  0  0
   21.3696   11.6603   54.1422 C   0  0  0  0  0  0  0  0  0  0  0  0
   20.9443   12.2302   52.8013 C   0  0  0  0  0  0  0  0  0  0  0  0
 23 24  1  0  0  0
 24 25  1  0  0  0
 24  1  1  0  0  0
  1  2  2  0  0  0
  2  3  1  0  0  0
  3  4  2  0  0  0
  4  5  1  0  0  0
  5  6  2  0  0  0
  5 18  1  0  0  0
 18 19  1  0  0  0
 18 20  2  0  0  0
  3  7  1  0  0  0
  7  8  2  0  0  0
  8  9  1  0  0  0
  9 10  2  0  0  0
 10 11  1  0  0  0
 10 12  1  0  0  0
 12 14  1  0  0  0
 14 15  1  0  0  0
 15 16  1  0  0  0
 16 17  1  0  0  0
 12 13  2  0  0  0
  6  1  1  0  0  0
 13  7  1  0  0  0
 17 15  1  0  0  0
 19 21  1  0  0  0
 19 22  1  0  0  0
M  END
> <minimizedAffinity>
15.08602

> <CNNscore>
0.6727590561

> <CNNaffinity>
5.8609633446

> <CNN_VS>
3.9430160522

> <CNNaffinity_variance>
0.1202829927

$$$$
[H]c1c(-c2c([H])c([H])c(F)c(OC3([H])C([H])([H])C3([H])[H])c2[H])nc(C(=O)N([H])[H])nc1C([H])(C([H])([H])[H])C([H])([H])[H]


 25 27  0  0  0  0  0  0  0  0999 V2000
   21.1631    7.4352   52.8112 C   0  0  0  0  0  0  0  0  0  0  0  0
   22.3001    7.5050   53.5992 C   0  0  0  0  0  0  0  0  0  0  0  0
   23.0811    8.6404   53.6870 C   0  0  0  0  0  0  0  0  0  0  0  0
   22.6609    9.6994   52.9435 N   0  0  0  0  0  0  0  0  0  0  0  0
   21.5783    9.6498   52.1860 C   0  0  0  0  0  0  0  0  0  0  0  0
   20.8349    8.5266   52.1201 N   0  0  0  0  0  0  0  0  0  0  0  0
   24.2779    8.7329   54.5084 C   0  0  0  0  0  0  0  0  0  0  0  0
   24.2183    9.4544   55.6775 C   0  0  0  0  0  0  0  0  0  0  0  0
   25.3253    9.5867   56.5151 C   0  0  0  0  0  0  0  0  0  0  0  0
   26.4935    8.9594   56.1210 C   0  0  0  0  0  0  0  0  0  0  0  0
   27.6126    9.0563   56.9062 F   0  0  0  0  0  0  0  0  0  0  0  0
   26.5896    8.2300   54.9588 C   0  0  0  0  0  0  0  0  0  0  0  0
   25.4584    8.1253   54.1535 C   0  0  0  0  0  0  0  0  0  0  0  0
   27.7794    7.6322   54.6256 O   0  0  0  0  0  0  0  0  0  0  0  0
   28.9842    8.2399   54.2986 C   0  0  0  0  0  0  0  0  0  0  0  0
   29.2606    9.6004   54.8361 C   0  0  0  0  0  0  0  0  0  0  0  0
   28.8015    9.4723   53.4032 C   0  0  0  0  0  0  0  0  0  0  0  0
   21.2002   10.8479   51.4148 C   0  0  0  0  0  0  0  0  0  0  0  0
   21.7339   12.1324   51.6644 N   0  0  0  0  0  0  0  0  0  0  0  0
   20.3650   10.7254   50.4918 O   0  0  0  0  0  0  0  0  0  0  0  0
   21.9192   12.8410   50.9460 H   0  0  0  0  0  0  0  0  0  0  0  0
   21.9564   12.3778   52.6573 H   0  0  0  0  0  0  0  0  0  0  0  0
   18.9596    6.4064   53.2553 C   0  0  0  0  0  0  0  0  0  0  0  0
   20.3950    6.1779   52.7834 C   0  0  0  0  0  0  0  0  0  0  0  0
   21.0509    5.0945   53.6199 C   0  0  0  0  0  0  0  0  0  0  0  0
 23 24  1  0  0  0
 24 25  1  0  0  0
 24  1  1  0  0  0
  1  2  2  0  0  0
  2  3  1  0  0  0
  3  4  2  0  0  0
  4  5  1  0  0  0
  5  6  2  0  0  0
  5 18  1  0  0  0
 18 19  1  0  0  0
 18 20  2  0  0  0
  3  7  1  0  0  0
  7  8  2  0  0  0
  8  9  1  0  0  0
  9 10  2  0  0  0
 10 11  1  0  0  0
 10 12  1  0  0  0
 12 14  1  0  0  0
 14 15  1  0  0  0
 15 16  1  0  0  0
 16 17  1  0  0  0
 12 13  2  0  0  0
  6  1  1  0  0  0
 13  7  1  0  0  0
 17 15  1  0  0  0
 19 21  1  0  0  0
 19 22  1  0  0  0
M  END
> <minimizedAffinity>
16.20147

> <CNNscore>
0.6455070972

> <CNNaffinity>
5.8237562180

> <CNN_VS>
3.7592759132

> <CNNaffinity_variance>
0.3617213368

$$$$
[H]c1c(-c2c([H])c([H])c(F)c(OC3([H])C([H])([H])C3([H])[H])c2[H])nc(C(=O)N([H])[H])nc1C([H])(C([H])([H])[H])C([H])([H])[H]


 25 27  0  0  0  0  0  0  0  0999 V2000
   21.5694    7.7434   53.2234 C   0  0  0  0  0  0  0  0  0  0  0  0
   22.9529    7.7386   53.1579 C   0  0  0  0  0  0  0  0  0  0  0  0
   23.7431    8.5300   53.9679 C   0  0  0  0  0  0  0  0  0  0  0  0
   23.0720    9.3244   54.8450 N   0  0  0  0  0  0  0  0  0  0  0  0
   21.7520    9.3414   54.9206 C   0  0  0  0  0  0  0  0  0  0  0  0
   21.0061    8.5571   54.1162 N   0  0  0  0  0  0  0  0  0  0  0  0
   25.1966    8.5389   53.9140 C   0  0  0  0  0  0  0  0  0  0  0  0
   25.8984    8.4665   55.0942 C   0  0  0  0  0  0  0  0  0  0  0  0
   27.2926    8.4701   55.1200 C   0  0  0  0  0  0  0  0  0  0  0  0
   27.9462    8.5500   53.9036 C   0  0  0  0  0  0  0  0  0  0  0  0
   29.3163    8.5574   53.8698 F   0  0  0  0  0  0  0  0  0  0  0  0
   27.2771    8.6239   52.7041 C   0  0  0  0  0  0  0  0  0  0  0  0
   25.8848    8.6173   52.7270 C   0  0  0  0  0  0  0  0  0  0  0  0
   27.9864    8.7014   51.5315 O   0  0  0  0  0  0  0  0  0  0  0  0
   28.2480    9.8246   50.7583 C   0  0  0  0  0  0  0  0  0  0  0  0
   27.4127   10.0629   49.5493 C   0  0  0  0  0  0  0  0  0  0  0  0
   28.7904    9.4721   49.3671 C   0  0  0  0  0  0  0  0  0  0  0  0
   21.1120   10.2354   55.9026 C   0  0  0  0  0  0  0  0  0  0  0  0
   19.7120   10.3293   56.0704 N   0  0  0  0  0  0  0  0  0  0  0  0
   21.8418   10.9488   56.6258 O   0  0  0  0  0  0  0  0  0  0  0  0
   19.2378   10.4991   56.9642 H   0  0  0  0  0  0  0  0  0  0  0  0
   19.1153   10.2168   55.2178 H   0  0  0  0  0  0  0  0  0  0  0  0
   20.1932    7.6627   51.1713 C   0  0  0  0  0  0  0  0  0  0  0  0
   20.8129    6.8623   52.3161 C   0  0  0  0  0  0  0  0  0  0  0  0
   19.7353    6.0846   53.0493 C   0  0  0  0  0  0  0  0  0  0  0  0
 23 24  1  0  0  0
 24 25  1  0  0  0
 24  1  1  0  0  0
  1  2  2  0  0  0
  2  3  1  0  0  0
  3  4  2  0  0  0
  4  5  1  0  0  0
  5  6  2  0  0  0
  5 18  1  0  0  0
 18 19  1  0  0  0
 18 20  2  0  0  0
  3  7  1  0  0  0
  7  8  2  0  0  0
  8  9  1  0  0  0
  9 10  2  0  0  0
 10 11  1  0  0  0
 10 12  1  0  0  0
 12 14  1  0  0  0
 14 15  1  0  0  0
 15 16  1  0  0  0
 16 17  1  0  0  0
 12 13  2  0  0  0
  6  1  1  0  0  0
 13  7  1  0  0  0
 17 15  1  0  0  0
 19 21  1  0  0  0
 19 22  1  0  0  0
M  END
> <minimizedAffinity>
18.42394

> <CNNscore>
0.6227008104

> <CNNaffinity>
5.6840558052

> <CNN_VS>
3.5394661427

> <CNNaffinity_variance>
0.0941221565

$$$$
[H]c1c(-c2c([H])c([H])c(F)c(OC3([H])C([H])([H])C3([H])[H])c2[H])nc(C(=O)N([H])[H])nc1C([H])(C([H])([H])[H])C([H])([H])[H]


 25 27  0  0  0  0  0  0  0  0999 V2000
   21.9174    6.9779   54.3357 C   0  0  0  0  0  0  0  0  0  0  0  0
   23.2788    7.2318   54.3621 C   0  0  0  0  0  0  0  0  0  0  0  0
   23.9068    8.0428   53.4377 C   0  0  0  0  0  0  0  0  0  0  0  0
   23.0973    8.5844   52.4878 N   0  0  0  0  0  0  0  0  0  0  0  0
   21.7961    8.3526   52.4480 C   0  0  0  0  0  0  0  0  0  0  0  0
   21.2104    7.5556   53.3646 N   0  0  0  0  0  0  0  0  0  0  0  0
   25.3344    8.3212   53.4490 C   0  0  0  0  0  0  0  0  0  0  0  0
   26.0052    8.2663   54.6480 C   0  0  0  0  0  0  0  0  0  0  0  0
   27.3734    8.5212   54.7355 C   0  0  0  0  0  0  0  0  0  0  0  0
   28.0337    8.8334   53.5608 C   0  0  0  0  0  0  0  0  0  0  0  0
   29.3791    9.0932   53.5882 F   0  0  0  0  0  0  0  0  0  0  0  0
   27.3952    8.8974   52.3441 C   0  0  0  0  0  0  0  0  0  0  0  0
   26.0282    8.6354   52.3050 C   0  0  0  0  0  0  0  0  0  0  0  0
   28.1095    9.2132   51.2153 O   0  0  0  0  0  0  0  0  0  0  0  0
   27.6690    9.8756   50.0773 C   0  0  0  0  0  0  0  0  0  0  0  0
   28.5307    9.8489   48.8636 C   0  0  0  0  0  0  0  0  0  0  0  0
   28.5391   11.0893   49.7250 C   0  0  0  0  0  0  0  0  0  0  0  0
   20.9985    8.9834   51.3808 C   0  0  0  0  0  0  0  0  0  0  0  0
   20.0223    8.2914   50.6289 N   0  0  0  0  0  0  0  0  0  0  0  0
   21.1928   10.1921   51.1246 O   0  0  0  0  0  0  0  0  0  0  0  0
   19.1529    8.7047   50.2739 H   0  0  0  0  0  0  0  0  0  0  0  0
   20.2009    7.2816   50.4194 H   0  0  0  0  0  0  0  0  0  0  0  0
   20.9987    6.8887   56.6290 C   0  0  0  0  0  0  0  0  0  0  0  0
   21.3395    6.0977   55.3667 C   0  0  0  0  0  0  0  0  0  0  0  0
   22.2640    4.9440   55.7100 C   0  0  0  0  0  0  0  0  0  0  0  0
 23 24  1  0  0  0
 24 25  1  0  0  0
 24  1  1  0  0  0
  1  2  2  0  0  0
  2  3  1  0  0  0
  3  4  2  0  0  0
  4  5  1  0  0  0
  5  6  2  0  0  0
  5 18  1  0  0  0
 18 19  1  0  0  0
 18 20  2  0  0  0
  3  7  1  0  0  0
  7  8  2  0  0  0
  8  9  1  0  0  0
  9 10  2  0  0  0
 10 11  1  0  0  0
 10 12  1  0  0  0
 12 14  1  0  0  0
 14 15  1  0  0  0
 15 16  1  0  0  0
 16 17  1  0  0  0
 12 13  2  0  0  0
  6  1  1  0  0  0
 13  7  1  0  0  0
 17 15  1  0  0  0
 19 21  1  0  0  0
 19 22  1  0  0  0
M  END
> <minimizedAffinity>
20.05304

> <CNNscore>
0.6205060482

> <CNNaffinity>
5.6713461876

> <CNN_VS>
3.5191047192

> <CNNaffinity_variance>
0.1587045044

$$$$
[H]c1nc(C([H])([H])[H])c([H])c(-c2nc(-c3c([H])c([H])c(OC([H])([H])[H])c(OC([H])([H])[H])c3[H])n3c2C([H])([H])C([H])([H])O[C@]([H])(C([H])([H])F)C3([H])[H])c1[H]


 29 32  0  0  0  0  0  0  0  0999 V2000
   22.7275    9.0836   53.0108 C   0  0  0  0  0  0  0  0  0  0  0  0
   24.0192    9.4390   53.3216 N   0  0  0  0  0  0  0  0  0  0  0  0
   24.5884    8.5308   54.1236 C   0  0  0  0  0  0  0  0  0  0  0  0
   23.6464    7.5585   54.3429 C   0  0  0  0  0  0  0  0  0  0  0  0
   23.7713    6.3653   55.1875 C   0  0  0  0  0  0  0  0  0  0  0  0
   23.7303    5.1378   54.3094 C   0  0  0  0  0  0  0  0  0  0  0  0
   22.7569    5.3593   53.3485 O   0  0  0  0  0  0  0  0  0  0  0  0
   21.5396    5.7030   53.8924 C   0  0  0  0  0  0  0  0  0  0  0  0
   21.2784    7.1772   53.5265 C   0  0  0  0  0  0  0  0  0  0  0  0
   22.5105    7.9308   53.6378 N   0  0  0  0  0  0  0  0  0  0  0  0
   25.9319    8.5553   54.6806 C   0  0  0  0  0  0  0  0  0  0  0  0
   26.9729    8.0707   53.9126 C   0  0  0  0  0  0  0  0  0  0  0  0
   28.2528    8.0533   54.4220 C   0  0  0  0  0  0  0  0  0  0  0  0
   28.5054    8.4979   55.6484 N   0  0  0  0  0  0  0  0  0  0  0  0
   27.5097    8.9735   56.4134 C   0  0  0  0  0  0  0  0  0  0  0  0
   27.7695    9.4714   57.7768 C   0  0  0  0  0  0  0  0  0  0  0  0
   26.2102    9.0087   55.9407 C   0  0  0  0  0  0  0  0  0  0  0  0
   20.5326   11.6809   50.4380 C   0  0  0  0  0  0  0  0  0  0  0  0
   20.2798   10.3308   50.3937 C   0  0  0  0  0  0  0  0  0  0  0  0
   20.9751    9.4846   51.2406 C   0  0  0  0  0  0  0  0  0  0  0  0
   21.9123    9.9092   52.1307 C   0  0  0  0  0  0  0  0  0  0  0  0
   22.1481   11.2972   52.1531 C   0  0  0  0  0  0  0  0  0  0  0  0
   21.4691   12.1458   51.3236 C   0  0  0  0  0  0  0  0  0  0  0  0
   19.2742   12.1699   48.3958 C   0  0  0  0  0  0  0  0  0  0  0  0
   19.8514   12.5809   49.5969 O   0  0  0  0  0  0  0  0  0  0  0  0
   21.6882   13.5307   51.3292 O   0  0  0  0  0  0  0  0  0  0  0  0
   20.7164   14.4374   51.8082 C   0  0  0  0  0  0  0  0  0  0  0  0
   20.5034    4.8259   53.1887 C   0  0  0  0  0  0  0  0  0  0  0  0
   19.2880    5.0811   53.7936 F   0  0  0  0  0  0  0  0  0  0  0  0
 24 25  1  0  0  0
 25 18  1  0  0  0
 18 19  2  0  0  0
 19 20  1  0  0  0
 20 21  2  0  0  0
 21 22  1  0  0  0
 22 23  2  0  0  0
 23 26  1  0  0  0
 26 27  1  0  0  0
 21  1  1  0  0  0
  1  2  2  0  0  0
  2  3  1  0  0  0
  3  4  2  0  0  0
  4  5  1  0  0  0
  5  6  1  0  0  0
  6  7  1  0  0  0
  7  8  1  0  0  0
  8 28  1  0  0  0
 28 29  1  0  0  0
  8  9  1  0  0  0
  9 10  1  0  0  0
  3 11  1  0  0  0
 11 12  2  0  0  0
 12 13  1  0  0  0
 13 14  2  0  0  0
 14 15  1  0  0  0
 15 16  1  0  0  0
 15 17  2  0  0  0
 23 18  1  0  0  0
 10  1  1  0  0  0
 17 11  1  0  0  0
 10  4  1  0  0  0
M  END
> <minimizedAffinity>
29.70750

> <CNNscore>
0.5034806132

> <CNNaffinity>
5.7949457169

> <CNN_VS>
2.9176428318

> <CNNaffinity_variance>
0.2325515300

$$$$
[H]c1nc(C([H])([H])[H])c([H])c(-c2nc(-c3c([H])c([H])c(OC([H])([H])[H])c(OC([H])([H])[H])c3[H])n3c2C([H])([H])C([H])([H])O[C@]([H])(C([H])([H])F)C3([H])[H])c1[H]


 29 32  0  0  0  0  0  0  0  0999 V2000
   23.2210    7.6083   53.7273 C   0  0  0  0  0  0  0  0  0  0  0  0
   22.7393    6.3235   53.8186 N   0  0  0  0  0  0  0  0  0  0  0  0
   21.4427    6.2713   53.4901 C   0  0  0  0  0  0  0  0  0  0  0  0
   21.0673    7.5526   53.1768 C   0  0  0  0  0  0  0  0  0  0  0  0
   19.7333    8.0254   52.7901 C   0  0  0  0  0  0  0  0  0  0  0  0
   19.7786    8.4998   51.3575 C   0  0  0  0  0  0  0  0  0  0  0  0
   20.9681    9.1921   51.1972 O   0  0  0  0  0  0  0  0  0  0  0  0
   21.1308   10.1944   52.1272 C   0  0  0  0  0  0  0  0  0  0  0  0
   22.2864    9.7703   53.0547 C   0  0  0  0  0  0  0  0  0  0  0  0
   22.1916    8.3516   53.3312 N   0  0  0  0  0  0  0  0  0  0  0  0
   20.5759    5.1032   53.4768 C   0  0  0  0  0  0  0  0  0  0  0  0
   21.0758    3.9170   52.9755 C   0  0  0  0  0  0  0  0  0  0  0  0
   20.2714    2.7999   52.9223 C   0  0  0  0  0  0  0  0  0  0  0  0
   19.0135    2.8437   53.3482 N   0  0  0  0  0  0  0  0  0  0  0  0
   18.5056    3.9854   53.8395 C   0  0  0  0  0  0  0  0  0  0  0  0
   17.1123    4.0546   54.3171 C   0  0  0  0  0  0  0  0  0  0  0  0
   19.2790    5.1301   53.9105 C   0  0  0  0  0  0  0  0  0  0  0  0
   27.2417    8.5078   54.8269 C   0  0  0  0  0  0  0  0  0  0  0  0
   27.0097    7.8050   53.6689 C   0  0  0  0  0  0  0  0  0  0  0  0
   25.7056    7.5271   53.2963 C   0  0  0  0  0  0  0  0  0  0  0  0
   24.6163    7.9098   54.0159 C   0  0  0  0  0  0  0  0  0  0  0  0
   24.8863    8.6287   55.1961 C   0  0  0  0  0  0  0  0  0  0  0  0
   26.1685    8.9116   55.5771 C   0  0  0  0  0  0  0  0  0  0  0  0
   29.3643    9.6909   54.5313 C   0  0  0  0  0  0  0  0  0  0  0  0
   28.5496    8.8145   55.2473 O   0  0  0  0  0  0  0  0  0  0  0  0
   26.4599    9.6258   56.7479 O   0  0  0  0  0  0  0  0  0  0  0  0
   27.5787    9.3142   57.5524 C   0  0  0  0  0  0  0  0  0  0  0  0
   21.5566   11.4331   51.3383 C   0  0  0  0  0  0  0  0  0  0  0  0
   21.5658   12.4893   52.2286 F   0  0  0  0  0  0  0  0  0  0  0  0
 24 25  1  0  0  0
 25 18  1  0  0  0
 18 19  2  0  0  0
 19 20  1  0  0  0
 20 21  2  0  0  0
 21 22  1  0  0  0
 22 23  2  0  0  0
 23 26  1  0  0  0
 26 27  1  0  0  0
 21  1  1  0  0  0
  1  2  2  0  0  0
  2  3  1  0  0  0
  3  4  2  0  0  0
  4  5  1  0  0  0
  5  6  1  0  0  0
  6  7  1  0  0  0
  7  8  1  0  0  0
  8 28  1  0  0  0
 28 29  1  0  0  0
  8  9  1  0  0  0
  9 10  1  0  0  0
  3 11  1  0  0  0
 11 12  2  0  0  0
 12 13  1  0  0  0
 13 14  2  0  0  0
 14 15  1  0  0  0
 15 16  1  0  0  0
 15 17  2  0  0  0
 23 18  1  0  0  0
 10  1  1  0  0  0
 17 11  1  0  0  0
 10  4  1  0  0  0
M  END
> <minimizedAffinity>
19.47274

> <CNNscore>
0.4917619228

> <CNNaffinity>
6.4804143906

> <CNN_VS>
3.1868209839

> <CNNaffinity_variance>
0.4830919206

$$$$
[H]c1nc(C([H])([H])[H])c([H])c(-c2nc(-c3c([H])c([H])c(OC([H])([H])[H])c(OC([H])([H])[H])c3[H])n3c2C([H])([H])C([H])([H])O[C@]([H])(C([H])([H])F)C3([H])[H])c1[H]


 29 32  0  0  0  0  0  0  0  0999 V2000
   22.7086    7.8327   54.1544 C   0  0  0  0  0  0  0  0  0  0  0  0
   22.2636    6.5361   54.2649 N   0  0  0  0  0  0  0  0  0  0  0  0
   21.0863    6.3773   53.6480 C   0  0  0  0  0  0  0  0  0  0  0  0
   20.7530    7.5991   53.1218 C   0  0  0  0  0  0  0  0  0  0  0  0
   19.5353    7.9543   52.3845 C   0  0  0  0  0  0  0  0  0  0  0  0
   19.9067    8.2934   50.9609 C   0  0  0  0  0  0  0  0  0  0  0  0
   21.0753    9.0361   51.0128 O   0  0  0  0  0  0  0  0  0  0  0  0
   20.9754   10.1294   51.8439 C   0  0  0  0  0  0  0  0  0  0  0  0
   21.8885    9.8632   53.0566 C   0  0  0  0  0  0  0  0  0  0  0  0
   21.7792    8.4737   53.4511 N   0  0  0  0  0  0  0  0  0  0  0  0
   20.2889    5.1643   53.5545 C   0  0  0  0  0  0  0  0  0  0  0  0
   20.8641    4.0385   52.9978 C   0  0  0  0  0  0  0  0  0  0  0  0
   20.1266    2.8821   52.8685 C   0  0  0  0  0  0  0  0  0  0  0  0
   18.8619    2.8303   53.2731 N   0  0  0  0  0  0  0  0  0  0  0  0
   18.2815    3.9119   53.8171 C   0  0  0  0  0  0  0  0  0  0  0  0
   16.8794    3.8747   54.2722 C   0  0  0  0  0  0  0  0  0  0  0  0
   18.9861    5.0930   53.9652 C   0  0  0  0  0  0  0  0  0  0  0  0
   26.5520    8.9725   55.6078 C   0  0  0  0  0  0  0  0  0  0  0  0
   25.4322    9.5192   56.1876 C   0  0  0  0  0  0  0  0  0  0  0  0
   24.1812    9.1381   55.7334 C   0  0  0  0  0  0  0  0  0  0  0  0
   23.9825    8.2414   54.7296 C   0  0  0  0  0  0  0  0  0  0  0  0
   25.1485    7.6985   54.1566 C   0  0  0  0  0  0  0  0  0  0  0  0
   26.3910    8.0642   54.5947 C   0  0  0  0  0  0  0  0  0  0  0  0
   28.1347    9.5678   57.3780 C   0  0  0  0  0  0  0  0  0  0  0  0
   27.8451    9.3285   56.0351 O   0  0  0  0  0  0  0  0  0  0  0  0
   27.5648    7.5363   54.0385 O   0  0  0  0  0  0  0  0  0  0  0  0
   28.8435    8.0099   54.4080 C   0  0  0  0  0  0  0  0  0  0  0  0
   21.5350   11.3110   51.0511 C   0  0  0  0  0  0  0  0  0  0  0  0
   21.7995   12.3140   51.9635 F   0  0  0  0  0  0  0  0  0  0  0  0
 24 25  1  0  0  0
 25 18  1  0  0  0
 18 19  2  0  0  0
 19 20  1  0  0  0
 20 21  2  0  0  0
 21 22  1  0  0  0
 22 23  2  0  0  0
 23 26  1  0  0  0
 26 27  1  0  0  0
 21  1  1  0  0  0
  1  2  2  0  0  0
  2  3  1  0  0  0
  3  4  2  0  0  0
  4  5  1  0  0  0
  5  6  1  0  0  0
  6  7  1  0  0  0
  7  8  1  0  0  0
  8 28  1  0  0  0
 28 29  1  0  0  0
  8  9  1  0  0  0
  9 10  1  0  0  0
  3 11  1  0  0  0
 11 12  2  0  0  0
 12 13  1  0  0  0
 13 14  2  0  0  0
 14 15  1  0  0  0
 15 16  1  0  0  0
 15 17  2  0  0  0
 23 18  1  0  0  0
 10  1  1  0  0  0
 17 11  1  0  0  0
 10  4  1  0  0  0
M  END
> <minimizedAffinity>
18.49010

> <CNNscore>
0.4545388222

> <CNNaffinity>
6.4976029396

> <CNN_VS>
2.9534127712

> <CNNaffinity_variance>
0.6179572344

$$$$
[H]c1nc(C([H])([H])[H])c([H])c(-c2nc(-c3c([H])c([H])c(OC([H])([H])[H])c(OC([H])([H])[H])c3[H])n3c2C([H])([H])C([H])([H])O[C@]([H])(C([H])([H])F)C3([H])[H])c1[H]


 29 32  0  0  0  0  0  0  0  0999 V2000
   24.1206    9.0235   54.3062 C   0  0  0  0  0  0  0  0  0  0  0  0
   23.6339   10.1538   53.6924 N   0  0  0  0  0  0  0  0  0  0  0  0
   22.6199    9.8562   52.8706 C   0  0  0  0  0  0  0  0  0  0  0  0
   22.4395    8.4989   52.9485 C   0  0  0  0  0  0  0  0  0  0  0  0
   21.4738    7.6802   52.2071 C   0  0  0  0  0  0  0  0  0  0  0  0
   20.4733    7.1030   53.1794 C   0  0  0  0  0  0  0  0  0  0  0  0
   21.1809    6.7119   54.3047 O   0  0  0  0  0  0  0  0  0  0  0  0
   22.2288    5.8692   54.0090 C   0  0  0  0  0  0  0  0  0  0  0  0
   23.5299    6.6463   54.2895 C   0  0  0  0  0  0  0  0  0  0  0  0
   23.3815    8.0176   53.8469 N   0  0  0  0  0  0  0  0  0  0  0  0
   21.8556   10.7698   52.0358 C   0  0  0  0  0  0  0  0  0  0  0  0
   21.0518   10.2411   51.0444 C   0  0  0  0  0  0  0  0  0  0  0  0
   20.3374   11.0804   50.2180 C   0  0  0  0  0  0  0  0  0  0  0  0
   20.4084   12.3998   50.3590 N   0  0  0  0  0  0  0  0  0  0  0  0
   21.1828   12.9367   51.3154 C   0  0  0  0  0  0  0  0  0  0  0  0
   21.2751   14.3982   51.4880 C   0  0  0  0  0  0  0  0  0  0  0  0
   21.9167   12.1299   52.1663 C   0  0  0  0  0  0  0  0  0  0  0  0
   27.4907    9.2459   56.9094 C   0  0  0  0  0  0  0  0  0  0  0  0
   26.2839    9.7435   57.3391 C   0  0  0  0  0  0  0  0  0  0  0  0
   25.1814    9.6563   56.5062 C   0  0  0  0  0  0  0  0  0  0  0  0
   25.2144    9.1010   55.2646 C   0  0  0  0  0  0  0  0  0  0  0  0
   26.4642    8.5995   54.8534 C   0  0  0  0  0  0  0  0  0  0  0  0
   27.5620    8.6775   55.6647 C   0  0  0  0  0  0  0  0  0  0  0  0
   28.5777    9.1121   59.0987 C   0  0  0  0  0  0  0  0  0  0  0  0
   28.6397    9.3114   57.7200 O   0  0  0  0  0  0  0  0  0  0  0  0
   28.8155    8.1847   55.2753 O   0  0  0  0  0  0  0  0  0  0  0  0
   29.3780    8.4895   54.0156 C   0  0  0  0  0  0  0  0  0  0  0  0
   22.1228    4.7062   54.9961 C   0  0  0  0  0  0  0  0  0  0  0  0
   22.8783    5.0501   56.1003 F   0  0  0  0  0  0  0  0  0  0  0  0
 24 25  1  0  0  0
 25 18  1  0  0  0
 18 19  2  0  0  0
 19 20  1  0  0  0
 20 21  2  0  0  0
 21 22  1  0  0  0
 22 23  2  0  0  0
 23 26  1  0  0  0
 26 27  1  0  0  0
 21  1  1  0  0  0
  1  2  2  0  0  0
  2  3  1  0  0  0
  3  4  2  0  0  0
  4  5  1  0  0  0
  5  6  1  0  0  0
  6  7  1  0  0  0
  7  8  1  0  0  0
  8 28  1  0  0  0
 28 29  1  0  0  0
  8  9  1  0  0  0
  9 10  1  0  0  0
  3 11  1  0  0  0
 11 12  2  0  0  0
 12 13  1  0  0  0
 13 14  2  0  0  0
 14 15  1  0  0  0
 15 16  1  0  0  0
 15 17  2  0  0  0
 23 18  1  0  0  0
 10  1  1  0  0  0
 17 11  1  0  0  0
 10  4  1  0  0  0
M  END
> <minimizedAffinity>
32.25908

> <CNNscore>
0.4325515330

> <CNNaffinity>
5.7395243645

> <CNN_VS>
2.4826400280

> <CNNaffinity_variance>
0.2697603703

$$$$
[H]c1nc(C([H])([H])[H])c([H])c(-c2nc(-c3c([H])c([H])c(OC([H])([H])[H])c(OC([H])([H])[H])c3[H])n3c2C([H])([H])C([H])([H])O[C@]([H])(C([H])([H])F)C3([H])[H])c1[H]


 29 32  0  0  0  0  0  0  0  0999 V2000
   22.9091    9.4524   53.1530 C   0  0  0  0  0  0  0  0  0  0  0  0
   24.2273    9.6818   53.4708 N   0  0  0  0  0  0  0  0  0  0  0  0
   24.7107    8.7071   54.2507 C   0  0  0  0  0  0  0  0  0  0  0  0
   23.6842    7.8193   54.4480 C   0  0  0  0  0  0  0  0  0  0  0  0
   23.6993    6.6003   55.2643 C   0  0  0  0  0  0  0  0  0  0  0  0
   23.5481    5.4025   54.3576 C   0  0  0  0  0  0  0  0  0  0  0  0
   22.6000    5.7339   53.4030 O   0  0  0  0  0  0  0  0  0  0  0  0
   21.4182    6.1737   53.9560 C   0  0  0  0  0  0  0  0  0  0  0  0
   21.2923    7.6738   53.6251 C   0  0  0  0  0  0  0  0  0  0  0  0
   22.5876    8.3097   53.7529 N   0  0  0  0  0  0  0  0  0  0  0  0
   26.0502    8.5965   54.8069 C   0  0  0  0  0  0  0  0  0  0  0  0
   27.0416    8.0285   54.0305 C   0  0  0  0  0  0  0  0  0  0  0  0
   28.3139    7.8829   54.5384 C   0  0  0  0  0  0  0  0  0  0  0  0
   28.6064    8.2824   55.7715 N   0  0  0  0  0  0  0  0  0  0  0  0
   27.6593    8.8372   56.5447 C   0  0  0  0  0  0  0  0  0  0  0  0
   27.9638    9.2870   57.9156 C   0  0  0  0  0  0  0  0  0  0  0  0
   26.3692    9.0018   56.0738 C   0  0  0  0  0  0  0  0  0  0  0  0
   20.5491   11.9720   50.6499 C   0  0  0  0  0  0  0  0  0  0  0  0
   21.5747   12.5280   51.3763 C   0  0  0  0  0  0  0  0  0  0  0  0
   22.3570   11.7119   52.1755 C   0  0  0  0  0  0  0  0  0  0  0  0
   22.1731   10.3690   52.2933 C   0  0  0  0  0  0  0  0  0  0  0  0
   21.1157    9.8291   51.5365 C   0  0  0  0  0  0  0  0  0  0  0  0
   20.3347   10.6217   50.7420 C   0  0  0  0  0  0  0  0  0  0  0  0
   19.8731   12.7702   48.4366 C   0  0  0  0  0  0  0  0  0  0  0  0
   19.7265   12.7604   49.8233 O   0  0  0  0  0  0  0  0  0  0  0  0
   19.2770   10.1052   49.9803 O   0  0  0  0  0  0  0  0  0  0  0  0
   18.6319    8.8960   50.3236 C   0  0  0  0  0  0  0  0  0  0  0  0
   20.3077    5.4110   53.2329 C   0  0  0  0  0  0  0  0  0  0  0  0
   20.4156    4.0888   53.6182 F   0  0  0  0  0  0  0  0  0  0  0  0
 24 25  1  0  0  0
 25 18  1  0  0  0
 18 19  2  0  0  0
 19 20  1  0  0  0
 20 21  2  0  0  0
 21 22  1  0  0  0
 22 23  2  0  0  0
 23 26  1  0  0  0
 26 27  1  0  0  0
 21  1  1  0  0  0
  1  2  2  0  0  0
  2  3  1  0  0  0
  3  4  2  0  0  0
  4  5  1  0  0  0
  5  6  1  0  0  0
  6  7  1  0  0  0
  7  8  1  0  0  0
  8 28  1  0  0  0
 28 29  1  0  0  0
  8  9  1  0  0  0
  9 10  1  0  0  0
  3 11  1  0  0  0
 11 12  2  0  0  0
 12 13  1  0  0  0
 13 14  2  0  0  0
 14 15  1  0  0  0
 15 16  1  0  0  0
 15 17  2  0  0  0
 23 18  1  0  0  0
 10  1  1  0  0  0
 17 11  1  0  0  0
 10  4  1  0  0  0
M  END
> <minimizedAffinity>
40.50219

> <CNNscore>
0.4315065145

> <CNNaffinity>
5.6054902077

> <CNN_VS>
2.4188055992

> <CNNaffinity_variance>
0.2924889922

$$$$
[H]c1nc(C([H])([H])[H])c([H])c(-c2nc(-c3c([H])c([H])c(OC([H])([H])[H])c(OC([H])([H])[H])c3[H])n3c2C([H])([H])C([H])([H])O[C@]([H])(C([H])([H])F)C3([H])[H])c1[H]


 29 32  0  0  0  0  0  0  0  0999 V2000
   21.6675    8.2784   52.7106 C   0  0  0  0  0  0  0  0  0  0  0  0
   20.5743    7.4456   52.7623 N   0  0  0  0  0  0  0  0  0  0  0  0
   20.9254    6.2145   53.1536 C   0  0  0  0  0  0  0  0  0  0  0  0
   22.2805    6.2426   53.3623 C   0  0  0  0  0  0  0  0  0  0  0  0
   23.1478    5.1294   53.7639 C   0  0  0  0  0  0  0  0  0  0  0  0
   23.6968    5.4095   55.1422 C   0  0  0  0  0  0  0  0  0  0  0  0
   24.0249    6.7552   55.1820 O   0  0  0  0  0  0  0  0  0  0  0  0
   24.8628    7.1300   54.1557 C   0  0  0  0  0  0  0  0  0  0  0  0
   24.0524    8.0481   53.2198 C   0  0  0  0  0  0  0  0  0  0  0  0
   22.7052    7.5339   53.0822 N   0  0  0  0  0  0  0  0  0  0  0  0
   20.0632    5.0543   53.3161 C   0  0  0  0  0  0  0  0  0  0  0  0
   20.5072    3.8324   52.8491 C   0  0  0  0  0  0  0  0  0  0  0  0
   19.7027    2.7198   52.9619 C   0  0  0  0  0  0  0  0  0  0  0  0
   18.4979    2.8020   53.5162 N   0  0  0  0  0  0  0  0  0  0  0  0
   18.0450    3.9789   53.9772 C   0  0  0  0  0  0  0  0  0  0  0  0
   16.7110    4.0909   54.5956 C   0  0  0  0  0  0  0  0  0  0  0  0
   18.8205    5.1204   53.8836 C   0  0  0  0  0  0  0  0  0  0  0  0
   21.3247   12.4401   51.8467 C   0  0  0  0  0  0  0  0  0  0  0  0
   21.6085   11.5689   50.8224 C   0  0  0  0  0  0  0  0  0  0  0  0
   21.7015   10.2143   51.0930 C   0  0  0  0  0  0  0  0  0  0  0  0
   21.5287    9.6775   52.3312 C   0  0  0  0  0  0  0  0  0  0  0  0
   21.2383   10.5950   53.3590 C   0  0  0  0  0  0  0  0  0  0  0  0
   21.1425   11.9355   53.1076 C   0  0  0  0  0  0  0  0  0  0  0  0
   20.0320   14.4106   51.1845 C   0  0  0  0  0  0  0  0  0  0  0  0
   21.2201   13.8256   51.6212 O   0  0  0  0  0  0  0  0  0  0  0  0
   20.8544   12.8663   54.1158 O   0  0  0  0  0  0  0  0  0  0  0  0
   20.5636   12.4660   55.4391 C   0  0  0  0  0  0  0  0  0  0  0  0
   25.9815    7.9457   54.8046 C   0  0  0  0  0  0  0  0  0  0  0  0
   27.0493    7.9259   53.9284 F   0  0  0  0  0  0  0  0  0  0  0  0
 24 25  1  0  0  0
 25 18  1  0  0  0
 18 19  2  0  0  0
 19 20  1  0  0  0
 20 21  2  0  0  0
 21 22  1  0  0  0
 22 23  2  0  0  0
 23 26  1  0  0  0
 26 27  1  0  0  0
 21  1  1  0  0  0
  1  2  2  0  0  0
  2  3  1  0  0  0
  3  4  2  0  0  0
  4  5  1  0  0  0
  5  6  1  0  0  0
  6  7  1  0  0  0
  7  8  1  0  0  0
  8 28  1  0  0  0
 28 29  1  0  0  0
  8  9  1  0  0  0
  9 10  1  0  0  0
  3 11  1  0  0  0
 11 12  2  0  0  0
 12 13  1  0  0  0
 13 14  2  0  0  0
 14 15  1  0  0  0
 15 16  1  0  0  0
 15 17  2  0  0  0
 23 18  1  0  0  0
 10  1  1  0  0  0
 17 11  1  0  0  0
 10  4  1  0  0  0
M  END
> <minimizedAffinity>
32.68765

> <CNNscore>
0.4269494712

> <CNNaffinity>
6.1413292885

> <CNN_VS>
2.6220374107

> <CNNaffinity_variance>
0.4109807611

$$$$
[H]c1nc(C([H])([H])[H])c([H])c(-c2nc(-c3c([H])c([H])c(OC([H])([H])[H])c(OC([H])([H])[H])c3[H])n3c2C([H])([H])C([H])([H])O[C@]([H])(C([H])([H])F)C3([H])[H])c1[H]


 29 32  0  0  0  0  0  0  0  0999 V2000
   21.7788    8.4116   53.0994 C   0  0  0  0  0  0  0  0  0  0  0  0
   20.6644    7.6070   53.1440 N   0  0  0  0  0  0  0  0  0  0  0  0
   21.0036    6.3249   53.3258 C   0  0  0  0  0  0  0  0  0  0  0  0
   22.3725    6.2900   53.4015 C   0  0  0  0  0  0  0  0  0  0  0  0
   23.2306    5.1104   53.5586 C   0  0  0  0  0  0  0  0  0  0  0  0
   23.9177    5.1805   54.9012 C   0  0  0  0  0  0  0  0  0  0  0  0
   24.2992    6.4987   55.0929 O   0  0  0  0  0  0  0  0  0  0  0  0
   25.0501    6.9932   54.0500 C   0  0  0  0  0  0  0  0  0  0  0  0
   24.1906    8.0533   53.3339 C   0  0  0  0  0  0  0  0  0  0  0  0
   22.8178    7.5970   53.2608 N   0  0  0  0  0  0  0  0  0  0  0  0
   20.1170    5.1749   53.4118 C   0  0  0  0  0  0  0  0  0  0  0  0
   20.5738    3.9545   52.9535 C   0  0  0  0  0  0  0  0  0  0  0  0
   19.7486    2.8521   52.9944 C   0  0  0  0  0  0  0  0  0  0  0  0
   18.5115    2.9429   53.4707 N   0  0  0  0  0  0  0  0  0  0  0  0
   18.0455    4.1185   53.9217 C   0  0  0  0  0  0  0  0  0  0  0  0
   16.6757    4.2400   54.4540 C   0  0  0  0  0  0  0  0  0  0  0  0
   18.8409    5.2500   53.8985 C   0  0  0  0  0  0  0  0  0  0  0  0
   21.3101   12.5877   52.3755 C   0  0  0  0  0  0  0  0  0  0  0  0
   21.4010   12.1432   53.6727 C   0  0  0  0  0  0  0  0  0  0  0  0
   21.5731   10.7907   53.9136 C   0  0  0  0  0  0  0  0  0  0  0  0
   21.6583    9.8531   52.9314 C   0  0  0  0  0  0  0  0  0  0  0  0
   21.5627   10.3395   51.6135 C   0  0  0  0  0  0  0  0  0  0  0  0
   21.3934   11.6722   51.3593 C   0  0  0  0  0  0  0  0  0  0  0  0
   19.9505   14.4381   51.5268 C   0  0  0  0  0  0  0  0  0  0  0  0
   21.1349   13.9528   52.0802 O   0  0  0  0  0  0  0  0  0  0  0  0
   21.2958   12.1778   50.0553 O   0  0  0  0  0  0  0  0  0  0  0  0
   20.0670   12.2127   49.3591 C   0  0  0  0  0  0  0  0  0  0  0  0
   26.2554    7.6819   54.6911 C   0  0  0  0  0  0  0  0  0  0  0  0
   26.8159    8.4897   53.7207 F   0  0  0  0  0  0  0  0  0  0  0  0
 24 25  1  0  0  0
 25 18  1  0  0  0
 18 19  2  0  0  0
 19 20  1  0  0  0
 20 21  2  0  0  0
 21 22  1  0  0  0
 22 23  2  0  0  0
 23 26  1  0  0  0
 26 27  1  0  0  0
 21  1  1  0  0  0
  1  2  2  0  0  0
  2  3  1  0  0  0
  3  4  2  0  0  0
  4  5  1  0  0  0
  5  6  1  0  0  0
  6  7  1  0  0  0
  7  8  1  0  0  0
  8 28  1  0  0  0
 28 29  1  0  0  0
  8  9  1  0  0  0
  9 10  1  0  0  0
  3 11  1  0  0  0
 11 12  2  0  0  0
 12 13  1  0  0  0
 13 14  2  0  0  0
 14 15  1  0  0  0
 15 16  1  0  0  0
 15 17  2  0  0  0
 23 18  1  0  0  0
 10  1  1  0  0  0
 17 11  1  0  0  0
 10  4  1  0  0  0
M  END
> <minimizedAffinity>
25.91553

> <CNNscore>
0.4216990769

> <CNNaffinity>
6.0625877380

> <CNN_VS>
2.5565876961

> <CNNaffinity_variance>
0.3721290231

$$$$
[H]c1nc(C([H])([H])[H])c([H])c(-c2nc(-c3c([H])c([H])c(OC([H])([H])[H])c(OC([H])([H])[H])c3[H])n3c2C([H])([H])C([H])([H])O[C@]([H])(C([H])([H])F)C3([H])[H])c1[H]


 29 32  0  0  0  0  0  0  0  0999 V2000
   24.1929    8.7552   53.7489 C   0  0  0  0  0  0  0  0  0  0  0  0
   23.7882    9.9182   53.1367 N   0  0  0  0  0  0  0  0  0  0  0  0
   22.5852    9.7695   52.5687 C   0  0  0  0  0  0  0  0  0  0  0  0
   22.1938    8.4784   52.8150 C   0  0  0  0  0  0  0  0  0  0  0  0
   20.9644    7.8147   52.3672 C   0  0  0  0  0  0  0  0  0  0  0  0
   20.1126    7.4976   53.5727 C   0  0  0  0  0  0  0  0  0  0  0  0
   20.9675    7.0479   54.5661 O   0  0  0  0  0  0  0  0  0  0  0  0
   21.7652    6.0053   54.1509 C   0  0  0  0  0  0  0  0  0  0  0  0
   23.2105    6.5368   54.0862 C   0  0  0  0  0  0  0  0  0  0  0  0
   23.2096    7.8820   53.5490 N   0  0  0  0  0  0  0  0  0  0  0  0
   21.8287   10.7596   51.8182 C   0  0  0  0  0  0  0  0  0  0  0  0
   20.9624   10.3213   50.8354 C   0  0  0  0  0  0  0  0  0  0  0  0
   20.2528   11.2347   50.0871 C   0  0  0  0  0  0  0  0  0  0  0  0
   20.3880   12.5400   50.2958 N   0  0  0  0  0  0  0  0  0  0  0  0
   21.2239   12.9897   51.2454 C   0  0  0  0  0  0  0  0  0  0  0  0
   21.3879   14.4341   51.4924 C   0  0  0  0  0  0  0  0  0  0  0  0
   21.9553   12.1066   52.0191 C   0  0  0  0  0  0  0  0  0  0  0  0
   27.7873    8.6077   56.0383 C   0  0  0  0  0  0  0  0  0  0  0  0
   27.6945    7.8497   54.8958 C   0  0  0  0  0  0  0  0  0  0  0  0
   26.5376    7.9085   54.1375 C   0  0  0  0  0  0  0  0  0  0  0  0
   25.4640    8.6813   54.4558 C   0  0  0  0  0  0  0  0  0  0  0  0
   25.5898    9.4466   55.6309 C   0  0  0  0  0  0  0  0  0  0  0  0
   26.7261    9.4000   56.3899 C   0  0  0  0  0  0  0  0  0  0  0  0
   28.8692    8.6010   58.2343 C   0  0  0  0  0  0  0  0  0  0  0  0
   28.9428    8.5817   56.8419 O   0  0  0  0  0  0  0  0  0  0  0  0
   26.8725   10.1535   57.5632 O   0  0  0  0  0  0  0  0  0  0  0  0
   27.7538   11.2552   57.6367 C   0  0  0  0  0  0  0  0  0  0  0  0
   21.6749    4.9453   55.2492 C   0  0  0  0  0  0  0  0  0  0  0  0
   20.5916    4.1447   54.9428 F   0  0  0  0  0  0  0  0  0  0  0  0
 24 25  1  0  0  0
 25 18  1  0  0  0
 18 19  2  0  0  0
 19 20  1  0  0  0
 20 21  2  0  0  0
 21 22  1  0  0  0
 22 23  2  0  0  0
 23 26  1  0  0  0
 26 27  1  0  0  0
 21  1  1  0  0  0
  1  2  2  0  0  0
  2  3  1  0  0  0
  3  4  2  0  0  0
  4  5  1  0  0  0
  5  6  1  0  0  0
  6  7  1  0  0  0
  7  8  1  0  0  0
  8 28  1  0  0  0
 28 29  1  0  0  0
  8  9  1  0  0  0
  9 10  1  0  0  0
  3 11  1  0  0  0
 11 12  2  0  0  0
 12 13  1  0  0  0
 13 14  2  0  0  0
 14 15  1  0  0  0
 15 16  1  0  0  0
 15 17  2  0  0  0
 23 18  1  0  0  0
 10  1  1  0  0  0
 17 11  1  0  0  0
 10  4  1  0  0  0
M  END
> <minimizedAffinity>
37.25512

> <CNNscore>
0.4190978408

> <CNNaffinity>
5.6575236320

> <CNN_VS>
2.3710558414

> <CNNaffinity_variance>
0.1997948140

$$$$
[H]c1nc(C([H])([H])[H])c([H])c(-c2nc(-c3c([H])c([H])c(OC([H])([H])[H])c(OC([H])([H])[H])c3[H])n3c2C([H])([H])C([H])([H])O[C@]([H])(C([H])([H])F)C3([H])[H])c1[H]


 29 32  0  0  0  0  0  0  0  0999 V2000
   23.6662    8.8970   53.4928 C   0  0  0  0  0  0  0  0  0  0  0  0
   23.4136   10.1561   53.0008 N   0  0  0  0  0  0  0  0  0  0  0  0
   22.1080   10.4447   53.0649 C   0  0  0  0  0  0  0  0  0  0  0  0
   21.4919    9.3481   53.6115 C   0  0  0  0  0  0  0  0  0  0  0  0
   20.0579    9.1550   53.8539 C   0  0  0  0  0  0  0  0  0  0  0  0
   19.8186    9.0835   55.3430 C   0  0  0  0  0  0  0  0  0  0  0  0
   20.8467    8.3275   55.8828 O   0  0  0  0  0  0  0  0  0  0  0  0
   20.9810    7.0994   55.2750 C   0  0  0  0  0  0  0  0  0  0  0  0
   22.3116    7.1204   54.4974 C   0  0  0  0  0  0  0  0  0  0  0  0
   22.4850    8.4127   53.8664 N   0  0  0  0  0  0  0  0  0  0  0  0
   21.4456   11.6650   52.6314 C   0  0  0  0  0  0  0  0  0  0  0  0
   21.6036   12.0708   51.3204 C   0  0  0  0  0  0  0  0  0  0  0  0
   21.0130   13.2371   50.8859 C   0  0  0  0  0  0  0  0  0  0  0  0
   20.2884   13.9842   51.7120 N   0  0  0  0  0  0  0  0  0  0  0  0
   20.1208   13.6100   52.9905 C   0  0  0  0  0  0  0  0  0  0  0  0
   19.3205   14.4252   53.9229 C   0  0  0  0  0  0  0  0  0  0  0  0
   20.6966   12.4463   53.4677 C   0  0  0  0  0  0  0  0  0  0  0  0
   27.6470    7.4243   53.9024 C   0  0  0  0  0  0  0  0  0  0  0  0
   26.8348    6.8863   52.9330 C   0  0  0  0  0  0  0  0  0  0  0  0
   25.5479    7.3740   52.7821 C   0  0  0  0  0  0  0  0  0  0  0  0
   25.0225    8.3694   53.5463 C   0  0  0  0  0  0  0  0  0  0  0  0
   25.8790    8.9006   54.5296 C   0  0  0  0  0  0  0  0  0  0  0  0
   27.1526    8.4303   54.6905 C   0  0  0  0  0  0  0  0  0  0  0  0
   29.3783    5.7158   53.6265 C   0  0  0  0  0  0  0  0  0  0  0  0
   28.9626    6.9620   54.0941 O   0  0  0  0  0  0  0  0  0  0  0  0
   28.0219    8.9446   55.6630 O   0  0  0  0  0  0  0  0  0  0  0  0
   27.5692    9.8062   56.6869 C   0  0  0  0  0  0  0  0  0  0  0  0
   21.0851    6.0794   56.4093 C   0  0  0  0  0  0  0  0  0  0  0  0
   21.6424    6.7382   57.4881 F   0  0  0  0  0  0  0  0  0  0  0  0
 24 25  1  0  0  0
 25 18  1  0  0  0
 18 19  2  0  0  0
 19 20  1  0  0  0
 20 21  2  0  0  0
 21 22  1  0  0  0
 22 23  2  0  0  0
 23 26  1  0  0  0
 26 27  1  0  0  0
 21  1  1  0  0  0
  1  2  2  0  0  0
  2  3  1  0  0  0
  3  4  2  0  0  0
  4  5  1  0  0  0
  5  6  1  0  0  0
  6  7  1  0  0  0
  7  8  1  0  0  0
  8 28  1  0  0  0
 28 29  1  0  0  0
  8  9  1  0  0  0
  9 10  1  0  0  0
  3 11  1  0  0  0
 11 12  2  0  0  0
 12 13  1  0  0  0
 13 14  2  0  0  0
 14 15  1  0  0  0
 15 16  1  0  0  0
 15 17  2  0  0  0
 23 18  1  0  0  0
 10  1  1  0  0  0
 17 11  1  0  0  0
 10  4  1  0  0  0
M  END
> <minimizedAffinity>
45.75689

> <CNNscore>
0.4136914015

> <CNNaffinity>
5.4881248474

> <CNN_VS>
2.2703900337

> <CNNaffinity_variance>
0.3685260713

$$$$
[H]c1nc(C([H])([H])[H])c([H])c(-c2nc(-c3c([H])c([H])c(F)c(OC([H])([H])[H])c3[H])n3c2C([H])([H])C([H])([H])O[C@]([H])(C([H])([H])F)C3([H])[H])c1[H]


 28 31  0  0  0  0  0  0  0  0999 V2000
   23.0383    9.6353   53.9826 C   0  0  0  0  0  0  0  0  0  0  0  0
   24.2906    9.8695   54.4876 N   0  0  0  0  0  0  0  0  0  0  0  0
   25.0417    8.7662   54.4846 C   0  0  0  0  0  0  0  0  0  0  0  0
   24.2458    7.7880   53.9586 C   0  0  0  0  0  0  0  0  0  0  0  0
   24.6684    6.3620   53.7842 C   0  0  0  0  0  0  0  0  0  0  0  0
   23.4360    5.4494   53.9441 C   0  0  0  0  0  0  0  0  0  0  0  0
   22.4874    5.9972   54.7742 O   0  0  0  0  0  0  0  0  0  0  0  0
   21.4430    6.6488   54.1113 C   0  0  0  0  0  0  0  0  0  0  0  0
   22.0005    7.5832   53.0377 C   0  0  0  0  0  0  0  0  0  0  0  0
   23.0230    8.3508   53.6573 N   0  0  0  0  0  0  0  0  0  0  0  0
   20.9264   12.5269   52.7945 C   0  0  0  0  0  0  0  0  0  0  0  0
   21.8944   11.5146   52.7702 C   0  0  0  0  0  0  0  0  0  0  0  0
   22.0147   10.6988   53.8433 C   0  0  0  0  0  0  0  0  0  0  0  0
   21.1710   10.8960   54.9266 C   0  0  0  0  0  0  0  0  0  0  0  0
   20.2294   11.8662   54.9708 C   0  0  0  0  0  0  0  0  0  0  0  0
   20.0993   12.7073   53.8788 C   0  0  0  0  0  0  0  0  0  0  0  0
   19.1527   13.6879   53.9176 F   0  0  0  0  0  0  0  0  0  0  0  0
   21.8282   13.5036   50.7283 C   0  0  0  0  0  0  0  0  0  0  0  0
   20.7900   13.3725   51.7056 O   0  0  0  0  0  0  0  0  0  0  0  0
   26.4144    8.5835   54.9311 C   0  0  0  0  0  0  0  0  0  0  0  0
   27.3918    8.0174   54.1537 C   0  0  0  0  0  0  0  0  0  0  0  0
   28.6877    7.8657   54.6277 C   0  0  0  0  0  0  0  0  0  0  0  0
   29.0078    8.2733   55.8631 N   0  0  0  0  0  0  0  0  0  0  0  0
   28.0900    8.8292   56.6541 C   0  0  0  0  0  0  0  0  0  0  0  0
   28.3919    9.2985   58.0322 C   0  0  0  0  0  0  0  0  0  0  0  0
   26.7747    8.9914   56.1936 C   0  0  0  0  0  0  0  0  0  0  0  0
   20.4736    5.6845   53.4953 C   0  0  0  0  0  0  0  0  0  0  0  0
   19.5623    6.4216   52.7621 F   0  0  0  0  0  0  0  0  0  0  0  0
 18 19  1  0  0  0
 19 11  1  0  0  0
 11 12  2  0  0  0
 12 13  1  0  0  0
 13 14  2  0  0  0
 14 15  1  0  0  0
 15 16  2  0  0  0
 16 17  1  0  0  0
 13  1  1  0  0  0
  1  2  2  0  0  0
  2  3  1  0  0  0
  3  4  2  0  0  0
  4  5  1  0  0  0
  5  6  1  0  0  0
  6  7  1  0  0  0
  7  8  1  0  0  0
  8 27  1  0  0  0
 27 28  1  0  0  0
  8  9  1  0  0  0
  9 10  1  0  0  0
  3 20  1  0  0  0
 20 21  2  0  0  0
 21 22  1  0  0  0
 22 23  2  0  0  0
 23 24  1  0  0  0
 24 25  1  0  0  0
 24 26  2  0  0  0
 16 11  1  0  0  0
 10  1  1  0  0  0
 26 20  1  0  0  0
 10  4  1  0  0  0
M  END
> <minimizedAffinity>
28.49471

> <CNNscore>
0.5168151259

> <CNNaffinity>
5.7991647720

> <CNN_VS>
2.9970960617

> <CNNaffinity_variance>
0.2540538907

$$$$
[H]c1nc(C([H])([H])[H])c([H])c(-c2nc(-c3c([H])c([H])c(F)c(OC([H])([H])[H])c3[H])n3c2C([H])([H])C([H])([H])O[C@]([H])(C([H])([H])F)C3([H])[H])c1[H]


 28 31  0  0  0  0  0  0  0  0999 V2000
   23.5764    7.5377   53.6970 C   0  0  0  0  0  0  0  0  0  0  0  0
   23.0150    6.3126   53.9465 N   0  0  0  0  0  0  0  0  0  0  0  0
   21.8237    6.1831   53.3588 C   0  0  0  0  0  0  0  0  0  0  0  0
   21.6110    7.3654   52.7076 C   0  0  0  0  0  0  0  0  0  0  0  0
   20.3763    7.6837   51.9224 C   0  0  0  0  0  0  0  0  0  0  0  0
   20.0990    9.1976   52.0135 C   0  0  0  0  0  0  0  0  0  0  0  0
   20.5699    9.7430   53.1840 O   0  0  0  0  0  0  0  0  0  0  0  0
   21.8169   10.3655   53.0735 C   0  0  0  0  0  0  0  0  0  0  0  0
   22.7952    9.4592   52.3264 C   0  0  0  0  0  0  0  0  0  0  0  0
   22.7042    8.1765   52.9307 N   0  0  0  0  0  0  0  0  0  0  0  0
   26.4420    8.9263   55.7201 C   0  0  0  0  0  0  0  0  0  0  0  0
   25.1347    8.5469   55.3891 C   0  0  0  0  0  0  0  0  0  0  0  0
   24.9129    7.9293   54.2055 C   0  0  0  0  0  0  0  0  0  0  0  0
   25.9917    7.6933   53.3658 C   0  0  0  0  0  0  0  0  0  0  0  0
   27.2615    8.0504   53.6659 C   0  0  0  0  0  0  0  0  0  0  0  0
   27.4989    8.6844   54.8735 C   0  0  0  0  0  0  0  0  0  0  0  0
   28.7766    9.0477   55.1814 F   0  0  0  0  0  0  0  0  0  0  0  0
   27.8113    9.2072   57.7406 C   0  0  0  0  0  0  0  0  0  0  0  0
   26.6877    9.5611   56.9267 O   0  0  0  0  0  0  0  0  0  0  0  0
   20.9060    5.0541   53.3727 C   0  0  0  0  0  0  0  0  0  0  0  0
   21.2618    3.7877   52.9857 C   0  0  0  0  0  0  0  0  0  0  0  0
   20.3471    2.7440   53.0178 C   0  0  0  0  0  0  0  0  0  0  0  0
   19.0909    2.9583   53.4310 N   0  0  0  0  0  0  0  0  0  0  0  0
   18.7006    4.1732   53.8166 C   0  0  0  0  0  0  0  0  0  0  0  0
   17.3196    4.4654   54.2836 C   0  0  0  0  0  0  0  0  0  0  0  0
   19.6100    5.2413   53.7915 C   0  0  0  0  0  0  0  0  0  0  0  0
   21.7275   11.6957   52.3870 C   0  0  0  0  0  0  0  0  0  0  0  0
   21.5218   11.4565   51.0409 F   0  0  0  0  0  0  0  0  0  0  0  0
 18 19  1  0  0  0
 19 11  1  0  0  0
 11 12  2  0  0  0
 12 13  1  0  0  0
 13 14  2  0  0  0
 14 15  1  0  0  0
 15 16  2  0  0  0
 16 17  1  0  0  0
 13  1  1  0  0  0
  1  2  2  0  0  0
  2  3  1  0  0  0
  3  4  2  0  0  0
  4  5  1  0  0  0
  5  6  1  0  0  0
  6  7  1  0  0  0
  7  8  1  0  0  0
  8 27  1  0  0  0
 27 28  1  0  0  0
  8  9  1  0  0  0
  9 10  1  0  0  0
  3 20  1  0  0  0
 20 21  2  0  0  0
 21 22  1  0  0  0
 22 23  2  0  0  0
 23 24  1  0  0  0
 24 25  1  0  0  0
 24 26  2  0  0  0
 16 11  1  0  0  0
 10  1  1  0  0  0
 26 20  1  0  0  0
 10  4  1  0  0  0
M  END
> <minimizedAffinity>
20.36333

> <CNNscore>
0.4783897996

> <CNNaffinity>
6.4496994019

> <CNN_VS>
3.0854704380

> <CNNaffinity_variance>
0.6294795871

$$$$
[H]c1nc(C([H])([H])[H])c([H])c(-c2nc(-c3c([H])c([H])c(F)c(OC([H])([H])[H])c3[H])n3c2C([H])([H])C([H])([H])O[C@]([H])(C([H])([H])F)C3([H])[H])c1[H]


 28 31  0  0  0  0  0  0  0  0999 V2000
   23.1607    7.5193   53.6990 C   0  0  0  0  0  0  0  0  0  0  0  0
   22.5531    6.3381   54.0364 N   0  0  0  0  0  0  0  0  0  0  0  0
   21.4434    6.1294   53.3249 C   0  0  0  0  0  0  0  0  0  0  0  0
   21.3330    7.2134   52.5003 C   0  0  0  0  0  0  0  0  0  0  0  0
   20.2121    7.4219   51.5294 C   0  0  0  0  0  0  0  0  0  0  0  0
   19.9496    8.9340   51.3820 C   0  0  0  0  0  0  0  0  0  0  0  0
   20.2780    9.6321   52.5195 O   0  0  0  0  0  0  0  0  0  0  0  0
   21.5387   10.2357   52.4861 C   0  0  0  0  0  0  0  0  0  0  0  0
   22.5887    9.2385   51.9966 C   0  0  0  0  0  0  0  0  0  0  0  0
   22.4022    8.0484   52.7500 N   0  0  0  0  0  0  0  0  0  0  0  0
   26.7763    8.0218   54.6517 C   0  0  0  0  0  0  0  0  0  0  0  0
   25.6609    7.5641   53.9385 C   0  0  0  0  0  0  0  0  0  0  0  0
   24.4287    7.9772   54.3161 C   0  0  0  0  0  0  0  0  0  0  0  0
   24.3187    8.8418   55.3954 C   0  0  0  0  0  0  0  0  0  0  0  0
   25.3820    9.2964   56.0972 C   0  0  0  0  0  0  0  0  0  0  0  0
   26.6468    8.8784   55.7203 C   0  0  0  0  0  0  0  0  0  0  0  0
   27.7227    9.3324   56.4243 F   0  0  0  0  0  0  0  0  0  0  0  0
   29.2102    8.3576   54.6432 C   0  0  0  0  0  0  0  0  0  0  0  0
   28.0454    7.6081   54.2805 O   0  0  0  0  0  0  0  0  0  0  0  0
   20.5134    5.0114   53.3726 C   0  0  0  0  0  0  0  0  0  0  0  0
   20.8421    3.7392   52.9806 C   0  0  0  0  0  0  0  0  0  0  0  0
   19.9168    2.7066   53.0461 C   0  0  0  0  0  0  0  0  0  0  0  0
   18.6767    2.9374   53.4973 N   0  0  0  0  0  0  0  0  0  0  0  0
   18.3129    4.1585   53.8893 C   0  0  0  0  0  0  0  0  0  0  0  0
   16.9506    4.4689   54.3978 C   0  0  0  0  0  0  0  0  0  0  0  0
   19.2334    5.2157   53.8308 C   0  0  0  0  0  0  0  0  0  0  0  0
   21.5575   11.4616   51.6227 C   0  0  0  0  0  0  0  0  0  0  0  0
   21.5674   12.5610   52.4610 F   0  0  0  0  0  0  0  0  0  0  0  0
 18 19  1  0  0  0
 19 11  1  0  0  0
 11 12  2  0  0  0
 12 13  1  0  0  0
 13 14  2  0  0  0
 14 15  1  0  0  0
 15 16  2  0  0  0
 16 17  1  0  0  0
 13  1  1  0  0  0
  1  2  2  0  0  0
  2  3  1  0  0  0
  3  4  2  0  0  0
  4  5  1  0  0  0
  5  6  1  0  0  0
  6  7  1  0  0  0
  7  8  1  0  0  0
  8 27  1  0  0  0
 27 28  1  0  0  0
  8  9  1  0  0  0
  9 10  1  0  0  0
  3 20  1  0  0  0
 20 21  2  0  0  0
 21 22  1  0  0  0
 22 23  2  0  0  0
 23 24  1  0  0  0
 24 25  1  0  0  0
 24 26  2  0  0  0
 16 11  1  0  0  0
 10  1  1  0  0  0
 26 20  1  0  0  0
 10  4  1  0  0  0
M  END
> <minimizedAffinity>
22.09549

> <CNNscore>
0.4539197683

> <CNNaffinity>
6.4183912277

> <CNN_VS>
2.9134347439

> <CNNaffinity_variance>
0.7912107706

$$$$
[H]c1nc(C([H])([H])[H])c([H])c(-c2nc(-c3c([H])c([H])c(F)c(OC([H])([H])[H])c3[H])n3c2C([H])([H])C([H])([H])O[C@]([H])(C([H])([H])F)C3([H])[H])c1[H]


 28 31  0  0  0  0  0  0  0  0999 V2000
   23.0895    8.4721   52.9364 C   0  0  0  0  0  0  0  0  0  0  0  0
   24.2824    9.0330   53.3116 N   0  0  0  0  0  0  0  0  0  0  0  0
   25.0230    8.1890   54.0330 C   0  0  0  0  0  0  0  0  0  0  0  0
   24.2817    7.0448   54.1249 C   0  0  0  0  0  0  0  0  0  0  0  0
   24.7120    5.8207   54.8724 C   0  0  0  0  0  0  0  0  0  0  0  0
   23.4642    5.1101   55.4339 C   0  0  0  0  0  0  0  0  0  0  0  0
   22.4360    5.9866   55.6861 O   0  0  0  0  0  0  0  0  0  0  0  0
   21.4719    6.0558   54.6758 C   0  0  0  0  0  0  0  0  0  0  0  0
   22.1459    6.2029   53.3118 C   0  0  0  0  0  0  0  0  0  0  0  0
   23.1013    7.2466   53.4403 N   0  0  0  0  0  0  0  0  0  0  0  0
   21.0641   11.0741   51.1034 C   0  0  0  0  0  0  0  0  0  0  0  0
   22.1063   10.5144   51.8537 C   0  0  0  0  0  0  0  0  0  0  0  0
   22.0929    9.1839   52.1008 C   0  0  0  0  0  0  0  0  0  0  0  0
   21.0465    8.4244   51.5979 C   0  0  0  0  0  0  0  0  0  0  0  0
   20.0310    8.9440   50.8708 C   0  0  0  0  0  0  0  0  0  0  0  0
   20.0343   10.3044   50.6139 C   0  0  0  0  0  0  0  0  0  0  0  0
   19.0129   10.8344   49.8824 F   0  0  0  0  0  0  0  0  0  0  0  0
   21.8219   13.3493   51.6379 C   0  0  0  0  0  0  0  0  0  0  0  0
   21.0603   12.4346   50.8420 O   0  0  0  0  0  0  0  0  0  0  0  0
   26.3393    8.3873   54.6205 C   0  0  0  0  0  0  0  0  0  0  0  0
   27.5088    8.0900   53.9694 C   0  0  0  0  0  0  0  0  0  0  0  0
   28.7403    8.2982   54.5752 C   0  0  0  0  0  0  0  0  0  0  0  0
   28.8074    8.7973   55.8166 N   0  0  0  0  0  0  0  0  0  0  0  0
   27.6962    9.1010   56.4876 C   0  0  0  0  0  0  0  0  0  0  0  0
   27.7143    9.6571   57.8664 C   0  0  0  0  0  0  0  0  0  0  0  0
   26.4419    8.8979   55.8929 C   0  0  0  0  0  0  0  0  0  0  0  0
   20.5678    4.8593   54.6721 C   0  0  0  0  0  0  0  0  0  0  0  0
   19.9032    4.8435   53.4599 F   0  0  0  0  0  0  0  0  0  0  0  0
 18 19  1  0  0  0
 19 11  1  0  0  0
 11 12  2  0  0  0
 12 13  1  0  0  0
 13 14  2  0  0  0
 14 15  1  0  0  0
 15 16  2  0  0  0
 16 17  1  0  0  0
 13  1  1  0  0  0
  1  2  2  0  0  0
  2  3  1  0  0  0
  3  4  2  0  0  0
  4  5  1  0  0  0
  5  6  1  0  0  0
  6  7  1  0  0  0
  7  8  1  0  0  0
  8 27  1  0  0  0
 27 28  1  0  0  0
  8  9  1  0  0  0
  9 10  1  0  0  0
  3 20  1  0  0  0
 20 21  2  0  0  0
 21 22  1  0  0  0
 22 23  2  0  0  0
 23 24  1  0  0  0
 24 25  1  0  0  0
 24 26  2  0  0  0
 16 11  1  0  0  0
 10  1  1  0  0  0
 26 20  1  0  0  0
 10  4  1  0  0  0
M  END
> <minimizedAffinity>
27.95699

> <CNNscore>
0.4501149952

> <CNNaffinity>
5.8614683151

> <CNN_VS>
2.6383347511

> <CNNaffinity_variance>
0.2855077386

$$$$
[H]c1nc(C([H])([H])[H])c([H])c(-c2nc(-c3c([H])c([H])c(F)c(OC([H])([H])[H])c3[H])n3c2C([H])([H])C([H])([H])O[C@]([H])(C([H])([H])F)C3([H])[H])c1[H]


 28 31  0  0  0  0  0  0  0  0999 V2000
   21.4632    8.2461   53.2108 C   0  0  0  0  0  0  0  0  0  0  0  0
   20.4670    7.3423   52.9482 N   0  0  0  0  0  0  0  0  0  0  0  0
   20.7229    6.1497   53.4899 C   0  0  0  0  0  0  0  0  0  0  0  0
   21.9250    6.2906   54.1240 C   0  0  0  0  0  0  0  0  0  0  0  0
   22.6238    5.1884   54.8584 C   0  0  0  0  0  0  0  0  0  0  0  0
   24.1473    5.3965   54.7460 C   0  0  0  0  0  0  0  0  0  0  0  0
   24.4986    6.0535   53.5910 O   0  0  0  0  0  0  0  0  0  0  0  0
   24.7073    7.4274   53.7456 C   0  0  0  0  0  0  0  0  0  0  0  0
   23.5573    8.0505   54.5365 C   0  0  0  0  0  0  0  0  0  0  0  0
   22.3544    7.5883   53.9381 N   0  0  0  0  0  0  0  0  0  0  0  0
   21.2484   11.4047   51.1590 C   0  0  0  0  0  0  0  0  0  0  0  0
   21.2022   10.0400   51.4719 C   0  0  0  0  0  0  0  0  0  0  0  0
   21.4132    9.6551   52.7520 C   0  0  0  0  0  0  0  0  0  0  0  0
   21.6649   10.6296   53.7068 C   0  0  0  0  0  0  0  0  0  0  0  0
   21.7132   11.9521   53.4268 C   0  0  0  0  0  0  0  0  0  0  0  0
   21.5006   12.3563   52.1199 C   0  0  0  0  0  0  0  0  0  0  0  0
   21.5489   13.6881   51.8310 F   0  0  0  0  0  0  0  0  0  0  0  0
   20.3312   13.0278   49.5588 C   0  0  0  0  0  0  0  0  0  0  0  0
   21.0366   11.8171   49.8535 O   0  0  0  0  0  0  0  0  0  0  0  0
   19.9326    4.9287   53.4481 C   0  0  0  0  0  0  0  0  0  0  0  0
   20.3945    3.7484   52.9250 C   0  0  0  0  0  0  0  0  0  0  0  0
   19.5993    2.6107   52.9092 C   0  0  0  0  0  0  0  0  0  0  0  0
   18.3569    2.6470   53.4090 N   0  0  0  0  0  0  0  0  0  0  0  0
   17.8661    3.7727   53.9278 C   0  0  0  0  0  0  0  0  0  0  0  0
   16.4951    3.8674   54.4952 C   0  0  0  0  0  0  0  0  0  0  0  0
   18.6539    4.9333   53.9531 C   0  0  0  0  0  0  0  0  0  0  0  0
   26.0127    7.7301   54.4189 C   0  0  0  0  0  0  0  0  0  0  0  0
   26.7141    8.5934   53.5978 F   0  0  0  0  0  0  0  0  0  0  0  0
 18 19  1  0  0  0
 19 11  1  0  0  0
 11 12  2  0  0  0
 12 13  1  0  0  0
 13 14  2  0  0  0
 14 15  1  0  0  0
 15 16  2  0  0  0
 16 17  1  0  0  0
 13  1  1  0  0  0
  1  2  2  0  0  0
  2  3  1  0  0  0
  3  4  2  0  0  0
  4  5  1  0  0  0
  5  6  1  0  0  0
  6  7  1  0  0  0
  7  8  1  0  0  0
  8 27  1  0  0  0
 27 28  1  0  0  0
  8  9  1  0  0  0
  9 10  1  0  0  0
  3 20  1  0  0  0
 20 21  2  0  0  0
 21 22  1  0  0  0
 22 23  2  0  0  0
 23 24  1  0  0  0
 24 25  1  0  0  0
 24 26  2  0  0  0
 16 11  1  0  0  0
 10  1  1  0  0  0
 26 20  1  0  0  0
 10  4  1  0  0  0
M  END
> <minimizedAffinity>
22.99922

> <CNNscore>
0.4426067173

> <CNNaffinity>
6.3258032799

> <CNN_VS>
2.7998430729

> <CNNaffinity_variance>
0.4260398746

$$$$
[H]c1nc(C([H])([H])[H])c([H])c(-c2nc(-c3c([H])c([H])c(F)c(OC([H])([H])[H])c3[H])n3c2C([H])([H])C([H])([H])O[C@]([H])(C([H])([H])F)C3([H])[H])c1[H]


 28 31  0  0  0  0  0  0  0  0999 V2000
   22.6835    7.0675   54.3226 C   0  0  0  0  0  0  0  0  0  0  0  0
   24.0442    6.9626   54.1966 N   0  0  0  0  0  0  0  0  0  0  0  0
   24.6740    8.0184   54.7162 C   0  0  0  0  0  0  0  0  0  0  0  0
   23.6847    8.8309   55.1940 C   0  0  0  0  0  0  0  0  0  0  0  0
   23.9262   10.1560   55.8485 C   0  0  0  0  0  0  0  0  0  0  0  0
   22.7381   11.0905   55.5449 C   0  0  0  0  0  0  0  0  0  0  0  0
   22.1335   10.7908   54.3475 O   0  0  0  0  0  0  0  0  0  0  0  0
   20.9874    9.9976   54.4588 C   0  0  0  0  0  0  0  0  0  0  0  0
   21.2564    8.8074   55.3795 C   0  0  0  0  0  0  0  0  0  0  0  0
   22.4738    8.2206   54.9409 N   0  0  0  0  0  0  0  0  0  0  0  0
   19.6298    5.0095   53.5029 C   0  0  0  0  0  0  0  0  0  0  0  0
   20.3994    6.1062   53.9119 C   0  0  0  0  0  0  0  0  0  0  0  0
   21.7485    6.0151   53.8573 C   0  0  0  0  0  0  0  0  0  0  0  0
   22.3176    4.8375   53.3948 C   0  0  0  0  0  0  0  0  0  0  0  0
   21.5936    3.7673   52.9944 C   0  0  0  0  0  0  0  0  0  0  0  0
   20.2127    3.8494   53.0481 C   0  0  0  0  0  0  0  0  0  0  0  0
   19.4773    2.7736   52.6467 F   0  0  0  0  0  0  0  0  0  0  0  0
   17.4712    4.0920   54.2346 C   0  0  0  0  0  0  0  0  0  0  0  0
   18.2473    5.0840   53.5536 O   0  0  0  0  0  0  0  0  0  0  0  0
   26.0999    8.2990   54.7874 C   0  0  0  0  0  0  0  0  0  0  0  0
   26.9706    8.0482   53.7584 C   0  0  0  0  0  0  0  0  0  0  0  0
   28.3237    8.3346   53.8773 C   0  0  0  0  0  0  0  0  0  0  0  0
   28.8055    8.8656   55.0089 N   0  0  0  0  0  0  0  0  0  0  0  0
   27.9959    9.1263   56.0354 C   0  0  0  0  0  0  0  0  0  0  0  0
   28.4784    9.7148   57.3127 C   0  0  0  0  0  0  0  0  0  0  0  0
   26.6253    8.8441   55.9350 C   0  0  0  0  0  0  0  0  0  0  0  0
   19.8071   10.7746   54.9607 C   0  0  0  0  0  0  0  0  0  0  0  0
   19.8709   10.7830   56.3418 F   0  0  0  0  0  0  0  0  0  0  0  0
 18 19  1  0  0  0
 19 11  1  0  0  0
 11 12  2  0  0  0
 12 13  1  0  0  0
 13 14  2  0  0  0
 14 15  1  0  0  0
 15 16  2  0  0  0
 16 17  1  0  0  0
 13  1  1  0  0  0
  1  2  2  0  0  0
  2  3  1  0  0  0
  3  4  2  0  0  0
  4  5  1  0  0  0
  5  6  1  0  0  0
  6  7  1  0  0  0
  7  8  1  0  0  0
  8 27  1  0  0  0
 27 28  1  0  0  0
  8  9  1  0  0  0
  9 10  1  0  0  0
  3 20  1  0  0  0
 20 21  2  0  0  0
 21 22  1  0  0  0
 22 23  2  0  0  0
 23 24  1  0  0  0
 24 25  1  0  0  0
 24 26  2  0  0  0
 16 11  1  0  0  0
 10  1  1  0  0  0
 26 20  1  0  0  0
 10  4  1  0  0  0
M  END
> <minimizedAffinity>
29.84993

> <CNNscore>
0.4349636734

> <CNNaffinity>
6.1344995499

> <CNN_VS>
2.6682844162

> <CNNaffinity_variance>
0.3962538838

$$$$
[H]c1nc(C([H])([H])[H])c([H])c(-c2nc(-c3c([H])c([H])c(F)c(OC([H])([H])[H])c3[H])n3c2C([H])([H])C([H])([H])O[C@]([H])(C([H])([H])F)C3([H])[H])c1[H]


 28 31  0  0  0  0  0  0  0  0999 V2000
   23.7189    7.6961   53.9523 C   0  0  0  0  0  0  0  0  0  0  0  0
   23.1475    6.5290   54.3877 N   0  0  0  0  0  0  0  0  0  0  0  0
   21.9252    6.3550   53.8808 C   0  0  0  0  0  0  0  0  0  0  0  0
   21.7020    7.4475   53.0910 C   0  0  0  0  0  0  0  0  0  0  0  0
   20.4349    7.6927   52.3317 C   0  0  0  0  0  0  0  0  0  0  0  0
   20.1920    9.2122   52.2363 C   0  0  0  0  0  0  0  0  0  0  0  0
   20.7332    9.8931   53.3006 O   0  0  0  0  0  0  0  0  0  0  0  0
   21.9847   10.4633   53.0487 C   0  0  0  0  0  0  0  0  0  0  0  0
   22.9053    9.4422   52.3806 C   0  0  0  0  0  0  0  0  0  0  0  0
   22.8209    8.2521   53.1519 N   0  0  0  0  0  0  0  0  0  0  0  0
   26.7268    9.1330   55.7187 C   0  0  0  0  0  0  0  0  0  0  0  0
   25.4040    8.7241   55.5059 C   0  0  0  0  0  0  0  0  0  0  0  0
   25.0872    8.1158   54.3392 C   0  0  0  0  0  0  0  0  0  0  0  0
   26.0878    7.9184   53.3988 C   0  0  0  0  0  0  0  0  0  0  0  0
   27.3710    8.3044   53.5840 C   0  0  0  0  0  0  0  0  0  0  0  0
   27.7052    8.9292   54.7733 C   0  0  0  0  0  0  0  0  0  0  0  0
   28.9968    9.3216   54.9657 F   0  0  0  0  0  0  0  0  0  0  0  0
   27.8420    9.0876   57.9074 C   0  0  0  0  0  0  0  0  0  0  0  0
   27.0691    9.7588   56.9063 O   0  0  0  0  0  0  0  0  0  0  0  0
   20.9877    5.2617   54.0877 C   0  0  0  0  0  0  0  0  0  0  0  0
   20.6371    4.7927   55.3275 C   0  0  0  0  0  0  0  0  0  0  0  0
   19.7369    3.7457   55.4705 C   0  0  0  0  0  0  0  0  0  0  0  0
   19.1909    3.1712   54.3905 N   0  0  0  0  0  0  0  0  0  0  0  0
   19.5023    3.5944   53.1654 C   0  0  0  0  0  0  0  0  0  0  0  0
   18.9257    2.9924   51.9342 C   0  0  0  0  0  0  0  0  0  0  0  0
   20.4101    4.6512   52.9996 C   0  0  0  0  0  0  0  0  0  0  0  0
   21.8858   11.6946   52.1984 C   0  0  0  0  0  0  0  0  0  0  0  0
   21.4405   11.3032   50.9494 F   0  0  0  0  0  0  0  0  0  0  0  0
 18 19  1  0  0  0
 19 11  1  0  0  0
 11 12  2  0  0  0
 12 13  1  0  0  0
 13 14  2  0  0  0
 14 15  1  0  0  0
 15 16  2  0  0  0
 16 17  1  0  0  0
 13  1  1  0  0  0
  1  2  2  0  0  0
  2  3  1  0  0  0
  3  4  2  0  0  0
  4  5  1  0  0  0
  5  6  1  0  0  0
  6  7  1  0  0  0
  7  8  1  0  0  0
  8 27  1  0  0  0
 27 28  1  0  0  0
  8  9  1  0  0  0
  9 10  1  0  0  0
  3 20  1  0  0  0
 20 21  2  0  0  0
 21 22  1  0  0  0
 22 23  2  0  0  0
 23 24  1  0  0  0
 24 25  1  0  0  0
 24 26  2  0  0  0
 16 11  1  0  0  0
 10  1  1  0  0  0
 26 20  1  0  0  0
 10  4  1  0  0  0
M  END
> <minimizedAffinity>
27.08079

> <CNNscore>
0.4303962588

> <CNNaffinity>
6.3446311951

> <CNN_VS>
2.7307054996

> <CNNaffinity_variance>
0.5598751307

$$$$
[H]c1nc(C([H])([H])[H])c([H])c(-c2nc(-c3c([H])c([H])c(F)c(OC([H])([H])[H])c3[H])n3c2C([H])([H])C([H])([H])O[C@]([H])(C([H])([H])F)C3([H])[H])c1[H]


 28 31  0  0  0  0  0  0  0  0999 V2000
   24.0003    8.6900   54.2956 C   0  0  0  0  0  0  0  0  0  0  0  0
   23.6496    9.5167   53.2604 N   0  0  0  0  0  0  0  0  0  0  0  0
   22.3460    9.4412   52.9840 C   0  0  0  0  0  0  0  0  0  0  0  0
   21.8397    8.5351   53.8727 C   0  0  0  0  0  0  0  0  0  0  0  0
   20.4038    8.1123   53.9179 C   0  0  0  0  0  0  0  0  0  0  0  0
   20.3258    6.6480   54.3942 C   0  0  0  0  0  0  0  0  0  0  0  0
   21.4503    5.9318   54.0600 O   0  0  0  0  0  0  0  0  0  0  0  0
   22.3909    5.8155   55.0880 C   0  0  0  0  0  0  0  0  0  0  0  0
   22.6429    7.1796   55.7299 C   0  0  0  0  0  0  0  0  0  0  0  0
   22.8772    8.0926   54.6668 N   0  0  0  0  0  0  0  0  0  0  0  0
   27.1623    9.1073   56.3106 C   0  0  0  0  0  0  0  0  0  0  0  0
   25.8106    9.2101   55.9577 C   0  0  0  0  0  0  0  0  0  0  0  0
   25.3825    8.6052   54.8253 C   0  0  0  0  0  0  0  0  0  0  0  0
   26.3008    7.9032   54.0582 C   0  0  0  0  0  0  0  0  0  0  0  0
   27.6097    7.7907   54.3807 C   0  0  0  0  0  0  0  0  0  0  0  0
   28.0582    8.4074   55.5361 C   0  0  0  0  0  0  0  0  0  0  0  0
   29.3767    8.2984   55.8662 F   0  0  0  0  0  0  0  0  0  0  0  0
   28.0564    8.9568   58.5941 C   0  0  0  0  0  0  0  0  0  0  0  0
   27.6188    9.7216   57.4655 O   0  0  0  0  0  0  0  0  0  0  0  0
   21.5756   10.1450   51.9701 C   0  0  0  0  0  0  0  0  0  0  0  0
   20.7089    9.5192   51.1114 C   0  0  0  0  0  0  0  0  0  0  0  0
   19.9968   10.2375   50.1607 C   0  0  0  0  0  0  0  0  0  0  0  0
   20.1456   11.5655   50.0655 N   0  0  0  0  0  0  0  0  0  0  0  0
   20.9772   12.2160   50.8794 C   0  0  0  0  0  0  0  0  0  0  0  0
   21.1793   13.6876   50.8162 C   0  0  0  0  0  0  0  0  0  0  0  0
   21.7059   11.5081   51.8470 C   0  0  0  0  0  0  0  0  0  0  0  0
   21.9670    4.8291   56.1350 C   0  0  0  0  0  0  0  0  0  0  0  0
   21.5205    5.5484   57.2281 F   0  0  0  0  0  0  0  0  0  0  0  0
 18 19  1  0  0  0
 19 11  1  0  0  0
 11 12  2  0  0  0
 12 13  1  0  0  0
 13 14  2  0  0  0
 14 15  1  0  0  0
 15 16  2  0  0  0
 16 17  1  0  0  0
 13  1  1  0  0  0
  1  2  2  0  0  0
  2  3  1  0  0  0
  3  4  2  0  0  0
  4  5  1  0  0  0
  5  6  1  0  0  0
  6  7  1  0  0  0
  7  8  1  0  0  0
  8 27  1  0  0  0
 27 28  1  0  0  0
  8  9  1  0  0  0
  9 10  1  0  0  0
  3 20  1  0  0  0
 20 21  2  0  0  0
 21 22  1  0  0  0
 22 23  2  0  0  0
 23 24  1  0  0  0
 24 25  1  0  0  0
 24 26  2  0  0  0
 16 11  1  0  0  0
 10  1  1  0  0  0
 26 20  1  0  0  0
 10  4  1  0  0  0
M  END
> <minimizedAffinity>
29.01442

> <CNNscore>
0.4205093384

> <CNNaffinity>
5.8630385399

> <CNN_VS>
2.4654624462

> <CNNaffinity_variance>
0.2197249681

$$$$
[H]c1nc(C([H])([H])[H])c([H])c(-c2nc(-c3c([H])c([H])c(F)c(OC([H])([H])[H])c3[H])n3c2C([H])([H])C([H])([H])O[C@]([H])(C([H])([H])F)C3([H])[H])c1[H]


 28 31  0  0  0  0  0  0  0  0999 V2000
   24.7044    7.5104   54.5348 C   0  0  0  0  0  0  0  0  0  0  0  0
   24.5363    6.6677   55.6023 N   0  0  0  0  0  0  0  0  0  0  0  0
   23.3094    6.1431   55.6328 C   0  0  0  0  0  0  0  0  0  0  0  0
   22.6654    6.6656   54.5468 C   0  0  0  0  0  0  0  0  0  0  0  0
   21.2411    6.3710   54.1904 C   0  0  0  0  0  0  0  0  0  0  0  0
   20.6301    7.6063   53.4992 C   0  0  0  0  0  0  0  0  0  0  0  0
   21.2149    8.7781   53.9164 O   0  0  0  0  0  0  0  0  0  0  0  0
   22.2085    9.2667   53.0626 C   0  0  0  0  0  0  0  0  0  0  0  0
   23.1747    8.1454   52.6807 C   0  0  0  0  0  0  0  0  0  0  0  0
   23.5467    7.4992   53.8900 N   0  0  0  0  0  0  0  0  0  0  0  0
   27.9535    9.4120   54.7801 C   0  0  0  0  0  0  0  0  0  0  0  0
   26.8051    8.7221   55.1896 C   0  0  0  0  0  0  0  0  0  0  0  0
   25.9848    8.2007   54.2479 C   0  0  0  0  0  0  0  0  0  0  0  0
   26.3155    8.3681   52.9111 C   0  0  0  0  0  0  0  0  0  0  0  0
   27.4191    9.0297   52.4938 C   0  0  0  0  0  0  0  0  0  0  0  0
   28.2640    9.5685   53.4491 C   0  0  0  0  0  0  0  0  0  0  0  0
   29.3777   10.2373   53.0349 F   0  0  0  0  0  0  0  0  0  0  0  0
   28.4145   10.0648   57.1033 C   0  0  0  0  0  0  0  0  0  0  0  0
   28.8040    9.9539   55.7300 O   0  0  0  0  0  0  0  0  0  0  0  0
   22.7270    5.2132   56.5884 C   0  0  0  0  0  0  0  0  0  0  0  0
   21.4167    5.2646   56.9888 C   0  0  0  0  0  0  0  0  0  0  0  0
   20.9098    4.3525   57.9044 C   0  0  0  0  0  0  0  0  0  0  0  0
   21.6990    3.3987   58.4163 N   0  0  0  0  0  0  0  0  0  0  0  0
   22.9794    3.3106   58.0558 C   0  0  0  0  0  0  0  0  0  0  0  0
   23.8980    2.2722   58.5929 C   0  0  0  0  0  0  0  0  0  0  0  0
   23.5107    4.2229   57.1318 C   0  0  0  0  0  0  0  0  0  0  0  0
   21.6358    9.8906   51.8251 C   0  0  0  0  0  0  0  0  0  0  0  0
   20.9283    8.9106   51.1540 F   0  0  0  0  0  0  0  0  0  0  0  0
 18 19  1  0  0  0
 19 11  1  0  0  0
 11 12  2  0  0  0
 12 13  1  0  0  0
 13 14  2  0  0  0
 14 15  1  0  0  0
 15 16  2  0  0  0
 16 17  1  0  0  0
 13  1  1  0  0  0
  1  2  2  0  0  0
  2  3  1  0  0  0
  3  4  2  0  0  0
  4  5  1  0  0  0
  5  6  1  0  0  0
  6  7  1  0  0  0
  7  8  1  0  0  0
  8 27  1  0  0  0
 27 28  1  0  0  0
  8  9  1  0  0  0
  9 10  1  0  0  0
  3 20  1  0  0  0
 20 21  2  0  0  0
 21 22  1  0  0  0
 22 23  2  0  0  0
 23 24  1  0  0  0
 24 25  1  0  0  0
 24 26  2  0  0  0
 16 11  1  0  0  0
 10  1  1  0  0  0
 26 20  1  0  0  0
 10  4  1  0  0  0
M  END
> <minimizedAffinity>
36.89672

> <CNNscore>
0.4182170331

> <CNNaffinity>
5.9929089546

> <CNN_VS>
2.5063366890

> <CNNaffinity_variance>
0.5439680815

$$$$
[H]c1nc(C([H])([H])[H])nc([H])c1C([H])([H])C([H])([H])c1c([H])c([H])c2c(-c3c([H])c([H])c(F)c(C([H])([H])[H])c3[H])c([H])c(C(=O)N([H])[H])nc2c1[H]


 32 35  0  0  0  0  0  0  0  0999 V2000
   25.7879    8.3901   53.2865 C   0  0  0  0  0  0  0  0  0  0  0  0
   26.3288    8.6955   52.0240 C   0  0  0  0  0  0  0  0  0  0  0  0
   27.5669    9.2486   51.8693 C   0  0  0  0  0  0  0  0  0  0  0  0
   28.2812    9.5040   52.9678 N   0  0  0  0  0  0  0  0  0  0  0  0
   27.8344    9.2393   54.2227 C   0  0  0  0  0  0  0  0  0  0  0  0
   28.6199    9.5139   55.3196 C   0  0  0  0  0  0  0  0  0  0  0  0
   28.2156    9.2524   56.6092 C   0  0  0  0  0  0  0  0  0  0  0  0
   26.9705    8.6940   56.7646 C   0  0  0  0  0  0  0  0  0  0  0  0
   26.1623    8.4107   55.6522 C   0  0  0  0  0  0  0  0  0  0  0  0
   26.5626    8.6712   54.3737 C   0  0  0  0  0  0  0  0  0  0  0  0
   20.8483    8.8057   52.8163 C   0  0  0  0  0  0  0  0  0  0  0  0
   22.0391    7.9914   53.1970 C   0  0  0  0  0  0  0  0  0  0  0  0
   23.3018    8.5173   53.0806 C   0  0  0  0  0  0  0  0  0  0  0  0
   24.4552    7.8438   53.4061 C   0  0  0  0  0  0  0  0  0  0  0  0
   24.2511    6.5385   53.8819 C   0  0  0  0  0  0  0  0  0  0  0  0
   22.9928    5.9912   54.0066 C   0  0  0  0  0  0  0  0  0  0  0  0
   21.8664    6.7096   53.6660 C   0  0  0  0  0  0  0  0  0  0  0  0
   20.6177    6.2224   53.7689 F   0  0  0  0  0  0  0  0  0  0  0  0
   28.1469    9.5733   50.5703 C   0  0  0  0  0  0  0  0  0  0  0  0
   28.9701   10.7264   50.4637 N   0  0  0  0  0  0  0  0  0  0  0  0
   27.9352    8.8631   49.5595 O   0  0  0  0  0  0  0  0  0  0  0  0
   28.8402   11.6007   50.9906 H   0  0  0  0  0  0  0  0  0  0  0  0
   29.7763   10.6755   49.7897 H   0  0  0  0  0  0  0  0  0  0  0  0
   29.1198    9.5784   57.7264 C   0  0  0  0  0  0  0  0  0  0  0  0
   28.3641    9.8114   59.0180 C   0  0  0  0  0  0  0  0  0  0  0  0
   28.6759   11.1810   59.5037 C   0  0  0  0  0  0  0  0  0  0  0  0
   29.6159   11.3794   60.5100 C   0  0  0  0  0  0  0  0  0  0  0  0
   29.9051   12.6142   60.9565 N   0  0  0  0  0  0  0  0  0  0  0  0
   29.2939   13.7029   60.4441 C   0  0  0  0  0  0  0  0  0  0  0  0
   29.6270   15.0751   60.9524 C   0  0  0  0  0  0  0  0  0  0  0  0
   28.3897   13.5093   59.4758 N   0  0  0  0  0  0  0  0  0  0  0  0
   28.0622   12.3057   58.9928 C   0  0  0  0  0  0  0  0  0  0  0  0
 11 12  1  0  0  0
 12 13  2  0  0  0
 13 14  1  0  0  0
 14 15  2  0  0  0
 15 16  1  0  0  0
 16 17  2  0  0  0
 17 18  1  0  0  0
 14  1  1  0  0  0
  1  2  2  0  0  0
  2  3  1  0  0  0
  3  4  2  0  0  0
  4  5  1  0  0  0
  5  6  2  0  0  0
  6  7  1  0  0  0
  7 24  1  0  0  0
 24 25  1  0  0  0
 25 26  1  0  0  0
 26 27  2  0  0  0
 27 28  1  0  0  0
 28 29  2  0  0  0
 29 30  1  0  0  0
 29 31  1  0  0  0
 31 32  2  0  0  0
  7  8  2  0  0  0
  8  9  1  0  0  0
  9 10  2  0  0  0
  3 19  1  0  0  0
 19 20  1  0  0  0
 19 21  2  0  0  0
 17 12  1  0  0  0
 10  1  1  0  0  0
 10  5  1  0  0  0
 32 26  1  0  0  0
 20 22  1  0  0  0
 20 23  1  0  0  0
M  END
> <minimizedAffinity>
17.61403

> <CNNscore>
0.6602306366

> <CNNaffinity>
6.5189275742

> <CNN_VS>
4.3039956093

> <CNNaffinity_variance>
0.2578684688

$$$$
[H]c1nc(C([H])([H])[H])nc([H])c1C([H])([H])C([H])([H])c1c([H])c([H])c2c(-c3c([H])c([H])c(F)c(C([H])([H])[H])c3[H])c([H])c(C(=O)N([H])[H])nc2c1[H]


 32 35  0  0  0  0  0  0  0  0999 V2000
   27.1295    9.0698   54.8742 C   0  0  0  0  0  0  0  0  0  0  0  0
   27.8513    9.5095   53.7494 C   0  0  0  0  0  0  0  0  0  0  0  0
   27.4504    9.2490   52.4711 C   0  0  0  0  0  0  0  0  0  0  0  0
   26.3274    8.5487   52.2967 N   0  0  0  0  0  0  0  0  0  0  0  0
   25.5715    8.0881   53.3268 C   0  0  0  0  0  0  0  0  0  0  0  0
   24.4155    7.3798   53.0868 C   0  0  0  0  0  0  0  0  0  0  0  0
   23.6109    6.9034   54.0971 C   0  0  0  0  0  0  0  0  0  0  0  0
   24.0134    7.1674   55.3834 C   0  0  0  0  0  0  0  0  0  0  0  0
   25.1908    7.8886   55.6379 C   0  0  0  0  0  0  0  0  0  0  0  0
   25.9892    8.3597   54.6363 C   0  0  0  0  0  0  0  0  0  0  0  0
   28.2834   12.2223   58.5517 C   0  0  0  0  0  0  0  0  0  0  0  0
   28.1922   10.8244   58.0385 C   0  0  0  0  0  0  0  0  0  0  0  0
   27.7318   10.5833   56.7679 C   0  0  0  0  0  0  0  0  0  0  0  0
   27.6132    9.3322   56.2107 C   0  0  0  0  0  0  0  0  0  0  0  0
   28.0071    8.2808   57.0542 C   0  0  0  0  0  0  0  0  0  0  0  0
   28.4720    8.5003   58.3325 C   0  0  0  0  0  0  0  0  0  0  0  0
   28.5719    9.7763   58.8450 C   0  0  0  0  0  0  0  0  0  0  0  0
   29.0186   10.0442   60.0843 F   0  0  0  0  0  0  0  0  0  0  0  0
   28.1833    9.6951   51.2909 C   0  0  0  0  0  0  0  0  0  0  0  0
   29.1742   10.7013   51.4474 N   0  0  0  0  0  0  0  0  0  0  0  0
   27.9583    9.2134   50.1558 O   0  0  0  0  0  0  0  0  0  0  0  0
   29.1293   11.4811   52.1174 H   0  0  0  0  0  0  0  0  0  0  0  0
   30.0198   10.6382   50.8247 H   0  0  0  0  0  0  0  0  0  0  0  0
   22.3902    6.1537   53.7512 C   0  0  0  0  0  0  0  0  0  0  0  0
   21.1343    6.9418   54.0595 C   0  0  0  0  0  0  0  0  0  0  0  0
   21.2590    8.2858   53.4375 C   0  0  0  0  0  0  0  0  0  0  0  0
   21.4305    9.4189   54.2262 C   0  0  0  0  0  0  0  0  0  0  0  0
   21.5442   10.6392   53.6734 N   0  0  0  0  0  0  0  0  0  0  0  0
   21.4961   10.8067   52.3350 C   0  0  0  0  0  0  0  0  0  0  0  0
   21.6245   12.1750   51.7321 C   0  0  0  0  0  0  0  0  0  0  0  0
   21.3309    9.7147   51.5782 N   0  0  0  0  0  0  0  0  0  0  0  0
   21.2122    8.4773   52.0722 C   0  0  0  0  0  0  0  0  0  0  0  0
 11 12  1  0  0  0
 12 13  2  0  0  0
 13 14  1  0  0  0
 14 15  2  0  0  0
 15 16  1  0  0  0
 16 17  2  0  0  0
 17 18  1  0  0  0
 14  1  1  0  0  0
  1  2  2  0  0  0
  2  3  1  0  0  0
  3  4  2  0  0  0
  4  5  1  0  0  0
  5  6  2  0  0  0
  6  7  1  0  0  0
  7 24  1  0  0  0
 24 25  1  0  0  0
 25 26  1  0  0  0
 26 27  2  0  0  0
 27 28  1  0  0  0
 28 29  2  0  0  0
 29 30  1  0  0  0
 29 31  1  0  0  0
 31 32  2  0  0  0
  7  8  2  0  0  0
  8  9  1  0  0  0
  9 10  2  0  0  0
  3 19  1  0  0  0
 19 20  1  0  0  0
 19 21  2  0  0  0
 17 12  1  0  0  0
 10  1  1  0  0  0
 10  5  1  0  0  0
 32 26  1  0  0  0
 20 22  1  0  0  0
 20 23  1  0  0  0
M  END
> <minimizedAffinity>
21.14199

> <CNNscore>
0.6476331353

> <CNNaffinity>
6.4056458473

> <CNN_VS>
4.1485085487

> <CNNaffinity_variance>
0.4134767652

$$$$
[H]c1nc(C([H])([H])[H])nc([H])c1C([H])([H])C([H])([H])c1c([H])c([H])c2c(-c3c([H])c([H])c(F)c(C([H])([H])[H])c3[H])c([H])c(C(=O)N([H])[H])nc2c1[H]


 32 35  0  0  0  0  0  0  0  0999 V2000
   23.8855    8.7002   54.4114 C   0  0  0  0  0  0  0  0  0  0  0  0
   23.1904    9.9184   54.5229 C   0  0  0  0  0  0  0  0  0  0  0  0
   21.8471   10.0207   54.3042 C   0  0  0  0  0  0  0  0  0  0  0  0
   21.1799    8.9132   53.9723 N   0  0  0  0  0  0  0  0  0  0  0  0
   21.7735    7.6983   53.8444 C   0  0  0  0  0  0  0  0  0  0  0  0
   21.0324    6.5871   53.5102 C   0  0  0  0  0  0  0  0  0  0  0  0
   21.5870    5.3338   53.3809 C   0  0  0  0  0  0  0  0  0  0  0  0
   22.9383    5.2306   53.6030 C   0  0  0  0  0  0  0  0  0  0  0  0
   23.7022    6.3582   53.9439 C   0  0  0  0  0  0  0  0  0  0  0  0
   23.1527    7.6010   54.0708 C   0  0  0  0  0  0  0  0  0  0  0  0
   27.9150    9.3190   57.2703 C   0  0  0  0  0  0  0  0  0  0  0  0
   27.3159    8.9293   55.9607 C   0  0  0  0  0  0  0  0  0  0  0  0
   25.9563    8.9841   55.7791 C   0  0  0  0  0  0  0  0  0  0  0  0
   25.3159    8.6454   54.6107 C   0  0  0  0  0  0  0  0  0  0  0  0
   26.1719    8.2254   53.5798 C   0  0  0  0  0  0  0  0  0  0  0  0
   27.5389    8.1630   53.7406 C   0  0  0  0  0  0  0  0  0  0  0  0
   28.1326    8.5142   54.9343 C   0  0  0  0  0  0  0  0  0  0  0  0
   29.4600    8.4711   55.1425 F   0  0  0  0  0  0  0  0  0  0  0  0
   21.1068   11.2732   54.4143 C   0  0  0  0  0  0  0  0  0  0  0  0
   21.1725   12.1974   53.3371 N   0  0  0  0  0  0  0  0  0  0  0  0
   20.4224   11.5459   55.4283 O   0  0  0  0  0  0  0  0  0  0  0  0
   21.9947   12.3561   52.7389 H   0  0  0  0  0  0  0  0  0  0  0  0
   20.3070   12.7622   53.1404 H   0  0  0  0  0  0  0  0  0  0  0  0
   20.7203    4.1979   53.0194 C   0  0  0  0  0  0  0  0  0  0  0  0
   19.9881    3.6385   54.2213 C   0  0  0  0  0  0  0  0  0  0  0  0
   18.5342    3.6111   53.9141 C   0  0  0  0  0  0  0  0  0  0  0  0
   18.0297    2.7454   52.9489 C   0  0  0  0  0  0  0  0  0  0  0  0
   16.7162    2.7128   52.6636 N   0  0  0  0  0  0  0  0  0  0  0  0
   15.8425    3.5184   53.3034 C   0  0  0  0  0  0  0  0  0  0  0  0
   14.3791    3.4710   52.9743 C   0  0  0  0  0  0  0  0  0  0  0  0
   16.3305    4.3506   54.2317 N   0  0  0  0  0  0  0  0  0  0  0  0
   17.6258    4.4263   54.5569 C   0  0  0  0  0  0  0  0  0  0  0  0
 11 12  1  0  0  0
 12 13  2  0  0  0
 13 14  1  0  0  0
 14 15  2  0  0  0
 15 16  1  0  0  0
 16 17  2  0  0  0
 17 18  1  0  0  0
 14  1  1  0  0  0
  1  2  2  0  0  0
  2  3  1  0  0  0
  3  4  2  0  0  0
  4  5  1  0  0  0
  5  6  2  0  0  0
  6  7  1  0  0  0
  7 24  1  0  0  0
 24 25  1  0  0  0
 25 26  1  0  0  0
 26 27  2  0  0  0
 27 28  1  0  0  0
 28 29  2  0  0  0
 29 30  1  0  0  0
 29 31  1  0  0  0
 31 32  2  0  0  0
  7  8  2  0  0  0
  8  9  1  0  0  0
  9 10  2  0  0  0
  3 19  1  0  0  0
 19 20  1  0  0  0
 19 21  2  0  0  0
 17 12  1  0  0  0
 10  1  1  0  0  0
 10  5  1  0  0  0
 32 26  1  0  0  0
 20 22  1  0  0  0
 20 23  1  0  0  0
M  END
> <minimizedAffinity>
23.49049

> <CNNscore>
0.6400468349

> <CNNaffinity>
6.9137639999

> <CNN_VS>
4.4251327515

> <CNNaffinity_variance>
0.5542548299

$$$$
[H]c1nc(C([H])([H])[H])nc([H])c1C([H])([H])C([H])([H])c1c([H])c([H])c2c(-c3c([H])c([H])c(F)c(C([H])([H])[H])c3[H])c([H])c(C(=O)N([H])[H])nc2c1[H]


 32 35  0  0  0  0  0  0  0  0999 V2000
   23.8702    8.5989   54.3773 C   0  0  0  0  0  0  0  0  0  0  0  0
   23.1762    9.8224   54.4081 C   0  0  0  0  0  0  0  0  0  0  0  0
   21.8295    9.9088   54.2037 C   0  0  0  0  0  0  0  0  0  0  0  0
   21.1578    8.7798   53.9665 N   0  0  0  0  0  0  0  0  0  0  0  0
   21.7501    7.5585   53.9206 C   0  0  0  0  0  0  0  0  0  0  0  0
   21.0045    6.4257   53.6826 C   0  0  0  0  0  0  0  0  0  0  0  0
   21.5577    5.1660   53.6389 C   0  0  0  0  0  0  0  0  0  0  0  0
   22.9125    5.0790   53.8466 C   0  0  0  0  0  0  0  0  0  0  0  0
   23.6810    6.2285   54.0897 C   0  0  0  0  0  0  0  0  0  0  0  0
   23.1328    7.4776   54.1318 C   0  0  0  0  0  0  0  0  0  0  0  0
   27.9328    9.2797   57.1746 C   0  0  0  0  0  0  0  0  0  0  0  0
   27.3193    8.8724   55.8770 C   0  0  0  0  0  0  0  0  0  0  0  0
   25.9569    8.9137   55.7136 C   0  0  0  0  0  0  0  0  0  0  0  0
   25.3036    8.5584   54.5574 C   0  0  0  0  0  0  0  0  0  0  0  0
   26.1491    8.1362   53.5187 C   0  0  0  0  0  0  0  0  0  0  0  0
   27.5187    8.0871   53.6613 C   0  0  0  0  0  0  0  0  0  0  0  0
   28.1256    8.4548   54.8434 C   0  0  0  0  0  0  0  0  0  0  0  0
   29.4560    8.4252   55.0338 F   0  0  0  0  0  0  0  0  0  0  0  0
   21.0902   11.1665   54.2312 C   0  0  0  0  0  0  0  0  0  0  0  0
   21.1724   12.0269   53.1035 N   0  0  0  0  0  0  0  0  0  0  0  0
   20.3927   11.4980   55.2184 O   0  0  0  0  0  0  0  0  0  0  0  0
   22.0029   12.1498   52.5084 H   0  0  0  0  0  0  0  0  0  0  0  0
   20.3107   12.5804   52.8628 H   0  0  0  0  0  0  0  0  0  0  0  0
   20.6862    4.0066   53.3775 C   0  0  0  0  0  0  0  0  0  0  0  0
   19.2792    4.4271   53.0072 C   0  0  0  0  0  0  0  0  0  0  0  0
   18.3704    4.0603   54.1245 C   0  0  0  0  0  0  0  0  0  0  0  0
   18.8700    3.4658   55.2788 C   0  0  0  0  0  0  0  0  0  0  0  0
   18.0564    3.1301   56.2952 N   0  0  0  0  0  0  0  0  0  0  0  0
   16.7277    3.3582   56.2306 C   0  0  0  0  0  0  0  0  0  0  0  0
   15.8318    2.9782   57.3730 C   0  0  0  0  0  0  0  0  0  0  0  0
   16.2493    3.9304   55.1187 N   0  0  0  0  0  0  0  0  0  0  0  0
   17.0102    4.2852   54.0773 C   0  0  0  0  0  0  0  0  0  0  0  0
 11 12  1  0  0  0
 12 13  2  0  0  0
 13 14  1  0  0  0
 14 15  2  0  0  0
 15 16  1  0  0  0
 16 17  2  0  0  0
 17 18  1  0  0  0
 14  1  1  0  0  0
  1  2  2  0  0  0
  2  3  1  0  0  0
  3  4  2  0  0  0
  4  5  1  0  0  0
  5  6  2  0  0  0
  6  7  1  0  0  0
  7 24  1  0  0  0
 24 25  1  0  0  0
 25 26  1  0  0  0
 26 27  2  0  0  0
 27 28  1  0  0  0
 28 29  2  0  0  0
 29 30  1  0  0  0
 29 31  1  0  0  0
 31 32  2  0  0  0
  7  8  2  0  0  0
  8  9  1  0  0  0
  9 10  2  0  0  0
  3 19  1  0  0  0
 19 20  1  0  0  0
 19 21  2  0  0  0
 17 12  1  0  0  0
 10  1  1  0  0  0
 10  5  1  0  0  0
 32 26  1  0  0  0
 20 22  1  0  0  0
 20 23  1  0  0  0
M  END
> <minimizedAffinity>
23.53960

> <CNNscore>
0.6331834197

> <CNNaffinity>
6.8383588791

> <CNN_VS>
4.3299355507

> <CNNaffinity_variance>
0.5948367119

$$$$
[H]c1nc(C([H])([H])[H])nc([H])c1C([H])([H])C([H])([H])c1c([H])c([H])c2c(-c3c([H])c([H])c(F)c(C([H])([H])[H])c3[H])c([H])c(C(=O)N([H])[H])nc2c1[H]


 32 35  0  0  0  0  0  0  0  0999 V2000
   23.1965    8.8101   54.2695 C   0  0  0  0  0  0  0  0  0  0  0  0
   22.7835    7.5348   53.8421 C   0  0  0  0  0  0  0  0  0  0  0  0
   23.5615    6.4230   53.9886 C   0  0  0  0  0  0  0  0  0  0  0  0
   24.7586    6.5666   54.5616 N   0  0  0  0  0  0  0  0  0  0  0  0
   25.2328    7.7604   55.0027 C   0  0  0  0  0  0  0  0  0  0  0  0
   26.4719    7.8469   55.5966 C   0  0  0  0  0  0  0  0  0  0  0  0
   26.9897    9.0314   56.0697 C   0  0  0  0  0  0  0  0  0  0  0  0
   26.2059   10.1497   55.9241 C   0  0  0  0  0  0  0  0  0  0  0  0
   24.9412   10.0713   55.3195 C   0  0  0  0  0  0  0  0  0  0  0  0
   24.4284    8.8972   54.8493 C   0  0  0  0  0  0  0  0  0  0  0  0
   21.4577   12.4567   51.3588 C   0  0  0  0  0  0  0  0  0  0  0  0
   21.4760   11.7660   52.6811 C   0  0  0  0  0  0  0  0  0  0  0  0
   22.2754   10.6671   52.8758 C   0  0  0  0  0  0  0  0  0  0  0  0
   22.3578    9.9677   54.0564 C   0  0  0  0  0  0  0  0  0  0  0  0
   21.5436   10.4673   55.0856 C   0  0  0  0  0  0  0  0  0  0  0  0
   20.7339   11.5685   54.9119 C   0  0  0  0  0  0  0  0  0  0  0  0
   20.6875   12.2355   53.7061 C   0  0  0  0  0  0  0  0  0  0  0  0
   19.9155   13.3136   53.4851 F   0  0  0  0  0  0  0  0  0  0  0  0
   23.1531    5.0917   53.5528 C   0  0  0  0  0  0  0  0  0  0  0  0
   21.7689    4.8355   53.3600 N   0  0  0  0  0  0  0  0  0  0  0  0
   23.9898    4.1812   53.3477 O   0  0  0  0  0  0  0  0  0  0  0  0
   21.0053    5.2456   53.9146 H   0  0  0  0  0  0  0  0  0  0  0  0
   21.5106    4.1718   52.5856 H   0  0  0  0  0  0  0  0  0  0  0  0
   28.3256    9.0345   56.6919 C   0  0  0  0  0  0  0  0  0  0  0  0
   28.2564    8.7890   58.1848 C   0  0  0  0  0  0  0  0  0  0  0  0
   28.4436   10.0874   58.8832 C   0  0  0  0  0  0  0  0  0  0  0  0
   28.9641   10.1302   60.1727 C   0  0  0  0  0  0  0  0  0  0  0  0
   29.1373   11.2996   60.8132 N   0  0  0  0  0  0  0  0  0  0  0  0
   28.8123   12.4713   60.2276 C   0  0  0  0  0  0  0  0  0  0  0  0
   29.0113   13.7689   60.9549 C   0  0  0  0  0  0  0  0  0  0  0  0
   28.3115   12.4274   58.9867 N   0  0  0  0  0  0  0  0  0  0  0  0
   28.1175   11.2950   58.3017 C   0  0  0  0  0  0  0  0  0  0  0  0
 11 12  1  0  0  0
 12 13  2  0  0  0
 13 14  1  0  0  0
 14 15  2  0  0  0
 15 16  1  0  0  0
 16 17  2  0  0  0
 17 18  1  0  0  0
 14  1  1  0  0  0
  1  2  2  0  0  0
  2  3  1  0  0  0
  3  4  2  0  0  0
  4  5  1  0  0  0
  5  6  2  0  0  0
  6  7  1  0  0  0
  7 24  1  0  0  0
 24 25  1  0  0  0
 25 26  1  0  0  0
 26 27  2  0  0  0
 27 28  1  0  0  0
 28 29  2  0  0  0
 29 30  1  0  0  0
 29 31  1  0  0  0
 31 32  2  0  0  0
  7  8  2  0  0  0
  8  9  1  0  0  0
  9 10  2  0  0  0
  3 19  1  0  0  0
 19 20  1  0  0  0
 19 21  2  0  0  0
 17 12  1  0  0  0
 10  1  1  0  0  0
 10  5  1  0  0  0
 32 26  1  0  0  0
 20 22  1  0  0  0
 20 23  1  0  0  0
M  END
> <minimizedAffinity>
23.46824

> <CNNscore>
0.6041748524

> <CNNaffinity>
6.6637115479

> <CNN_VS>
4.0260467529

> <CNNaffinity_variance>
0.5615466833

$$$$
[H]c1nc(C([H])([H])[H])nc([H])c1C([H])([H])C([H])([H])c1c([H])c([H])c2c(-c3c([H])c([H])c(F)c(C([H])([H])[H])c3[H])c([H])c(C(=O)N([H])[H])nc2c1[H]


 32 35  0  0  0  0  0  0  0  0999 V2000
   21.3804    7.4772   53.1475 C   0  0  0  0  0  0  0  0  0  0  0  0
   20.9390    8.6332   52.4779 C   0  0  0  0  0  0  0  0  0  0  0  0
   21.7247    9.7385   52.3239 C   0  0  0  0  0  0  0  0  0  0  0  0
   22.9580    9.7068   52.8339 N   0  0  0  0  0  0  0  0  0  0  0  0
   23.4620    8.6318   53.4932 C   0  0  0  0  0  0  0  0  0  0  0  0
   24.7464    8.6516   53.9888 C   0  0  0  0  0  0  0  0  0  0  0  0
   25.3047    7.5828   54.6529 C   0  0  0  0  0  0  0  0  0  0  0  0
   24.5146    6.4699   54.8060 C   0  0  0  0  0  0  0  0  0  0  0  0
   23.2038    6.4406   54.3042 C   0  0  0  0  0  0  0  0  0  0  0  0
   22.6497    7.5007   53.6470 C   0  0  0  0  0  0  0  0  0  0  0  0
   16.8651    5.5570   53.9952 C   0  0  0  0  0  0  0  0  0  0  0  0
   18.3200    5.3536   53.7344 C   0  0  0  0  0  0  0  0  0  0  0  0
   19.1499    6.4343   53.5677 C   0  0  0  0  0  0  0  0  0  0  0  0
   20.4999    6.3448   53.3243 C   0  0  0  0  0  0  0  0  0  0  0  0
   20.9919    5.0314   53.2549 C   0  0  0  0  0  0  0  0  0  0  0  0
   20.1767    3.9327   53.4191 C   0  0  0  0  0  0  0  0  0  0  0  0
   18.8272    4.0768   53.6617 C   0  0  0  0  0  0  0  0  0  0  0  0
   17.9896    3.0387   53.8292 F   0  0  0  0  0  0  0  0  0  0  0  0
   21.2873   10.9473   51.6335 C   0  0  0  0  0  0  0  0  0  0  0  0
   21.6170   12.2086   52.1985 N   0  0  0  0  0  0  0  0  0  0  0  0
   20.6346   10.8947   50.5648 O   0  0  0  0  0  0  0  0  0  0  0  0
   21.6770   12.4118   53.2055 H   0  0  0  0  0  0  0  0  0  0  0  0
   21.8147   12.9942   51.5273 H   0  0  0  0  0  0  0  0  0  0  0  0
   26.6874    7.6889   55.1517 C   0  0  0  0  0  0  0  0  0  0  0  0
   27.1903    9.1173   55.1292 C   0  0  0  0  0  0  0  0  0  0  0  0
   27.7014    9.4563   56.4830 C   0  0  0  0  0  0  0  0  0  0  0  0
   28.0878   10.7572   56.7897 C   0  0  0  0  0  0  0  0  0  0  0  0
   28.5515   11.0742   58.0112 N   0  0  0  0  0  0  0  0  0  0  0  0
   28.6580   10.1419   58.9813 C   0  0  0  0  0  0  0  0  0  0  0  0
   29.1773   10.5105   60.3402 C   0  0  0  0  0  0  0  0  0  0  0  0
   28.2856    8.8908   58.6836 N   0  0  0  0  0  0  0  0  0  0  0  0
   27.8176    8.5179   57.4873 C   0  0  0  0  0  0  0  0  0  0  0  0
 11 12  1  0  0  0
 12 13  2  0  0  0
 13 14  1  0  0  0
 14 15  2  0  0  0
 15 16  1  0  0  0
 16 17  2  0  0  0
 17 18  1  0  0  0
 14  1  1  0  0  0
  1  2  2  0  0  0
  2  3  1  0  0  0
  3  4  2  0  0  0
  4  5  1  0  0  0
  5  6  2  0  0  0
  6  7  1  0  0  0
  7 24  1  0  0  0
 24 25  1  0  0  0
 25 26  1  0  0  0
 26 27  2  0  0  0
 27 28  1  0  0  0
 28 29  2  0  0  0
 29 30  1  0  0  0
 29 31  1  0  0  0
 31 32  2  0  0  0
  7  8  2  0  0  0
  8  9  1  0  0  0
  9 10  2  0  0  0
  3 19  1  0  0  0
 19 20  1  0  0  0
 19 21  2  0  0  0
 17 12  1  0  0  0
 10  1  1  0  0  0
 10  5  1  0  0  0
 32 26  1  0  0  0
 20 22  1  0  0  0
 20 23  1  0  0  0
M  END
> <minimizedAffinity>
21.24551

> <CNNscore>
0.5964322090

> <CNNaffinity>
6.5379590988

> <CNN_VS>
3.8994493484

> <CNNaffinity_variance>
0.3211607933

$$$$
[H]c1nc(C([H])([H])[H])nc([H])c1C([H])([H])C([H])([H])c1c([H])c([H])c2c(-c3c([H])c([H])c(F)c(C([H])([H])[H])c3[H])c([H])c(C(=O)N([H])[H])nc2c1[H]


 32 35  0  0  0  0  0  0  0  0999 V2000
   21.2488    7.5458   53.1062 C   0  0  0  0  0  0  0  0  0  0  0  0
   20.8605    8.7184   52.4324 C   0  0  0  0  0  0  0  0  0  0  0  0
   21.6993    9.7820   52.2655 C   0  0  0  0  0  0  0  0  0  0  0  0
   22.9334    9.6918   52.7663 N   0  0  0  0  0  0  0  0  0  0  0  0
   23.3882    8.5969   53.4288 C   0  0  0  0  0  0  0  0  0  0  0  0
   24.6758    8.5555   53.9147 C   0  0  0  0  0  0  0  0  0  0  0  0
   25.1852    7.4641   54.5814 C   0  0  0  0  0  0  0  0  0  0  0  0
   24.3417    6.3931   54.7475 C   0  0  0  0  0  0  0  0  0  0  0  0
   23.0271    6.4263   54.2558 C   0  0  0  0  0  0  0  0  0  0  0  0
   22.5216    7.5088   53.5960 C   0  0  0  0  0  0  0  0  0  0  0  0
   20.1534    2.6886   53.1145 C   0  0  0  0  0  0  0  0  0  0  0  0
   19.7245    4.1031   53.3168 C   0  0  0  0  0  0  0  0  0  0  0  0
   20.6179    5.1291   53.1338 C   0  0  0  0  0  0  0  0  0  0  0  0
   20.3143    6.4600   53.2968 C   0  0  0  0  0  0  0  0  0  0  0  0
   18.9854    6.7104   53.6755 C   0  0  0  0  0  0  0  0  0  0  0  0
   18.0725    5.6959   53.8645 C   0  0  0  0  0  0  0  0  0  0  0  0
   18.4280    4.3756   53.6880 C   0  0  0  0  0  0  0  0  0  0  0  0
   17.5763    3.3497   53.8595 F   0  0  0  0  0  0  0  0  0  0  0  0
   21.3175   11.0070   51.5706 C   0  0  0  0  0  0  0  0  0  0  0  0
   21.6414   12.2550   52.1675 N   0  0  0  0  0  0  0  0  0  0  0  0
   20.7167   10.9794   50.4709 O   0  0  0  0  0  0  0  0  0  0  0  0
   21.6558   12.4447   53.1788 H   0  0  0  0  0  0  0  0  0  0  0  0
   21.8854   13.0451   51.5171 H   0  0  0  0  0  0  0  0  0  0  0  0
   26.5753    7.5039   55.0691 C   0  0  0  0  0  0  0  0  0  0  0  0
   27.1910    8.8790   54.9151 C   0  0  0  0  0  0  0  0  0  0  0  0
   27.6698    9.3308   56.2476 C   0  0  0  0  0  0  0  0  0  0  0  0
   27.9389   10.6747   56.4860 C   0  0  0  0  0  0  0  0  0  0  0  0
   28.3725   11.0937   57.6878 N   0  0  0  0  0  0  0  0  0  0  0  0
   28.5613   10.2253   58.7036 C   0  0  0  0  0  0  0  0  0  0  0  0
   29.0456   10.7075   60.0396 C   0  0  0  0  0  0  0  0  0  0  0  0
   28.3016    8.9325   58.4716 N   0  0  0  0  0  0  0  0  0  0  0  0
   27.8688    8.4589   57.2979 C   0  0  0  0  0  0  0  0  0  0  0  0
 11 12  1  0  0  0
 12 13  2  0  0  0
 13 14  1  0  0  0
 14 15  2  0  0  0
 15 16  1  0  0  0
 16 17  2  0  0  0
 17 18  1  0  0  0
 14  1  1  0  0  0
  1  2  2  0  0  0
  2  3  1  0  0  0
  3  4  2  0  0  0
  4  5  1  0  0  0
  5  6  2  0  0  0
  6  7  1  0  0  0
  7 24  1  0  0  0
 24 25  1  0  0  0
 25 26  1  0  0  0
 26 27  2  0  0  0
 27 28  1  0  0  0
 28 29  2  0  0  0
 29 30  1  0  0  0
 29 31  1  0  0  0
 31 32  2  0  0  0
  7  8  2  0  0  0
  8  9  1  0  0  0
  9 10  2  0  0  0
  3 19  1  0  0  0
 19 20  1  0  0  0
 19 21  2  0  0  0
 17 12  1  0  0  0
 10  1  1  0  0  0
 10  5  1  0  0  0
 32 26  1  0  0  0
 20 22  1  0  0  0
 20 23  1  0  0  0
M  END
> <minimizedAffinity>
20.83857

> <CNNscore>
0.5897713900

> <CNNaffinity>
6.6279120445

> <CNN_VS>
3.9089529514

> <CNNaffinity_variance>
0.2806452513

$$$$
[H]c1nc(C([H])([H])[H])nc([H])c1C([H])([H])C([H])([H])c1c([H])c([H])c2c(-c3c([H])c([H])c(F)c(C([H])([H])[H])c3[H])c([H])c(C(=O)N([H])[H])nc2c1[H]


 32 35  0  0  0  0  0  0  0  0999 V2000
   21.8633    7.5508   53.9691 C   0  0  0  0  0  0  0  0  0  0  0  0
   21.1528    8.7651   53.9782 C   0  0  0  0  0  0  0  0  0  0  0  0
   21.7491    9.9635   54.2448 C   0  0  0  0  0  0  0  0  0  0  0  0
   23.0584    9.9680   54.5052 N   0  0  0  0  0  0  0  0  0  0  0  0
   23.8177    8.8420   54.5158 C   0  0  0  0  0  0  0  0  0  0  0  0
   25.1672    8.9084   54.7804 C   0  0  0  0  0  0  0  0  0  0  0  0
   25.9795    7.7970   54.7904 C   0  0  0  0  0  0  0  0  0  0  0  0
   25.3797    6.5915   54.5201 C   0  0  0  0  0  0  0  0  0  0  0  0
   24.0043    6.5139   54.2494 C   0  0  0  0  0  0  0  0  0  0  0  0
   23.1987    7.6156   54.2408 C   0  0  0  0  0  0  0  0  0  0  0  0
   17.7144    4.8024   53.8081 C   0  0  0  0  0  0  0  0  0  0  0  0
   19.1913    4.9119   53.6271 C   0  0  0  0  0  0  0  0  0  0  0  0
   19.8299    6.1040   53.8629 C   0  0  0  0  0  0  0  0  0  0  0  0
   21.1835    6.2994   53.7230 C   0  0  0  0  0  0  0  0  0  0  0  0
   21.8949    5.1616   53.3092 C   0  0  0  0  0  0  0  0  0  0  0  0
   21.2740    3.9556   53.0671 C   0  0  0  0  0  0  0  0  0  0  0  0
   19.9116    3.8118   53.2224 C   0  0  0  0  0  0  0  0  0  0  0  0
   19.2581    2.6584   52.9994 F   0  0  0  0  0  0  0  0  0  0  0  0
   21.0316   11.2340   54.2596 C   0  0  0  0  0  0  0  0  0  0  0  0
   21.1459   12.0911   53.1322 N   0  0  0  0  0  0  0  0  0  0  0  0
   20.3253   11.5792   55.2358 O   0  0  0  0  0  0  0  0  0  0  0  0
   21.9872   12.1984   52.5495 H   0  0  0  0  0  0  0  0  0  0  0  0
   20.2977   12.6592   52.8778 H   0  0  0  0  0  0  0  0  0  0  0  0
   27.4147    7.9579   55.0840 C   0  0  0  0  0  0  0  0  0  0  0  0
   27.7925    9.4104   55.2872 C   0  0  0  0  0  0  0  0  0  0  0  0
   28.0991    9.6187   56.7264 C   0  0  0  0  0  0  0  0  0  0  0  0
   28.3807   10.8907   57.2144 C   0  0  0  0  0  0  0  0  0  0  0  0
   28.6594   11.0898   58.5146 N   0  0  0  0  0  0  0  0  0  0  0  0
   28.6754   10.0630   59.3905 C   0  0  0  0  0  0  0  0  0  0  0  0
   28.9881   10.3004   60.8389 C   0  0  0  0  0  0  0  0  0  0  0  0
   28.4041    8.8399   58.9183 N   0  0  0  0  0  0  0  0  0  0  0  0
   28.1204    8.5825   57.6367 C   0  0  0  0  0  0  0  0  0  0  0  0
 11 12  1  0  0  0
 12 13  2  0  0  0
 13 14  1  0  0  0
 14 15  2  0  0  0
 15 16  1  0  0  0
 16 17  2  0  0  0
 17 18  1  0  0  0
 14  1  1  0  0  0
  1  2  2  0  0  0
  2  3  1  0  0  0
  3  4  2  0  0  0
  4  5  1  0  0  0
  5  6  2  0  0  0
  6  7  1  0  0  0
  7 24  1  0  0  0
 24 25  1  0  0  0
 25 26  1  0  0  0
 26 27  2  0  0  0
 27 28  1  0  0  0
 28 29  2  0  0  0
 29 30  1  0  0  0
 29 31  1  0  0  0
 31 32  2  0  0  0
  7  8  2  0  0  0
  8  9  1  0  0  0
  9 10  2  0  0  0
  3 19  1  0  0  0
 19 20  1  0  0  0
 19 21  2  0  0  0
 17 12  1  0  0  0
 10  1  1  0  0  0
 10  5  1  0  0  0
 32 26  1  0  0  0
 20 22  1  0  0  0
 20 23  1  0  0  0
M  END
> <minimizedAffinity>
23.70211

> <CNNscore>
0.5540133715

> <CNNaffinity>
6.4240884781

> <CNN_VS>
3.5590310097

> <CNNaffinity_variance>
0.2671293616

$$$$
[H]c1nc(C([H])([H])[H])nc([H])c1C([H])([H])C([H])([H])c1c([H])c([H])c2c(-c3c([H])c([H])c(F)c(C([H])([H])[H])c3[H])c([H])c(C(=O)N([H])[H])nc2c1[H]


 32 35  0  0  0  0  0  0  0  0999 V2000
   27.1539    8.8388   53.1640 C   0  0  0  0  0  0  0  0  0  0  0  0
   27.8948    9.3278   54.2556 C   0  0  0  0  0  0  0  0  0  0  0  0
   27.4480    9.2461   55.5427 C   0  0  0  0  0  0  0  0  0  0  0  0
   26.2599    8.6771   55.7589 N   0  0  0  0  0  0  0  0  0  0  0  0
   25.4823    8.1792   54.7629 C   0  0  0  0  0  0  0  0  0  0  0  0
   24.2694    7.5927   55.0465 C   0  0  0  0  0  0  0  0  0  0  0  0
   23.4525    7.0636   54.0729 C   0  0  0  0  0  0  0  0  0  0  0  0
   23.9031    7.1441   52.7781 C   0  0  0  0  0  0  0  0  0  0  0  0
   25.1384    7.7406   52.4793 C   0  0  0  0  0  0  0  0  0  0  0  0
   25.9477    8.2663   53.4443 C   0  0  0  0  0  0  0  0  0  0  0  0
   28.1921   11.6405   49.1809 C   0  0  0  0  0  0  0  0  0  0  0  0
   28.1722   10.3029   49.8414 C   0  0  0  0  0  0  0  0  0  0  0  0
   27.7028   10.1729   51.1249 C   0  0  0  0  0  0  0  0  0  0  0  0
   27.6464    8.9842   51.8131 C   0  0  0  0  0  0  0  0  0  0  0  0
   28.1159    7.8735   51.0934 C   0  0  0  0  0  0  0  0  0  0  0  0
   28.5911    7.9815   49.8046 C   0  0  0  0  0  0  0  0  0  0  0  0
   28.6266    9.1987   49.1581 C   0  0  0  0  0  0  0  0  0  0  0  0
   29.0801    9.3577   47.9026 F   0  0  0  0  0  0  0  0  0  0  0  0
   28.1995    9.7465   56.6889 C   0  0  0  0  0  0  0  0  0  0  0  0
   28.1925    8.9865   57.8893 N   0  0  0  0  0  0  0  0  0  0  0  0
   28.8431   10.8207   56.6353 O   0  0  0  0  0  0  0  0  0  0  0  0
   27.3991    8.4310   58.2369 H   0  0  0  0  0  0  0  0  0  0  0  0
   29.0731    8.9967   58.4648 H   0  0  0  0  0  0  0  0  0  0  0  0
   22.1691    6.4540   54.4643 C   0  0  0  0  0  0  0  0  0  0  0  0
   21.1707    7.4895   54.9380 C   0  0  0  0  0  0  0  0  0  0  0  0
   21.2889    8.6883   54.0675 C   0  0  0  0  0  0  0  0  0  0  0  0
   21.1650    8.5765   52.6863 C   0  0  0  0  0  0  0  0  0  0  0  0
   21.2704    9.6547   51.8900 N   0  0  0  0  0  0  0  0  0  0  0  0
   21.4999   10.8818   52.4029 C   0  0  0  0  0  0  0  0  0  0  0  0
   21.6152   12.0762   51.5017 C   0  0  0  0  0  0  0  0  0  0  0  0
   21.6189   10.9867   53.7324 N   0  0  0  0  0  0  0  0  0  0  0  0
   21.5233    9.9503   54.5726 C   0  0  0  0  0  0  0  0  0  0  0  0
 11 12  1  0  0  0
 12 13  2  0  0  0
 13 14  1  0  0  0
 14 15  2  0  0  0
 15 16  1  0  0  0
 16 17  2  0  0  0
 17 18  1  0  0  0
 14  1  1  0  0  0
  1  2  2  0  0  0
  2  3  1  0  0  0
  3  4  2  0  0  0
  4  5  1  0  0  0
  5  6  2  0  0  0
  6  7  1  0  0  0
  7 24  1  0  0  0
 24 25  1  0  0  0
 25 26  1  0  0  0
 26 27  2  0  0  0
 27 28  1  0  0  0
 28 29  2  0  0  0
 29 30  1  0  0  0
 29 31  1  0  0  0
 31 32  2  0  0  0
  7  8  2  0  0  0
  8  9  1  0  0  0
  9 10  2  0  0  0
  3 19  1  0  0  0
 19 20  1  0  0  0
 19 21  2  0  0  0
 17 12  1  0  0  0
 10  1  1  0  0  0
 10  5  1  0  0  0
 32 26  1  0  0  0
 20 22  1  0  0  0
 20 23  1  0  0  0
M  END
> <minimizedAffinity>
25.14318

> <CNNscore>
0.5439543128

> <CNNaffinity>
6.7205176353

> <CNN_VS>
3.6556546688

> <CNNaffinity_variance>
0.3785625100

$$$$
[H]c1c([H])c(C2=C(c3c([H])c(C([H])([H])[H])c4nnc(C([H])([H])[H])n4c3[H])C(=O)N([H])C2=O)c(C2([H])C([H])([H])C2([H])[H])c([H])c1F


 29 33  0  0  0  0  0  0  0  0999 V2000
   23.1945    7.2838   53.7907 C   0  0  0  0  0  0  0  0  0  0  0  0
   22.0817    7.8489   53.4060 C   0  0  0  0  0  0  0  0  0  0  0  0
   21.0126    6.8095   53.4295 C   0  0  0  0  0  0  0  0  0  0  0  0
   19.8079    6.9902   53.1210 O   0  0  0  0  0  0  0  0  0  0  0  0
   21.5653    5.5769   53.8559 N   0  0  0  0  0  0  0  0  0  0  0  0
   22.9357    5.8445   54.0908 C   0  0  0  0  0  0  0  0  0  0  0  0
   23.7655    4.9984   54.4835 O   0  0  0  0  0  0  0  0  0  0  0  0
   21.0527    4.6772   53.9682 H   0  0  0  0  0  0  0  0  0  0  0  0
   26.8509    8.9586   57.7051 C   0  0  0  0  0  0  0  0  0  0  0  0
   27.1617    9.0170   56.2570 C   0  0  0  0  0  0  0  0  0  0  0  0
   28.3490    9.4708   55.7679 N   0  0  0  0  0  0  0  0  0  0  0  0
   28.3044    9.3913   54.4613 N   0  0  0  0  0  0  0  0  0  0  0  0
   27.0935    8.8897   54.1317 C   0  0  0  0  0  0  0  0  0  0  0  0
   26.5795    8.6217   52.8800 C   0  0  0  0  0  0  0  0  0  0  0  0
   27.4024    8.8975   51.6499 C   0  0  0  0  0  0  0  0  0  0  0  0
   25.3233    8.1120   52.8204 C   0  0  0  0  0  0  0  0  0  0  0  0
   24.5344    7.8492   53.9499 C   0  0  0  0  0  0  0  0  0  0  0  0
   25.1001    8.1356   55.1652 C   0  0  0  0  0  0  0  0  0  0  0  0
   26.3658    8.6496   55.2369 N   0  0  0  0  0  0  0  0  0  0  0  0
   21.8955    9.2200   52.9701 C   0  0  0  0  0  0  0  0  0  0  0  0
   21.7211    9.4607   51.5965 C   0  0  0  0  0  0  0  0  0  0  0  0
   21.5724   10.7210   51.0850 C   0  0  0  0  0  0  0  0  0  0  0  0
   21.5908   11.7944   51.9189 C   0  0  0  0  0  0  0  0  0  0  0  0
   21.4442   13.0717   51.4468 F   0  0  0  0  0  0  0  0  0  0  0  0
   21.7621   11.5689   53.2620 C   0  0  0  0  0  0  0  0  0  0  0  0
   21.9181   10.2993   53.8201 C   0  0  0  0  0  0  0  0  0  0  0  0
   22.1641   10.2025   55.2852 C   0  0  0  0  0  0  0  0  0  0  0  0
   21.7150    9.0464   56.0502 C   0  0  0  0  0  0  0  0  0  0  0  0
   20.9496   10.3619   56.1454 C   0  0  0  0  0  0  0  0  0  0  0  0
  9 10  1  0  0  0
 10 11  2  0  0  0
 11 12  1  0  0  0
 12 13  2  0  0  0
 13 14  1  0  0  0
 14 15  1  0  0  0
 14 16  2  0  0  0
 16 17  1  0  0  0
 17 18  2  0  0  0
 18 19  1  0  0  0
 17  1  1  0  0  0
  1  2  2  0  0  0
  2  3  1  0  0  0
  3  4  2  0  0  0
  3  5  1  0  0  0
  5  6  1  0  0  0
  6  7  2  0  0  0
  2 20  1  0  0  0
 20 21  2  0  0  0
 21 22  1  0  0  0
 22 23  2  0  0  0
 23 24  1  0  0  0
 23 25  1  0  0  0
 25 26  2  0  0  0
 26 27  1  0  0  0
 27 28  1  0  0  0
 28 29  1  0  0  0
 19 10  1  0  0  0
  6  1  1  0  0  0
 26 20  1  0  0  0
 29 27  1  0  0  0
 19 13  1  0  0  0
  5  8  1  0  0  0
M  END
> <minimizedAffinity>
10.14329

> <CNNscore>
0.6284464002

> <CNNaffinity>
6.9003729820

> <CNN_VS>
4.3365144730

> <CNNaffinity_variance>
0.3503718376

$$$$
[H]c1c([H])c(C2=C(c3c([H])c(C([H])([H])[H])c4nnc(C([H])([H])[H])n4c3[H])C(=O)N([H])C2=O)c(C2([H])C([H])([H])C2([H])[H])c([H])c1F


 29 33  0  0  0  0  0  0  0  0999 V2000
   22.1564    7.7528   53.3030 C   0  0  0  0  0  0  0  0  0  0  0  0
   23.2970    7.1633   53.5425 C   0  0  0  0  0  0  0  0  0  0  0  0
   23.0683    5.6907   53.4839 C   0  0  0  0  0  0  0  0  0  0  0  0
   23.9421    4.8057   53.6636 O   0  0  0  0  0  0  0  0  0  0  0  0
   21.7052    5.4384   53.1923 N   0  0  0  0  0  0  0  0  0  0  0  0
   21.1071    6.7162   53.0727 C   0  0  0  0  0  0  0  0  0  0  0  0
   19.9012    6.9126   52.8163 O   0  0  0  0  0  0  0  0  0  0  0  0
   21.2596    4.5027   53.0897 H   0  0  0  0  0  0  0  0  0  0  0  0
   22.2442   12.1552   49.8233 C   0  0  0  0  0  0  0  0  0  0  0  0
   21.7318   12.2548   51.2106 C   0  0  0  0  0  0  0  0  0  0  0  0
   21.2412   13.4086   51.7423 N   0  0  0  0  0  0  0  0  0  0  0  0
   20.8729   13.1608   52.9746 N   0  0  0  0  0  0  0  0  0  0  0  0
   21.1317   11.8564   53.2154 C   0  0  0  0  0  0  0  0  0  0  0  0
   20.9150   11.1296   54.3676 C   0  0  0  0  0  0  0  0  0  0  0  0
   20.3174   11.7938   55.5793 C   0  0  0  0  0  0  0  0  0  0  0  0
   21.2639    9.8183   54.3498 C   0  0  0  0  0  0  0  0  0  0  0  0
   21.8253    9.1762   53.2363 C   0  0  0  0  0  0  0  0  0  0  0  0
   22.0157    9.9506   52.1214 C   0  0  0  0  0  0  0  0  0  0  0  0
   21.6676   11.2735   52.1283 N   0  0  0  0  0  0  0  0  0  0  0  0
   24.5621    7.7934   53.8694 C   0  0  0  0  0  0  0  0  0  0  0  0
   25.5910    7.7491   52.9130 C   0  0  0  0  0  0  0  0  0  0  0  0
   26.8293    8.2844   53.1416 C   0  0  0  0  0  0  0  0  0  0  0  0
   27.0955    8.8861   54.3311 C   0  0  0  0  0  0  0  0  0  0  0  0
   28.3215    9.4350   54.5984 F   0  0  0  0  0  0  0  0  0  0  0  0
   26.0970    8.9327   55.2717 C   0  0  0  0  0  0  0  0  0  0  0  0
   24.8231    8.3973   55.0756 C   0  0  0  0  0  0  0  0  0  0  0  0
   23.8557    8.4564   56.2057 C   0  0  0  0  0  0  0  0  0  0  0  0
   22.4200    8.3647   55.9745 C   0  0  0  0  0  0  0  0  0  0  0  0
   23.0520    9.7164   56.2889 C   0  0  0  0  0  0  0  0  0  0  0  0
  9 10  1  0  0  0
 10 11  2  0  0  0
 11 12  1  0  0  0
 12 13  2  0  0  0
 13 14  1  0  0  0
 14 15  1  0  0  0
 14 16  2  0  0  0
 16 17  1  0  0  0
 17 18  2  0  0  0
 18 19  1  0  0  0
 17  1  1  0  0  0
  1  2  2  0  0  0
  2  3  1  0  0  0
  3  4  2  0  0  0
  3  5  1  0  0  0
  5  6  1  0  0  0
  6  7  2  0  0  0
  2 20  1  0  0  0
 20 21  2  0  0  0
 21 22  1  0  0  0
 22 23  2  0  0  0
 23 24  1  0  0  0
 23 25  1  0  0  0
 25 26  2  0  0  0
 26 27  1  0  0  0
 27 28  1  0  0  0
 28 29  1  0  0  0
 19 10  1  0  0  0
  6  1  1  0  0  0
 26 20  1  0  0  0
 29 27  1  0  0  0
 19 13  1  0  0  0
  5  8  1  0  0  0
M  END
> <minimizedAffinity>
26.66112

> <CNNscore>
0.5873518586

> <CNNaffinity>
6.5757689476

> <CNN_VS>
3.8622901440

> <CNNaffinity_variance>
0.5559895635

$$$$
[H]c1c([H])c(C2=C(c3c([H])c(C([H])([H])[H])c4nnc(C([H])([H])[H])n4c3[H])C(=O)N([H])C2=O)c(C2([H])C([H])([H])C2([H])[H])c([H])c1F


 29 33  0  0  0  0  0  0  0  0999 V2000
   22.9551    7.2555   53.8209 C   0  0  0  0  0  0  0  0  0  0  0  0
   21.9237    7.8109   53.2433 C   0  0  0  0  0  0  0  0  0  0  0  0
   20.9299    6.7363   52.9574 C   0  0  0  0  0  0  0  0  0  0  0  0
   19.8125    6.8994   52.4062 O   0  0  0  0  0  0  0  0  0  0  0  0
   21.4406    5.4932   53.4050 N   0  0  0  0  0  0  0  0  0  0  0  0
   22.7124    5.7884   53.9530 C   0  0  0  0  0  0  0  0  0  0  0  0
   23.4806    4.9427   54.4562 O   0  0  0  0  0  0  0  0  0  0  0  0
   20.9631    4.5701   53.3374 H   0  0  0  0  0  0  0  0  0  0  0  0
   28.5340    6.8526   53.3629 C   0  0  0  0  0  0  0  0  0  0  0  0
   27.8834    7.8655   54.2276 C   0  0  0  0  0  0  0  0  0  0  0  0
   28.5807    8.7727   54.9663 N   0  0  0  0  0  0  0  0  0  0  0  0
   27.7175    9.5176   55.6109 N   0  0  0  0  0  0  0  0  0  0  0  0
   26.4831    9.0793   55.2782 C   0  0  0  0  0  0  0  0  0  0  0  0
   25.2559    9.5483   55.6990 C   0  0  0  0  0  0  0  0  0  0  0  0
   25.1774   10.6995   56.6658 C   0  0  0  0  0  0  0  0  0  0  0  0
   24.1528    8.9287   55.2083 C   0  0  0  0  0  0  0  0  0  0  0  0
   24.1979    7.8525   54.3100 C   0  0  0  0  0  0  0  0  0  0  0  0
   25.4457    7.4323   53.9285 C   0  0  0  0  0  0  0  0  0  0  0  0
   26.5645    8.0497   54.4168 N   0  0  0  0  0  0  0  0  0  0  0  0
   21.7652    9.2056   52.8768 C   0  0  0  0  0  0  0  0  0  0  0  0
   21.7303    9.5316   51.5101 C   0  0  0  0  0  0  0  0  0  0  0  0
   21.6184   10.8207   51.0655 C   0  0  0  0  0  0  0  0  0  0  0  0
   21.5363   11.8393   51.9620 C   0  0  0  0  0  0  0  0  0  0  0  0
   21.4222   13.1428   51.5577 F   0  0  0  0  0  0  0  0  0  0  0  0
   21.5712   11.5303   53.2989 C   0  0  0  0  0  0  0  0  0  0  0  0
   21.6856   10.2290   53.7900 C   0  0  0  0  0  0  0  0  0  0  0  0
   21.7804   10.0412   55.2639 C   0  0  0  0  0  0  0  0  0  0  0  0
   20.9985    9.0176   55.9452 C   0  0  0  0  0  0  0  0  0  0  0  0
   20.5775   10.4802   56.0391 C   0  0  0  0  0  0  0  0  0  0  0  0
  9 10  1  0  0  0
 10 11  2  0  0  0
 11 12  1  0  0  0
 12 13  2  0  0  0
 13 14  1  0  0  0
 14 15  1  0  0  0
 14 16  2  0  0  0
 16 17  1  0  0  0
 17 18  2  0  0  0
 18 19  1  0  0  0
 17  1  1  0  0  0
  1  2  2  0  0  0
  2  3  1  0  0  0
  3  4  2  0  0  0
  3  5  1  0  0  0
  5  6  1  0  0  0
  6  7  2  0  0  0
  2 20  1  0  0  0
 20 21  2  0  0  0
 21 22  1  0  0  0
 22 23  2  0  0  0
 23 24  1  0  0  0
 23 25  1  0  0  0
 25 26  2  0  0  0
 26 27  1  0  0  0
 27 28  1  0  0  0
 28 29  1  0  0  0
 19 10  1  0  0  0
  6  1  1  0  0  0
 26 20  1  0  0  0
 29 27  1  0  0  0
 19 13  1  0  0  0
  5  8  1  0  0  0
M  END
> <minimizedAffinity>
14.14875

> <CNNscore>
0.5831525922

> <CNNaffinity>
6.7990617752

> <CNN_VS>
3.9648904800

> <CNNaffinity_variance>
0.5566325188

$$$$
[H]c1c([H])c(C2=C(c3c([H])c(C([H])([H])[H])c4nnc(C([H])([H])[H])n4c3[H])C(=O)N([H])C2=O)c(C2([H])C([H])([H])C2([H])[H])c([H])c1F


 29 33  0  0  0  0  0  0  0  0999 V2000
   22.7533    7.9720   53.4039 C   0  0  0  0  0  0  0  0  0  0  0  0
   23.8696    7.5068   53.8969 C   0  0  0  0  0  0  0  0  0  0  0  0
   23.9867    6.0778   53.4865 C   0  0  0  0  0  0  0  0  0  0  0  0
   24.9351    5.3069   53.7785 O   0  0  0  0  0  0  0  0  0  0  0  0
   22.8574    5.7179   52.7109 N   0  0  0  0  0  0  0  0  0  0  0  0
   22.0645    6.8889   52.6416 C   0  0  0  0  0  0  0  0  0  0  0  0
   20.9757    6.9724   52.0364 O   0  0  0  0  0  0  0  0  0  0  0  0
   22.6715    4.7841   52.2888 H   0  0  0  0  0  0  0  0  0  0  0  0
   21.9452   12.6759   50.4513 C   0  0  0  0  0  0  0  0  0  0  0  0
   21.4543   12.5214   51.8413 C   0  0  0  0  0  0  0  0  0  0  0  0
   20.7700   13.4961   52.5020 N   0  0  0  0  0  0  0  0  0  0  0  0
   20.4816   13.0469   53.6982 N   0  0  0  0  0  0  0  0  0  0  0  0
   20.9832   11.7952   53.7877 C   0  0  0  0  0  0  0  0  0  0  0  0
   20.9307   10.9159   54.8493 C   0  0  0  0  0  0  0  0  0  0  0  0
   20.2473   11.3163   56.1296 C   0  0  0  0  0  0  0  0  0  0  0  0
   21.5164    9.7034   54.6811 C   0  0  0  0  0  0  0  0  0  0  0  0
   22.1624    9.3068   53.5010 C   0  0  0  0  0  0  0  0  0  0  0  0
   22.1810   10.2234   52.4819 C   0  0  0  0  0  0  0  0  0  0  0  0
   21.5937   11.4486   52.6406 N   0  0  0  0  0  0  0  0  0  0  0  0
   24.8171    8.2064   54.7438 C   0  0  0  0  0  0  0  0  0  0  0  0
   24.3217    8.8930   55.8657 C   0  0  0  0  0  0  0  0  0  0  0  0
   25.1313    9.6095   56.7043 C   0  0  0  0  0  0  0  0  0  0  0  0
   26.4674    9.6728   56.4619 C   0  0  0  0  0  0  0  0  0  0  0  0
   27.3114   10.3782   57.2778 F   0  0  0  0  0  0  0  0  0  0  0  0
   26.9598    9.0066   55.3675 C   0  0  0  0  0  0  0  0  0  0  0  0
   26.1660    8.2671   54.4896 C   0  0  0  0  0  0  0  0  0  0  0  0
   26.8199    7.6501   53.3028 C   0  0  0  0  0  0  0  0  0  0  0  0
   28.2597    7.4292   53.2654 C   0  0  0  0  0  0  0  0  0  0  0  0
   27.6496    8.5835   52.4776 C   0  0  0  0  0  0  0  0  0  0  0  0
  9 10  1  0  0  0
 10 11  2  0  0  0
 11 12  1  0  0  0
 12 13  2  0  0  0
 13 14  1  0  0  0
 14 15  1  0  0  0
 14 16  2  0  0  0
 16 17  1  0  0  0
 17 18  2  0  0  0
 18 19  1  0  0  0
 17  1  1  0  0  0
  1  2  2  0  0  0
  2  3  1  0  0  0
  3  4  2  0  0  0
  3  5  1  0  0  0
  5  6  1  0  0  0
  6  7  2  0  0  0
  2 20  1  0  0  0
 20 21  2  0  0  0
 21 22  1  0  0  0
 22 23  2  0  0  0
 23 24  1  0  0  0
 23 25  1  0  0  0
 25 26  2  0  0  0
 26 27  1  0  0  0
 27 28  1  0  0  0
 28 29  1  0  0  0
 19 10  1  0  0  0
  6  1  1  0  0  0
 26 20  1  0  0  0
 29 27  1  0  0  0
 19 13  1  0  0  0
  5  8  1  0  0  0
M  END
> <minimizedAffinity>
33.39194

> <CNNscore>
0.5827533007

> <CNNaffinity>
6.3338327408

> <CNN_VS>
3.6910619736

> <CNNaffinity_variance>
0.4979225099

$$$$
[H]c1c([H])c(C2=C(c3c([H])c(C([H])([H])[H])c4nnc(C([H])([H])[H])n4c3[H])C(=O)N([H])C2=O)c(C2([H])C([H])([H])C2([H])[H])c([H])c1F


 29 33  0  0  0  0  0  0  0  0999 V2000
   23.1968    7.5803   54.6931 C   0  0  0  0  0  0  0  0  0  0  0  0
   22.0871    8.1563   54.3157 C   0  0  0  0  0  0  0  0  0  0  0  0
   20.9603    7.2437   54.6642 C   0  0  0  0  0  0  0  0  0  0  0  0
   19.7425    7.4680   54.4501 O   0  0  0  0  0  0  0  0  0  0  0  0
   21.4748    6.0755   55.2784 N   0  0  0  0  0  0  0  0  0  0  0  0
   22.8784    6.2590   55.3106 C   0  0  0  0  0  0  0  0  0  0  0  0
   23.6897    5.4361   55.7833 O   0  0  0  0  0  0  0  0  0  0  0  0
   20.9193    5.2664   55.6271 H   0  0  0  0  0  0  0  0  0  0  0  0
   27.5416    9.2428   57.8325 C   0  0  0  0  0  0  0  0  0  0  0  0
   27.6199    9.1619   56.3546 C   0  0  0  0  0  0  0  0  0  0  0  0
   28.7426    9.4751   55.6500 N   0  0  0  0  0  0  0  0  0  0  0  0
   28.4838    9.2981   54.3783 N   0  0  0  0  0  0  0  0  0  0  0  0
   27.2034    8.8756   54.2852 C   0  0  0  0  0  0  0  0  0  0  0  0
   26.4781    8.5548   53.1565 C   0  0  0  0  0  0  0  0  0  0  0  0
   27.1108    8.6640   51.7948 C   0  0  0  0  0  0  0  0  0  0  0  0
   25.1958    8.1491   53.3368 C   0  0  0  0  0  0  0  0  0  0  0  0
   24.5813    8.0421   54.5931 C   0  0  0  0  0  0  0  0  0  0  0  0
   25.3531    8.3740   55.6762 C   0  0  0  0  0  0  0  0  0  0  0  0
   26.6470    8.7841   55.5061 N   0  0  0  0  0  0  0  0  0  0  0  0
   21.9438    9.4245   53.6260 C   0  0  0  0  0  0  0  0  0  0  0  0
   22.0007   10.6036   54.3887 C   0  0  0  0  0  0  0  0  0  0  0  0
   21.8423   11.8446   53.8347 C   0  0  0  0  0  0  0  0  0  0  0  0
   21.6208   11.9644   52.4989 C   0  0  0  0  0  0  0  0  0  0  0  0
   21.4583   13.1882   51.9059 F   0  0  0  0  0  0  0  0  0  0  0  0
   21.5621   10.8179   51.7463 C   0  0  0  0  0  0  0  0  0  0  0  0
   21.7176    9.5358   52.2753 C   0  0  0  0  0  0  0  0  0  0  0  0
   21.5627    8.3745   51.3568 C   0  0  0  0  0  0  0  0  0  0  0  0
   20.2647    8.0274   50.7927 C   0  0  0  0  0  0  0  0  0  0  0  0
   20.8403    7.1983   51.9358 C   0  0  0  0  0  0  0  0  0  0  0  0
  9 10  1  0  0  0
 10 11  2  0  0  0
 11 12  1  0  0  0
 12 13  2  0  0  0
 13 14  1  0  0  0
 14 15  1  0  0  0
 14 16  2  0  0  0
 16 17  1  0  0  0
 17 18  2  0  0  0
 18 19  1  0  0  0
 17  1  1  0  0  0
  1  2  2  0  0  0
  2  3  1  0  0  0
  3  4  2  0  0  0
  3  5  1  0  0  0
  5  6  1  0  0  0
  6  7  2  0  0  0
  2 20  1  0  0  0
 20 21  2  0  0  0
 21 22  1  0  0  0
 22 23  2  0  0  0
 23 24  1  0  0  0
 23 25  1  0  0  0
 25 26  2  0  0  0
 26 27  1  0  0  0
 27 28  1  0  0  0
 28 29  1  0  0  0
 19 10  1  0  0  0
  6  1  1  0  0  0
 26 20  1  0  0  0
 29 27  1  0  0  0
 19 13  1  0  0  0
  5  8  1  0  0  0
M  END
> <minimizedAffinity>
11.93252

> <CNNscore>
0.5687593222

> <CNNaffinity>
6.5885033607

> <CNN_VS>
3.7472727299

> <CNNaffinity_variance>
0.2802215219

$$$$
[H]c1c([H])c(C2=C(c3c([H])c(C([H])([H])[H])c4nnc(C([H])([H])[H])n4c3[H])C(=O)N([H])C2=O)c(C2([H])C([H])([H])C2([H])[H])c([H])c1F


 29 33  0  0  0  0  0  0  0  0999 V2000
   23.3354    7.3981   54.5170 C   0  0  0  0  0  0  0  0  0  0  0  0
   22.2096    7.9476   54.1476 C   0  0  0  0  0  0  0  0  0  0  0  0
   21.1308    6.9323   54.3190 C   0  0  0  0  0  0  0  0  0  0  0  0
   19.9130    7.1068   54.0634 O   0  0  0  0  0  0  0  0  0  0  0  0
   21.6916    5.7310   54.8180 N   0  0  0  0  0  0  0  0  0  0  0  0
   23.0763    5.9940   54.9528 C   0  0  0  0  0  0  0  0  0  0  0  0
   23.9165    5.1701   55.3698 O   0  0  0  0  0  0  0  0  0  0  0  0
   21.1751    4.8529   55.0349 H   0  0  0  0  0  0  0  0  0  0  0  0
   27.5855    8.9082   51.1773 C   0  0  0  0  0  0  0  0  0  0  0  0
   27.6505    9.0489   52.6514 C   0  0  0  0  0  0  0  0  0  0  0  0
   28.7328    9.5564   53.3040 N   0  0  0  0  0  0  0  0  0  0  0  0
   28.4717    9.5464   54.5875 N   0  0  0  0  0  0  0  0  0  0  0  0
   27.2303    9.0344   54.7397 C   0  0  0  0  0  0  0  0  0  0  0  0
   26.5165    8.8266   55.9017 C   0  0  0  0  0  0  0  0  0  0  0  0
   27.1207    9.1822   57.2339 C   0  0  0  0  0  0  0  0  0  0  0  0
   25.2737    8.2953   55.7806 C   0  0  0  0  0  0  0  0  0  0  0  0
   24.6890    7.9520   54.5529 C   0  0  0  0  0  0  0  0  0  0  0  0
   25.4469    8.1824   53.4342 C   0  0  0  0  0  0  0  0  0  0  0  0
   26.7010    8.7177   53.5446 N   0  0  0  0  0  0  0  0  0  0  0  0
   22.0159    9.2799   53.6072 C   0  0  0  0  0  0  0  0  0  0  0  0
   22.0769   10.3694   54.4929 C   0  0  0  0  0  0  0  0  0  0  0  0
   21.8735   11.6595   54.0849 C   0  0  0  0  0  0  0  0  0  0  0  0
   21.6012   11.9194   52.7787 C   0  0  0  0  0  0  0  0  0  0  0  0
   21.3927   13.1965   52.3301 F   0  0  0  0  0  0  0  0  0  0  0  0
   21.5382   10.8612   51.9068 C   0  0  0  0  0  0  0  0  0  0  0  0
   21.7385    9.5330   52.2856 C   0  0  0  0  0  0  0  0  0  0  0  0
   21.5737    8.4758   51.2504 C   0  0  0  0  0  0  0  0  0  0  0  0
   20.2511    8.0592   50.8024 C   0  0  0  0  0  0  0  0  0  0  0  0
   21.0436    7.1699   51.7545 C   0  0  0  0  0  0  0  0  0  0  0  0
  9 10  1  0  0  0
 10 11  2  0  0  0
 11 12  1  0  0  0
 12 13  2  0  0  0
 13 14  1  0  0  0
 14 15  1  0  0  0
 14 16  2  0  0  0
 16 17  1  0  0  0
 17 18  2  0  0  0
 18 19  1  0  0  0
 17  1  1  0  0  0
  1  2  2  0  0  0
  2  3  1  0  0  0
  3  4  2  0  0  0
  3  5  1  0  0  0
  5  6  1  0  0  0
  6  7  2  0  0  0
  2 20  1  0  0  0
 20 21  2  0  0  0
 21 22  1  0  0  0
 22 23  2  0  0  0
 23 24  1  0  0  0
 23 25  1  0  0  0
 25 26  2  0  0  0
 26 27  1  0  0  0
 27 28  1  0  0  0
 28 29  1  0  0  0
 19 10  1  0  0  0
  6  1  1  0  0  0
 26 20  1  0  0  0
 29 27  1  0  0  0
 19 13  1  0  0  0
  5  8  1  0  0  0
M  END
> <minimizedAffinity>
17.84426

> <CNNscore>
0.4970722795

> <CNNaffinity>
6.4564123154

> <CNN_VS>
3.2093036175

> <CNNaffinity_variance>
0.2882973552

$$$$
[H]c1c([H])c(C2=C(c3c([H])c(C([H])([H])[H])c4nnc(C([H])([H])[H])n4c3[H])C(=O)N([H])C2=O)c(C2([H])C([H])([H])C2([H])[H])c([H])c1F


 29 33  0  0  0  0  0  0  0  0999 V2000
   23.3555    9.4509   55.1571 C   0  0  0  0  0  0  0  0  0  0  0  0
   22.3496    8.6742   54.8560 C   0  0  0  0  0  0  0  0  0  0  0  0
   21.0938    9.4254   55.1435 C   0  0  0  0  0  0  0  0  0  0  0  0
   19.9262    8.9930   54.9741 O   0  0  0  0  0  0  0  0  0  0  0  0
   21.4191   10.7112   55.6408 N   0  0  0  0  0  0  0  0  0  0  0  0
   22.8341   10.7562   55.6600 C   0  0  0  0  0  0  0  0  0  0  0  0
   23.5066   11.7375   56.0390 O   0  0  0  0  0  0  0  0  0  0  0  0
   20.7438   11.4519   55.9239 H   0  0  0  0  0  0  0  0  0  0  0  0
   28.0428    9.3824   58.2428 C   0  0  0  0  0  0  0  0  0  0  0  0
   28.0449    9.0623   56.7955 C   0  0  0  0  0  0  0  0  0  0  0  0
   29.1715    8.7235   56.1094 N   0  0  0  0  0  0  0  0  0  0  0  0
   28.8342    8.5025   54.8632 N   0  0  0  0  0  0  0  0  0  0  0  0
   27.5010    8.7020   54.7677 C   0  0  0  0  0  0  0  0  0  0  0  0
   26.6862    8.5881   53.6604 C   0  0  0  0  0  0  0  0  0  0  0  0
   27.2704    8.1989   52.3287 C   0  0  0  0  0  0  0  0  0  0  0  0
   25.3645    8.8428   53.8330 C   0  0  0  0  0  0  0  0  0  0  0  0
   24.7954    9.2105   55.0611 C   0  0  0  0  0  0  0  0  0  0  0  0
   25.6555    9.3063   56.1240 C   0  0  0  0  0  0  0  0  0  0  0  0
   26.9897    9.0518   55.9614 N   0  0  0  0  0  0  0  0  0  0  0  0
   22.4062    7.3039   54.3832 C   0  0  0  0  0  0  0  0  0  0  0  0
   23.3025    6.4226   55.0118 C   0  0  0  0  0  0  0  0  0  0  0  0
   23.4526    5.1217   54.6153 C   0  0  0  0  0  0  0  0  0  0  0  0
   22.7172    4.6433   53.5769 C   0  0  0  0  0  0  0  0  0  0  0  0
   22.8371    3.3474   53.1504 F   0  0  0  0  0  0  0  0  0  0  0  0
   21.8403    5.4975   52.9560 C   0  0  0  0  0  0  0  0  0  0  0  0
   21.6607    6.8297   53.3310 C   0  0  0  0  0  0  0  0  0  0  0  0
   20.7259    7.6647   52.5275 C   0  0  0  0  0  0  0  0  0  0  0  0
   20.8586    7.7641   51.0798 C   0  0  0  0  0  0  0  0  0  0  0  0
   21.3183    8.9185   51.9639 C   0  0  0  0  0  0  0  0  0  0  0  0
  9 10  1  0  0  0
 10 11  2  0  0  0
 11 12  1  0  0  0
 12 13  2  0  0  0
 13 14  1  0  0  0
 14 15  1  0  0  0
 14 16  2  0  0  0
 16 17  1  0  0  0
 17 18  2  0  0  0
 18 19  1  0  0  0
 17  1  1  0  0  0
  1  2  2  0  0  0
  2  3  1  0  0  0
  3  4  2  0  0  0
  3  5  1  0  0  0
  5  6  1  0  0  0
  6  7  2  0  0  0
  2 20  1  0  0  0
 20 21  2  0  0  0
 21 22  1  0  0  0
 22 23  2  0  0  0
 23 24  1  0  0  0
 23 25  1  0  0  0
 25 26  2  0  0  0
 26 27  1  0  0  0
 27 28  1  0  0  0
 28 29  1  0  0  0
 19 10  1  0  0  0
  6  1  1  0  0  0
 26 20  1  0  0  0
 29 27  1  0  0  0
 19 13  1  0  0  0
  5  8  1  0  0  0
M  END
> <minimizedAffinity>
25.49792

> <CNNscore>
0.4963851571

> <CNNaffinity>
6.2597556114

> <CNN_VS>
3.1072497368

> <CNNaffinity_variance>
0.2129101306

$$$$
[H]c1c([H])c(C2=C(c3c([H])c(C([H])([H])[H])c4nnc(C([H])([H])[H])n4c3[H])C(=O)N([H])C2=O)c(C2([H])C([H])([H])C2([H])[H])c([H])c1F


 29 33  0  0  0  0  0  0  0  0999 V2000
   23.5683    9.2547   54.7610 C   0  0  0  0  0  0  0  0  0  0  0  0
   22.8269    8.3203   54.2291 C   0  0  0  0  0  0  0  0  0  0  0  0
   21.4499    8.8698   54.0677 C   0  0  0  0  0  0  0  0  0  0  0  0
   20.4665    8.2530   53.5866 O   0  0  0  0  0  0  0  0  0  0  0  0
   21.4180   10.2039   54.5430 N   0  0  0  0  0  0  0  0  0  0  0  0
   22.7359   10.4736   54.9848 C   0  0  0  0  0  0  0  0  0  0  0  0
   23.1105   11.5590   55.4750 O   0  0  0  0  0  0  0  0  0  0  0  0
   20.5897   10.8351   54.5533 H   0  0  0  0  0  0  0  0  0  0  0  0
   27.2362   11.5310   58.3474 C   0  0  0  0  0  0  0  0  0  0  0  0
   27.6420   10.5330   57.3294 C   0  0  0  0  0  0  0  0  0  0  0  0
   28.9222   10.0897   57.1901 N   0  0  0  0  0  0  0  0  0  0  0  0
   28.9440    9.2198   56.2111 N   0  0  0  0  0  0  0  0  0  0  0  0
   27.6823    9.1179   55.7377 C   0  0  0  0  0  0  0  0  0  0  0  0
   27.2040    8.3288   54.7123 C   0  0  0  0  0  0  0  0  0  0  0  0
   28.1400    7.4275   53.9521 C   0  0  0  0  0  0  0  0  0  0  0  0
   25.8786    8.4102   54.4323 C   0  0  0  0  0  0  0  0  0  0  0  0
   24.9860    9.2436   55.1220 C   0  0  0  0  0  0  0  0  0  0  0  0
   25.5205   10.0027   56.1305 C   0  0  0  0  0  0  0  0  0  0  0  0
   26.8551    9.9285   56.4213 N   0  0  0  0  0  0  0  0  0  0  0  0
   23.2223    6.9642   53.8986 C   0  0  0  0  0  0  0  0  0  0  0  0
   24.1397    6.7786   52.8501 C   0  0  0  0  0  0  0  0  0  0  0  0
   24.5471    5.5377   52.4422 C   0  0  0  0  0  0  0  0  0  0  0  0
   24.0588    4.4298   53.0604 C   0  0  0  0  0  0  0  0  0  0  0  0
   24.4422    3.1704   52.6828 F   0  0  0  0  0  0  0  0  0  0  0  0
   23.1611    4.6016   54.0844 C   0  0  0  0  0  0  0  0  0  0  0  0
   22.7215    5.8500   54.5273 C   0  0  0  0  0  0  0  0  0  0  0  0
   21.6929    5.8904   55.6029 C   0  0  0  0  0  0  0  0  0  0  0  0
   21.7692    6.8661   56.6825 C   0  0  0  0  0  0  0  0  0  0  0  0
   22.1570    5.4148   56.9442 C   0  0  0  0  0  0  0  0  0  0  0  0
  9 10  1  0  0  0
 10 11  2  0  0  0
 11 12  1  0  0  0
 12 13  2  0  0  0
 13 14  1  0  0  0
 14 15  1  0  0  0
 14 16  2  0  0  0
 16 17  1  0  0  0
 17 18  2  0  0  0
 18 19  1  0  0  0
 17  1  1  0  0  0
  1  2  2  0  0  0
  2  3  1  0  0  0
  3  4  2  0  0  0
  3  5  1  0  0  0
  5  6  1  0  0  0
  6  7  2  0  0  0
  2 20  1  0  0  0
 20 21  2  0  0  0
 21 22  1  0  0  0
 22 23  2  0  0  0
 23 24  1  0  0  0
 23 25  1  0  0  0
 25 26  2  0  0  0
 26 27  1  0  0  0
 27 28  1  0  0  0
 28 29  1  0  0  0
 19 10  1  0  0  0
  6  1  1  0  0  0
 26 20  1  0  0  0
 29 27  1  0  0  0
 19 13  1  0  0  0
  5  8  1  0  0  0
M  END
> <minimizedAffinity>
34.38235

> <CNNscore>
0.4891780019

> <CNNaffinity>
6.2220096588

> <CNN_VS>
3.0436701775

> <CNNaffinity_variance>
0.4991065860

$$$$
[H]c1c([H])c(C2=C(c3c([H])c(C([H])([H])[H])c4nnc(C([H])([H])[H])n4c3[H])C(=O)N([H])C2=O)c(C2([H])C([H])([H])C2([H])[H])c([H])c1F


 29 33  0  0  0  0  0  0  0  0999 V2000
   23.1446    8.1685   53.1529 C   0  0  0  0  0  0  0  0  0  0  0  0
   22.2946    7.3247   53.6737 C   0  0  0  0  0  0  0  0  0  0  0  0
   21.0095    7.4561   52.9284 C   0  0  0  0  0  0  0  0  0  0  0  0
   19.9621    6.7989   53.1521 O   0  0  0  0  0  0  0  0  0  0  0  0
   21.1496    8.4423   51.9212 N   0  0  0  0  0  0  0  0  0  0  0  0
   22.4817    8.9076   52.0380 C   0  0  0  0  0  0  0  0  0  0  0  0
   22.9900    9.7894   51.3151 O   0  0  0  0  0  0  0  0  0  0  0  0
   20.4152    8.7437   51.2470 H   0  0  0  0  0  0  0  0  0  0  0  0
   26.4985    9.1104   57.5530 C   0  0  0  0  0  0  0  0  0  0  0  0
   27.0111    9.0719   56.1628 C   0  0  0  0  0  0  0  0  0  0  0  0
   28.3236    9.2537   55.8477 N   0  0  0  0  0  0  0  0  0  0  0  0
   28.4435    9.1586   54.5469 N   0  0  0  0  0  0  0  0  0  0  0  0
   27.2109    8.9184   54.0475 C   0  0  0  0  0  0  0  0  0  0  0  0
   26.8292    8.7396   52.7340 C   0  0  0  0  0  0  0  0  0  0  0  0
   27.8533    8.8095   51.6329 C   0  0  0  0  0  0  0  0  0  0  0  0
   25.5137    8.5066   52.4957 C   0  0  0  0  0  0  0  0  0  0  0  0
   24.5390    8.4402   53.5021 C   0  0  0  0  0  0  0  0  0  0  0  0
   24.9797    8.6251   54.7868 C   0  0  0  0  0  0  0  0  0  0  0  0
   26.3035    8.8607   55.0386 N   0  0  0  0  0  0  0  0  0  0  0  0
   22.5083    6.4476   54.8093 C   0  0  0  0  0  0  0  0  0  0  0  0
   23.2210    5.2545   54.6000 C   0  0  0  0  0  0  0  0  0  0  0  0
   23.4440    4.3475   55.5999 C   0  0  0  0  0  0  0  0  0  0  0  0
   22.9674    4.5898   56.8497 C   0  0  0  0  0  0  0  0  0  0  0  0
   23.1702    3.7080   57.8778 F   0  0  0  0  0  0  0  0  0  0  0  0
   22.2688    5.7520   57.0629 C   0  0  0  0  0  0  0  0  0  0  0  0
   22.0206    6.6995   56.0688 C   0  0  0  0  0  0  0  0  0  0  0  0
   21.1902    7.8841   56.4205 C   0  0  0  0  0  0  0  0  0  0  0  0
   20.6097    8.7314   55.3868 C   0  0  0  0  0  0  0  0  0  0  0  0
   21.8332    9.2106   56.1606 C   0  0  0  0  0  0  0  0  0  0  0  0
  9 10  1  0  0  0
 10 11  2  0  0  0
 11 12  1  0  0  0
 12 13  2  0  0  0
 13 14  1  0  0  0
 14 15  1  0  0  0
 14 16  2  0  0  0
 16 17  1  0  0  0
 17 18  2  0  0  0
 18 19  1  0  0  0
 17  1  1  0  0  0
  1  2  2  0  0  0
  2  3  1  0  0  0
  3  4  2  0  0  0
  3  5  1  0  0  0
  5  6  1  0  0  0
  6  7  2  0  0  0
  2 20  1  0  0  0
 20 21  2  0  0  0
 21 22  1  0  0  0
 22 23  2  0  0  0
 23 24  1  0  0  0
 23 25  1  0  0  0
 25 26  2  0  0  0
 26 27  1  0  0  0
 27 28  1  0  0  0
 28 29  1  0  0  0
 19 10  1  0  0  0
  6  1  1  0  0  0
 26 20  1  0  0  0
 29 27  1  0  0  0
 19 13  1  0  0  0
  5  8  1  0  0  0
M  END
> <minimizedAffinity>
31.76351

> <CNNscore>
0.4875083566

> <CNNaffinity>
6.1643714905

> <CNN_VS>
3.0051825047

> <CNNaffinity_variance>
0.4768465161

$$$$
[H]c1c([H])c(-c2nc3c(c([H])c2C([H])([H])[H])C([H])(C([H])([H])[H])C([H])([H])C(=O)N3C([H])([H])[H])c([H])c(OC([H])(C([H])([H])[H])C([H])([H])[H])c1C#N


 26 28  0  0  0  0  0  0  0  0999 V2000
   23.6595    7.9841   54.5326 C   0  0  0  0  0  0  0  0  0  0  0  0
   22.9667    8.8284   53.7563 N   0  0  0  0  0  0  0  0  0  0  0  0
   21.9404    8.3948   52.9889 C   0  0  0  0  0  0  0  0  0  0  0  0
   21.2508    9.3540   52.1896 N   0  0  0  0  0  0  0  0  0  0  0  0
   21.6674   10.7443   52.2247 C   0  0  0  0  0  0  0  0  0  0  0  0
   20.1793    8.8966   51.3897 C   0  0  0  0  0  0  0  0  0  0  0  0
   19.7908    9.5802   50.4215 O   0  0  0  0  0  0  0  0  0  0  0  0
   19.5283    7.6177   51.7031 C   0  0  0  0  0  0  0  0  0  0  0  0
   20.4538    6.5415   52.1557 C   0  0  0  0  0  0  0  0  0  0  0  0
   19.6629    5.5542   53.0119 C   0  0  0  0  0  0  0  0  0  0  0  0
   21.5717    7.0664   52.9794 C   0  0  0  0  0  0  0  0  0  0  0  0
   22.2998    6.2090   53.7880 C   0  0  0  0  0  0  0  0  0  0  0  0
   23.3502    6.6702   54.5691 C   0  0  0  0  0  0  0  0  0  0  0  0
   24.0967    5.7043   55.3924 C   0  0  0  0  0  0  0  0  0  0  0  0
   27.1673    8.8362   55.6964 C   0  0  0  0  0  0  0  0  0  0  0  0
   26.0648    8.3037   55.0015 C   0  0  0  0  0  0  0  0  0  0  0  0
   24.7574    8.5522   55.3115 C   0  0  0  0  0  0  0  0  0  0  0  0
   24.5012    9.3843   56.3808 C   0  0  0  0  0  0  0  0  0  0  0  0
   25.5516    9.9248   57.0858 C   0  0  0  0  0  0  0  0  0  0  0  0
   26.8723    9.6621   56.7581 C   0  0  0  0  0  0  0  0  0  0  0  0
   27.8745   10.2942   57.5808 C   0  0  0  0  0  0  0  0  0  0  0  0
   28.6572   10.8062   58.2559 N   0  0  0  0  0  0  0  0  0  0  0  0
   28.3884    8.5415   55.3263 O   0  0  0  0  0  0  0  0  0  0  0  0
   29.3759    9.6821   53.4402 C   0  0  0  0  0  0  0  0  0  0  0  0
   29.3787    8.5306   54.4586 C   0  0  0  0  0  0  0  0  0  0  0  0
   29.2399    7.2632   53.5722 C   0  0  0  0  0  0  0  0  0  0  0  0
 24 25  1  0  0  0
 25 26  1  0  0  0
 25 23  1  0  0  0
 23 15  1  0  0  0
 15 16  2  0  0  0
 16 17  1  0  0  0
 17 18  2  0  0  0
 18 19  1  0  0  0
 19 20  2  0  0  0
 20 21  1  0  0  0
 21 22  3  0  0  0
 17  1  1  0  0  0
  1  2  2  0  0  0
  2  3  1  0  0  0
  3  4  1  0  0  0
  4  5  1  0  0  0
  4  6  1  0  0  0
  6  7  2  0  0  0
  6  8  1  0  0  0
  8  9  1  0  0  0
  9 10  1  0  0  0
  9 11  1  0  0  0
 11 12  1  0  0  0
 12 13  2  0  0  0
 13 14  1  0  0  0
 20 15  1  0  0  0
 13  1  1  0  0  0
 11  3  2  0  0  0
M  END
> <minimizedAffinity>
26.49449

> <CNNscore>
0.6032274961

> <CNNaffinity>
5.8809137344

> <CNN_VS>
3.5475289822

> <CNNaffinity_variance>
0.3640755415

$$$$
[H]c1c([H])c(-c2nc3c(c([H])c2C([H])([H])[H])C([H])(C([H])([H])[H])C([H])([H])C(=O)N3C([H])([H])[H])c([H])c(OC([H])(C([H])([H])[H])C([H])([H])[H])c1C#N


 26 28  0  0  0  0  0  0  0  0999 V2000
   23.5420    9.0522   54.4688 C   0  0  0  0  0  0  0  0  0  0  0  0
   24.7393    8.6745   54.0004 N   0  0  0  0  0  0  0  0  0  0  0  0
   25.8541    8.7760   54.7600 C   0  0  0  0  0  0  0  0  0  0  0  0
   27.0920    8.3531   54.1913 N   0  0  0  0  0  0  0  0  0  0  0  0
   27.1148    7.8357   52.8351 C   0  0  0  0  0  0  0  0  0  0  0  0
   28.2540    8.4607   54.9885 C   0  0  0  0  0  0  0  0  0  0  0  0
   29.3788    8.4639   54.4498 O   0  0  0  0  0  0  0  0  0  0  0  0
   28.1306    8.5683   56.4483 C   0  0  0  0  0  0  0  0  0  0  0  0
   26.9898    9.4038   56.9175 C   0  0  0  0  0  0  0  0  0  0  0  0
   26.5990    8.9417   58.3201 C   0  0  0  0  0  0  0  0  0  0  0  0
   25.7962    9.2728   56.0447 C   0  0  0  0  0  0  0  0  0  0  0  0
   24.5500    9.6583   56.5110 C   0  0  0  0  0  0  0  0  0  0  0  0
   23.4160    9.5478   55.7185 C   0  0  0  0  0  0  0  0  0  0  0  0
   22.1239    9.9928   56.2665 C   0  0  0  0  0  0  0  0  0  0  0  0
   21.0302    9.7928   51.7251 C   0  0  0  0  0  0  0  0  0  0  0  0
   22.0970    9.8741   52.6401 C   0  0  0  0  0  0  0  0  0  0  0  0
   22.4042    8.9141   53.5626 C   0  0  0  0  0  0  0  0  0  0  0  0
   21.6124    7.7856   53.5984 C   0  0  0  0  0  0  0  0  0  0  0  0
   20.5598    7.6682   52.7206 C   0  0  0  0  0  0  0  0  0  0  0  0
   20.2617    8.6520   51.7910 C   0  0  0  0  0  0  0  0  0  0  0  0
   19.1306    8.4002   50.9320 C   0  0  0  0  0  0  0  0  0  0  0  0
   18.2187    8.2238   50.2480 N   0  0  0  0  0  0  0  0  0  0  0  0
   20.8113   10.7646   50.8752 O   0  0  0  0  0  0  0  0  0  0  0  0
   21.5027   13.0513   51.2304 C   0  0  0  0  0  0  0  0  0  0  0  0
   21.1288   11.8982   50.2852 C   0  0  0  0  0  0  0  0  0  0  0  0
   19.8743   12.4320   49.5418 C   0  0  0  0  0  0  0  0  0  0  0  0
 24 25  1  0  0  0
 25 26  1  0  0  0
 25 23  1  0  0  0
 23 15  1  0  0  0
 15 16  2  0  0  0
 16 17  1  0  0  0
 17 18  2  0  0  0
 18 19  1  0  0  0
 19 20  2  0  0  0
 20 21  1  0  0  0
 21 22  3  0  0  0
 17  1  1  0  0  0
  1  2  2  0  0  0
  2  3  1  0  0  0
  3  4  1  0  0  0
  4  5  1  0  0  0
  4  6  1  0  0  0
  6  7  2  0  0  0
  6  8  1  0  0  0
  8  9  1  0  0  0
  9 10  1  0  0  0
  9 11  1  0  0  0
 11 12  1  0  0  0
 12 13  2  0  0  0
 13 14  1  0  0  0
 20 15  1  0  0  0
 13  1  1  0  0  0
 11  3  2  0  0  0
M  END
> <minimizedAffinity>
33.73840

> <CNNscore>
0.5873352289

> <CNNaffinity>
5.7749929428

> <CNN_VS>
3.3918569088

> <CNNaffinity_variance>
0.3811449707

$$$$
[H]c1c([H])c(-c2nc3c(c([H])c2C([H])([H])[H])C([H])(C([H])([H])[H])C([H])([H])C(=O)N3C([H])([H])[H])c([H])c(OC([H])(C([H])([H])[H])C([H])([H])[H])c1C#N


 26 28  0  0  0  0  0  0  0  0999 V2000
   25.7318    8.1081   54.5438 C   0  0  0  0  0  0  0  0  0  0  0  0
   26.0126    8.3753   55.8265 N   0  0  0  0  0  0  0  0  0  0  0  0
   27.1242    9.0643   56.1729 C   0  0  0  0  0  0  0  0  0  0  0  0
   27.3544    9.3098   57.5590 N   0  0  0  0  0  0  0  0  0  0  0  0
   26.4023    8.8186   58.5387 C   0  0  0  0  0  0  0  0  0  0  0  0
   28.5167   10.0300   57.9163 C   0  0  0  0  0  0  0  0  0  0  0  0
   28.9590    9.9580   59.0801 O   0  0  0  0  0  0  0  0  0  0  0  0
   29.1981   10.8602   56.9141 C   0  0  0  0  0  0  0  0  0  0  0  0
   29.2402   10.2753   55.5445 C   0  0  0  0  0  0  0  0  0  0  0  0
   29.3713   11.4162   54.5372 C   0  0  0  0  0  0  0  0  0  0  0  0
   28.0079    9.5157   55.2158 C   0  0  0  0  0  0  0  0  0  0  0  0
   27.7007    9.2294   53.8957 C   0  0  0  0  0  0  0  0  0  0  0  0
   26.5561    8.5211   53.5574 C   0  0  0  0  0  0  0  0  0  0  0  0
   26.2965    8.2330   52.1370 C   0  0  0  0  0  0  0  0  0  0  0  0
   22.1323    7.2840   53.6777 C   0  0  0  0  0  0  0  0  0  0  0  0
   23.3338    7.9592   53.9647 C   0  0  0  0  0  0  0  0  0  0  0  0
   24.5137    7.3458   54.2790 C   0  0  0  0  0  0  0  0  0  0  0  0
   24.5271    5.9675   54.3170 C   0  0  0  0  0  0  0  0  0  0  0  0
   23.3731    5.2707   54.0428 C   0  0  0  0  0  0  0  0  0  0  0  0
   22.1843    5.9087   53.7259 C   0  0  0  0  0  0  0  0  0  0  0  0
   21.0508    5.0569   53.4608 C   0  0  0  0  0  0  0  0  0  0  0  0
   20.1364    4.3925   53.2304 N   0  0  0  0  0  0  0  0  0  0  0  0
   21.0478    7.9574   53.3861 O   0  0  0  0  0  0  0  0  0  0  0  0
   20.9351    9.9516   52.0282 C   0  0  0  0  0  0  0  0  0  0  0  0
   20.3868    9.0747   53.1654 C   0  0  0  0  0  0  0  0  0  0  0  0
   20.5233    9.9808   54.4191 C   0  0  0  0  0  0  0  0  0  0  0  0
 24 25  1  0  0  0
 25 26  1  0  0  0
 25 23  1  0  0  0
 23 15  1  0  0  0
 15 16  2  0  0  0
 16 17  1  0  0  0
 17 18  2  0  0  0
 18 19  1  0  0  0
 19 20  2  0  0  0
 20 21  1  0  0  0
 21 22  3  0  0  0
 17  1  1  0  0  0
  1  2  2  0  0  0
  2  3  1  0  0  0
  3  4  1  0  0  0
  4  5  1  0  0  0
  4  6  1  0  0  0
  6  7  2  0  0  0
  6  8  1  0  0  0
  8  9  1  0  0  0
  9 10  1  0  0  0
  9 11  1  0  0  0
 11 12  1  0  0  0
 12 13  2  0  0  0
 13 14  1  0  0  0
 20 15  1  0  0  0
 13  1  1  0  0  0
 11  3  2  0  0  0
M  END
> <minimizedAffinity>
28.73635

> <CNNscore>
0.5631896257

> <CNNaffinity>
5.9669775963

> <CNN_VS>
3.3605399132

> <CNNaffinity_variance>
0.4487061501

$$$$
[H]c1c([H])c(-c2nc3c(c([H])c2C([H])([H])[H])C([H])(C([H])([H])[H])C([H])([H])C(=O)N3C([H])([H])[H])c([H])c(OC([H])(C([H])([H])[H])C([H])([H])[H])c1C#N


 26 28  0  0  0  0  0  0  0  0999 V2000
   23.5221    8.8998   54.4087 C   0  0  0  0  0  0  0  0  0  0  0  0
   24.7231    8.5493   53.9288 N   0  0  0  0  0  0  0  0  0  0  0  0
   25.8521    8.7521   54.6460 C   0  0  0  0  0  0  0  0  0  0  0  0
   27.0931    8.3521   54.0676 N   0  0  0  0  0  0  0  0  0  0  0  0
   27.1039    7.7497   52.7468 C   0  0  0  0  0  0  0  0  0  0  0  0
   28.2700    8.5656   54.8205 C   0  0  0  0  0  0  0  0  0  0  0  0
   29.3781    8.5869   54.2486 O   0  0  0  0  0  0  0  0  0  0  0  0
   28.1816    8.7614   56.2737 C   0  0  0  0  0  0  0  0  0  0  0  0
   27.0147    9.5708   56.7238 C   0  0  0  0  0  0  0  0  0  0  0  0
   26.6856    9.1825   58.1640 C   0  0  0  0  0  0  0  0  0  0  0  0
   25.8053    9.3276   55.8979 C   0  0  0  0  0  0  0  0  0  0  0  0
   24.5551    9.6833   56.3768 C   0  0  0  0  0  0  0  0  0  0  0  0
   23.4065    9.4686   55.6278 C   0  0  0  0  0  0  0  0  0  0  0  0
   22.1097    9.8868   56.1859 C   0  0  0  0  0  0  0  0  0  0  0  0
   20.5082    7.2034   52.8520 C   0  0  0  0  0  0  0  0  0  0  0  0
   21.6411    7.4961   53.6346 C   0  0  0  0  0  0  0  0  0  0  0  0
   22.3680    8.6499   53.5483 C   0  0  0  0  0  0  0  0  0  0  0  0
   21.9615    9.5939   52.6290 C   0  0  0  0  0  0  0  0  0  0  0  0
   20.8589    9.3455   51.8449 C   0  0  0  0  0  0  0  0  0  0  0  0
   20.1328    8.1693   51.9451 C   0  0  0  0  0  0  0  0  0  0  0  0
   18.9991    8.0390   51.0627 C   0  0  0  0  0  0  0  0  0  0  0  0
   18.0937    7.9606   50.3524 N   0  0  0  0  0  0  0  0  0  0  0  0
   19.8732    6.0684   53.0047 O   0  0  0  0  0  0  0  0  0  0  0  0
   19.9272    3.6546   52.9409 C   0  0  0  0  0  0  0  0  0  0  0  0
   19.5868    4.9664   53.6662 C   0  0  0  0  0  0  0  0  0  0  0  0
   18.0465    4.8902   53.8480 C   0  0  0  0  0  0  0  0  0  0  0  0
 24 25  1  0  0  0
 25 26  1  0  0  0
 25 23  1  0  0  0
 23 15  1  0  0  0
 15 16  2  0  0  0
 16 17  1  0  0  0
 17 18  2  0  0  0
 18 19  1  0  0  0
 19 20  2  0  0  0
 20 21  1  0  0  0
 21 22  3  0  0  0
 17  1  1  0  0  0
  1  2  2  0  0  0
  2  3  1  0  0  0
  3  4  1  0  0  0
  4  5  1  0  0  0
  4  6  1  0  0  0
  6  7  2  0  0  0
  6  8  1  0  0  0
  8  9  1  0  0  0
  9 10  1  0  0  0
  9 11  1  0  0  0
 11 12  1  0  0  0
 12 13  2  0  0  0
 13 14  1  0  0  0
 20 15  1  0  0  0
 13  1  1  0  0  0
 11  3  2  0  0  0
M  END
> <minimizedAffinity>
28.75005

> <CNNscore>
0.5394443274

> <CNNaffinity>
6.0375642776

> <CNN_VS>
3.2569298744

> <CNNaffinity_variance>
0.5794423223

$$$$
[H]c1c([H])c(-c2nc3c(c([H])c2C([H])([H])[H])C([H])(C([H])([H])[H])C([H])([H])C(=O)N3C([H])([H])[H])c([H])c(OC([H])(C([H])([H])[H])C([H])([H])[H])c1C#N


 26 28  0  0  0  0  0  0  0  0999 V2000
   24.1190    8.2875   54.2840 C   0  0  0  0  0  0  0  0  0  0  0  0
   23.4639    9.2983   53.6969 N   0  0  0  0  0  0  0  0  0  0  0  0
   22.4219    9.0702   52.8648 C   0  0  0  0  0  0  0  0  0  0  0  0
   21.7749   10.1979   52.2781 N   0  0  0  0  0  0  0  0  0  0  0  0
   22.2495   11.5345   52.5882 C   0  0  0  0  0  0  0  0  0  0  0  0
   20.6868    9.9550   51.4096 C   0  0  0  0  0  0  0  0  0  0  0  0
   20.3294   10.8342   50.6005 O   0  0  0  0  0  0  0  0  0  0  0  0
   19.9820    8.6674   51.4648 C   0  0  0  0  0  0  0  0  0  0  0  0
   20.8606    7.4848   51.6868 C   0  0  0  0  0  0  0  0  0  0  0  0
   20.0271    6.3798   52.3331 C   0  0  0  0  0  0  0  0  0  0  0  0
   21.9978    7.7872   52.5918 C   0  0  0  0  0  0  0  0  0  0  0  0
   22.6875    6.7557   53.2077 C   0  0  0  0  0  0  0  0  0  0  0  0
   23.7548    7.0070   54.0586 C   0  0  0  0  0  0  0  0  0  0  0  0
   24.4584    5.8656   54.6671 C   0  0  0  0  0  0  0  0  0  0  0  0
   26.3751   10.2715   56.5990 C   0  0  0  0  0  0  0  0  0  0  0  0
   25.3364    9.8744   55.7357 C   0  0  0  0  0  0  0  0  0  0  0  0
   25.2383    8.6420   55.1538 C   0  0  0  0  0  0  0  0  0  0  0  0
   26.2274    7.7228   55.4333 C   0  0  0  0  0  0  0  0  0  0  0  0
   27.2599    8.0723   56.2724 C   0  0  0  0  0  0  0  0  0  0  0  0
   27.3445    9.3273   56.8542 C   0  0  0  0  0  0  0  0  0  0  0  0
   28.4796    9.5601   57.7133 C   0  0  0  0  0  0  0  0  0  0  0  0
   29.3738    9.7362   58.4204 N   0  0  0  0  0  0  0  0  0  0  0  0
   26.3863   11.4767   57.1109 O   0  0  0  0  0  0  0  0  0  0  0  0
   27.9362   13.1669   56.3531 C   0  0  0  0  0  0  0  0  0  0  0  0
   26.9760   12.6133   57.4182 C   0  0  0  0  0  0  0  0  0  0  0  0
   27.8967   12.3717   58.6450 C   0  0  0  0  0  0  0  0  0  0  0  0
 24 25  1  0  0  0
 25 26  1  0  0  0
 25 23  1  0  0  0
 23 15  1  0  0  0
 15 16  2  0  0  0
 16 17  1  0  0  0
 17 18  2  0  0  0
 18 19  1  0  0  0
 19 20  2  0  0  0
 20 21  1  0  0  0
 21 22  3  0  0  0
 17  1  1  0  0  0
  1  2  2  0  0  0
  2  3  1  0  0  0
  3  4  1  0  0  0
  4  5  1  0  0  0
  4  6  1  0  0  0
  6  7  2  0  0  0
  6  8  1  0  0  0
  8  9  1  0  0  0
  9 10  1  0  0  0
  9 11  1  0  0  0
 11 12  1  0  0  0
 12 13  2  0  0  0
 13 14  1  0  0  0
 20 15  1  0  0  0
 13  1  1  0  0  0
 11  3  2  0  0  0
M  END
> <minimizedAffinity>
32.30877

> <CNNscore>
0.5199275017

> <CNNaffinity>
5.6983852386

> <CNN_VS>
2.9627470970

> <CNNaffinity_variance>
0.4897747934

$$$$
[H]c1c([H])c(-c2nc3c(c([H])c2C([H])([H])[H])C([H])(C([H])([H])[H])C([H])([H])C(=O)N3C([H])([H])[H])c([H])c(OC([H])(C([H])([H])[H])C([H])([H])[H])c1C#N


 26 28  0  0  0  0  0  0  0  0999 V2000
   23.5484    9.6194   54.9180 C   0  0  0  0  0  0  0  0  0  0  0  0
   23.5253    8.2808   54.8611 N   0  0  0  0  0  0  0  0  0  0  0  0
   22.5629    7.6239   54.1737 C   0  0  0  0  0  0  0  0  0  0  0  0
   22.6056    6.1983   54.1594 N   0  0  0  0  0  0  0  0  0  0  0  0
   23.6649    5.5086   54.8735 C   0  0  0  0  0  0  0  0  0  0  0  0
   21.5984    5.5162   53.4399 C   0  0  0  0  0  0  0  0  0  0  0  0
   21.3640    4.3162   53.6853 O   0  0  0  0  0  0  0  0  0  0  0  0
   20.8326    6.2250   52.4060 C   0  0  0  0  0  0  0  0  0  0  0  0
   20.4938    7.6370   52.7392 C   0  0  0  0  0  0  0  0  0  0  0  0
   20.2956    8.4059   51.4343 C   0  0  0  0  0  0  0  0  0  0  0  0
   21.5709    8.3110   53.5069 C   0  0  0  0  0  0  0  0  0  0  0  0
   21.6114    9.6939   53.5776 C   0  0  0  0  0  0  0  0  0  0  0  0
   22.6057   10.3523   54.2876 C   0  0  0  0  0  0  0  0  0  0  0  0
   22.5817   11.8236   54.3397 C   0  0  0  0  0  0  0  0  0  0  0  0
   26.7733   10.0360   56.8703 C   0  0  0  0  0  0  0  0  0  0  0  0
   25.6966    9.5058   56.1346 C   0  0  0  0  0  0  0  0  0  0  0  0
   24.6226   10.2292   55.6985 C   0  0  0  0  0  0  0  0  0  0  0  0
   24.5929   11.5743   56.0007 C   0  0  0  0  0  0  0  0  0  0  0  0
   25.6264   12.1306   56.7182 C   0  0  0  0  0  0  0  0  0  0  0  0
   26.7085   11.3821   57.1534 C   0  0  0  0  0  0  0  0  0  0  0  0
   27.7215   12.0919   57.8957 C   0  0  0  0  0  0  0  0  0  0  0  0
   28.5126   12.6734   58.5010 N   0  0  0  0  0  0  0  0  0  0  0  0
   27.7620    9.2642   57.2467 O   0  0  0  0  0  0  0  0  0  0  0  0
   28.1299    7.7370   59.0813 C   0  0  0  0  0  0  0  0  0  0  0  0
   28.6389    8.8301   58.1279 C   0  0  0  0  0  0  0  0  0  0  0  0
   28.9980   10.0026   59.0805 C   0  0  0  0  0  0  0  0  0  0  0  0
 24 25  1  0  0  0
 25 26  1  0  0  0
 25 23  1  0  0  0
 23 15  1  0  0  0
 15 16  2  0  0  0
 16 17  1  0  0  0
 17 18  2  0  0  0
 18 19  1  0  0  0
 19 20  2  0  0  0
 20 21  1  0  0  0
 21 22  3  0  0  0
 17  1  1  0  0  0
  1  2  2  0  0  0
  2  3  1  0  0  0
  3  4  1  0  0  0
  4  5  1  0  0  0
  4  6  1  0  0  0
  6  7  2  0  0  0
  6  8  1  0  0  0
  8  9  1  0  0  0
  9 10  1  0  0  0
  9 11  1  0  0  0
 11 12  1  0  0  0
 12 13  2  0  0  0
 13 14  1  0  0  0
 20 15  1  0  0  0
 13  1  1  0  0  0
 11  3  2  0  0  0
M  END
> <minimizedAffinity>
35.32752

> <CNNscore>
0.5011947155

> <CNNaffinity>
5.8009743690

> <CNN_VS>
2.9074177742

> <CNNaffinity_variance>
0.7131741643

$$$$
[H]c1c([H])c(-c2nc3c(c([H])c2C([H])([H])[H])C([H])(C([H])([H])[H])C([H])([H])C(=O)N3C([H])([H])[H])c([H])c(OC([H])(C([H])([H])[H])C([H])([H])[H])c1C#N


 26 28  0  0  0  0  0  0  0  0999 V2000
   23.3995    7.2848   53.8851 C   0  0  0  0  0  0  0  0  0  0  0  0
   22.4843    7.9884   53.2047 N   0  0  0  0  0  0  0  0  0  0  0  0
   21.2902    7.4480   52.8697 C   0  0  0  0  0  0  0  0  0  0  0  0
   20.3679    8.2600   52.1454 N   0  0  0  0  0  0  0  0  0  0  0  0
   20.7360    9.6201   51.7957 C   0  0  0  0  0  0  0  0  0  0  0  0
   19.1216    7.6915   51.7977 C   0  0  0  0  0  0  0  0  0  0  0  0
   18.4451    8.1928   50.8777 O   0  0  0  0  0  0  0  0  0  0  0  0
   18.6294    6.5124   52.5224 C   0  0  0  0  0  0  0  0  0  0  0  0
   19.6780    5.5142   52.8740 C   0  0  0  0  0  0  0  0  0  0  0  0
   19.2040    4.7268   54.0941 C   0  0  0  0  0  0  0  0  0  0  0  0
   20.9736    6.1521   53.2176 C   0  0  0  0  0  0  0  0  0  0  0  0
   21.9324    5.4408   53.9203 C   0  0  0  0  0  0  0  0  0  0  0  0
   23.1529    6.0101   54.2559 C   0  0  0  0  0  0  0  0  0  0  0  0
   24.1367    5.1945   54.9871 C   0  0  0  0  0  0  0  0  0  0  0  0
   26.2260    8.9134   55.8201 C   0  0  0  0  0  0  0  0  0  0  0  0
   25.0178    8.2857   55.4622 C   0  0  0  0  0  0  0  0  0  0  0  0
   24.6616    7.9574   54.1845 C   0  0  0  0  0  0  0  0  0  0  0  0
   25.5499    8.2628   53.1750 C   0  0  0  0  0  0  0  0  0  0  0  0
   26.7416    8.8767   53.4837 C   0  0  0  0  0  0  0  0  0  0  0  0
   27.0873    9.2032   54.7855 C   0  0  0  0  0  0  0  0  0  0  0  0
   28.3669    9.8439   54.9671 C   0  0  0  0  0  0  0  0  0  0  0  0
   29.3789   10.3733   55.1289 N   0  0  0  0  0  0  0  0  0  0  0  0
   26.4821    9.1905   57.0740 O   0  0  0  0  0  0  0  0  0  0  0  0
   28.0027   10.9633   57.6889 C   0  0  0  0  0  0  0  0  0  0  0  0
   27.2414    9.6736   58.0352 C   0  0  0  0  0  0  0  0  0  0  0  0
   28.3740    8.6517   58.3256 C   0  0  0  0  0  0  0  0  0  0  0  0
 24 25  1  0  0  0
 25 26  1  0  0  0
 25 23  1  0  0  0
 23 15  1  0  0  0
 15 16  2  0  0  0
 16 17  1  0  0  0
 17 18  2  0  0  0
 18 19  1  0  0  0
 19 20  2  0  0  0
 20 21  1  0  0  0
 21 22  3  0  0  0
 17  1  1  0  0  0
  1  2  2  0  0  0
  2  3  1  0  0  0
  3  4  1  0  0  0
  4  5  1  0  0  0
  4  6  1  0  0  0
  6  7  2  0  0  0
  6  8  1  0  0  0
  8  9  1  0  0  0
  9 10  1  0  0  0
  9 11  1  0  0  0
 11 12  1  0  0  0
 12 13  2  0  0  0
 13 14  1  0  0  0
 20 15  1  0  0  0
 13  1  1  0  0  0
 11  3  2  0  0  0
M  END
> <minimizedAffinity>
27.37311

> <CNNscore>
0.5003671050

> <CNNaffinity>
5.9063310623

> <CNN_VS>
2.9553337097

> <CNNaffinity_variance>
0.4321607947

$$$$
[H]c1c([H])c(-c2nc3c(c([H])c2C([H])([H])[H])C([H])(C([H])([H])[H])C([H])([H])C(=O)N3C([H])([H])[H])c([H])c(OC([H])(C([H])([H])[H])C([H])([H])[H])c1C#N


 26 28  0  0  0  0  0  0  0  0999 V2000
   24.5107    7.9245   53.8081 C   0  0  0  0  0  0  0  0  0  0  0  0
   24.8707    8.8638   54.6934 N   0  0  0  0  0  0  0  0  0  0  0  0
   26.1030    8.8666   55.2518 C   0  0  0  0  0  0  0  0  0  0  0  0
   26.4119    9.8994   56.1857 N   0  0  0  0  0  0  0  0  0  0  0  0
   25.4081   10.8992   56.5025 C   0  0  0  0  0  0  0  0  0  0  0  0
   27.7004    9.8986   56.7664 C   0  0  0  0  0  0  0  0  0  0  0  0
   27.9041   10.5217   57.8274 O   0  0  0  0  0  0  0  0  0  0  0  0
   28.7936    9.1634   56.1167 C   0  0  0  0  0  0  0  0  0  0  0  0
   28.3962    7.8607   55.5128 C   0  0  0  0  0  0  0  0  0  0  0  0
   29.3784    7.5301   54.3906 C   0  0  0  0  0  0  0  0  0  0  0  0
   27.0322    7.9009   54.9284 C   0  0  0  0  0  0  0  0  0  0  0  0
   26.6415    6.9385   54.0118 C   0  0  0  0  0  0  0  0  0  0  0  0
   25.3731    6.9498   53.4484 C   0  0  0  0  0  0  0  0  0  0  0  0
   25.0132    5.8874   52.4946 C   0  0  0  0  0  0  0  0  0  0  0  0
   21.3838    9.2804   52.1439 C   0  0  0  0  0  0  0  0  0  0  0  0
   22.6721    9.1445   52.6950 C   0  0  0  0  0  0  0  0  0  0  0  0
   23.1525    8.0045   53.2753 C   0  0  0  0  0  0  0  0  0  0  0  0
   22.3150    6.9101   53.3235 C   0  0  0  0  0  0  0  0  0  0  0  0
   21.0479    7.0027   52.7959 C   0  0  0  0  0  0  0  0  0  0  0  0
   20.5761    8.1671   52.2109 C   0  0  0  0  0  0  0  0  0  0  0  0
   19.2286    8.1259   51.6977 C   0  0  0  0  0  0  0  0  0  0  0  0
   18.1590    8.0761   51.2689 N   0  0  0  0  0  0  0  0  0  0  0  0
   21.0096   10.4147   51.6072 O   0  0  0  0  0  0  0  0  0  0  0  0
   21.8413   12.4050   50.5207 C   0  0  0  0  0  0  0  0  0  0  0  0
   20.9465   11.7295   51.5724 C   0  0  0  0  0  0  0  0  0  0  0  0
   21.4896   12.2820   52.9182 C   0  0  0  0  0  0  0  0  0  0  0  0
 24 25  1  0  0  0
 25 26  1  0  0  0
 25 23  1  0  0  0
 23 15  1  0  0  0
 15 16  2  0  0  0
 16 17  1  0  0  0
 17 18  2  0  0  0
 18 19  1  0  0  0
 19 20  2  0  0  0
 20 21  1  0  0  0
 21 22  3  0  0  0
 17  1  1  0  0  0
  1  2  2  0  0  0
  2  3  1  0  0  0
  3  4  1  0  0  0
  4  5  1  0  0  0
  4  6  1  0  0  0
  6  7  2  0  0  0
  6  8  1  0  0  0
  8  9  1  0  0  0
  9 10  1  0  0  0
  9 11  1  0  0  0
 11 12  1  0  0  0
 12 13  2  0  0  0
 13 14  1  0  0  0
 20 15  1  0  0  0
 13  1  1  0  0  0
 11  3  2  0  0  0
M  END
> <minimizedAffinity>
30.83580

> <CNNscore>
0.4994494021

> <CNNaffinity>
5.7519621849

> <CNN_VS>
2.8728141785

> <CNNaffinity_variance>
0.3803991377

$$$$
[H]c1c([H])c(-c2nc3c(c([H])c2C([H])([H])[H])C([H])(C([H])([H])[H])C([H])([H])C(=O)N3C([H])([H])[H])c([H])c(OC([H])(C([H])([H])[H])C([H])([H])[H])c1C#N


 26 28  0  0  0  0  0  0  0  0999 V2000
   23.5378    8.8783   54.8748 C   0  0  0  0  0  0  0  0  0  0  0  0
   23.2774    7.5757   54.6983 N   0  0  0  0  0  0  0  0  0  0  0  0
   22.1881    7.1648   54.0093 C   0  0  0  0  0  0  0  0  0  0  0  0
   21.9787    5.7614   53.8637 N   0  0  0  0  0  0  0  0  0  0  0  0
   22.9276    4.8332   54.4517 C   0  0  0  0  0  0  0  0  0  0  0  0
   20.8397    5.3366   53.1430 C   0  0  0  0  0  0  0  0  0  0  0  0
   20.4076    4.1761   53.2915 O   0  0  0  0  0  0  0  0  0  0  0  0
   20.1702    6.2648   52.2222 C   0  0  0  0  0  0  0  0  0  0  0  0
   20.0985    7.6740   52.7004 C   0  0  0  0  0  0  0  0  0  0  0  0
   19.9872    8.5908   51.4836 C   0  0  0  0  0  0  0  0  0  0  0  0
   21.3068    8.0741   53.4643 C   0  0  0  0  0  0  0  0  0  0  0  0
   21.5927    9.4158   53.6576 C   0  0  0  0  0  0  0  0  0  0  0  0
   22.7146    9.8206   54.3673 C   0  0  0  0  0  0  0  0  0  0  0  0
   22.9518   11.2617   54.5537 C   0  0  0  0  0  0  0  0  0  0  0  0
   27.1668    9.0953   55.9558 C   0  0  0  0  0  0  0  0  0  0  0  0
   25.9756    8.7889   55.2710 C   0  0  0  0  0  0  0  0  0  0  0  0
   24.7325    9.2148   55.6458 C   0  0  0  0  0  0  0  0  0  0  0  0
   24.6398   10.0010   56.7748 C   0  0  0  0  0  0  0  0  0  0  0  0
   25.7811   10.3226   57.4722 C   0  0  0  0  0  0  0  0  0  0  0  0
   27.0347    9.8818   57.0784 C   0  0  0  0  0  0  0  0  0  0  0  0
   28.1461   10.2932   57.9008 C   0  0  0  0  0  0  0  0  0  0  0  0
   29.0185   10.6375   58.5722 N   0  0  0  0  0  0  0  0  0  0  0  0
   28.3158    8.6413   55.5215 O   0  0  0  0  0  0  0  0  0  0  0  0
   29.3787    9.5461   53.5505 C   0  0  0  0  0  0  0  0  0  0  0  0
   29.2033    8.4142   54.5757 C   0  0  0  0  0  0  0  0  0  0  0  0
   28.7081    7.2201   53.7153 C   0  0  0  0  0  0  0  0  0  0  0  0
 24 25  1  0  0  0
 25 26  1  0  0  0
 25 23  1  0  0  0
 23 15  1  0  0  0
 15 16  2  0  0  0
 16 17  1  0  0  0
 17 18  2  0  0  0
 18 19  1  0  0  0
 19 20  2  0  0  0
 20 21  1  0  0  0
 21 22  3  0  0  0
 17  1  1  0  0  0
  1  2  2  0  0  0
  2  3  1  0  0  0
  3  4  1  0  0  0
  4  5  1  0  0  0
  4  6  1  0  0  0
  6  7  2  0  0  0
  6  8  1  0  0  0
  8  9  1  0  0  0
  9 10  1  0  0  0
  9 11  1  0  0  0
 11 12  1  0  0  0
 12 13  2  0  0  0
 13 14  1  0  0  0
 20 15  1  0  0  0
 13  1  1  0  0  0
 11  3  2  0  0  0
M  END
> <minimizedAffinity>
30.26060

> <CNNscore>
0.4876265824

> <CNNaffinity>
6.0874485970

> <CNN_VS>
2.9684016705

> <CNNaffinity_variance>
0.6252514720

$$$$
[H]O[C@@]1([H])C([H])([H])C([H])([H])N(C([H])([H])c2c([H])c([H])c3c(-c4c([H])nn(C([H])([H])[H])c4[H])c([H])c(C(=O)N([H])[H])nc3c2[H])C([H])([H])[C@@]1([H])C([H])([H])[H]


 31 34  0  0  0  0  0  0  0  0999 V2000
   23.1201    9.6226   55.2894 C   0  0  0  0  0  0  0  0  0  0  0  0
   23.6178   10.0760   56.4767 C   0  0  0  0  0  0  0  0  0  0  0  0
   24.9726    9.9354   56.8153 C   0  0  0  0  0  0  0  0  0  0  0  0
   25.8224    9.3226   55.9251 C   0  0  0  0  0  0  0  0  0  0  0  0
   27.1601    9.1630   56.1973 C   0  0  0  0  0  0  0  0  0  0  0  0
   27.9847    8.5356   55.2382 C   0  0  0  0  0  0  0  0  0  0  0  0
   27.4824    8.0912   54.0651 C   0  0  0  0  0  0  0  0  0  0  0  0
   26.1763    8.2538   53.8170 N   0  0  0  0  0  0  0  0  0  0  0  0
   25.3513    8.8438   54.6949 C   0  0  0  0  0  0  0  0  0  0  0  0
   24.0168    9.0152   54.4307 C   0  0  0  0  0  0  0  0  0  0  0  0
   27.7486    9.5875   57.4568 C   0  0  0  0  0  0  0  0  0  0  0  0
   28.1257    8.8423   58.5390 C   0  0  0  0  0  0  0  0  0  0  0  0
   28.6162    9.6936   59.4541 N   0  0  0  0  0  0  0  0  0  0  0  0
   28.5799   10.9360   59.0330 N   0  0  0  0  0  0  0  0  0  0  0  0
   29.0237   12.1415   59.7429 C   0  0  0  0  0  0  0  0  0  0  0  0
   28.0457   10.8969   57.7959 C   0  0  0  0  0  0  0  0  0  0  0  0
   28.3663    7.4417   53.0859 C   0  0  0  0  0  0  0  0  0  0  0  0
   29.1666    6.3552   53.4873 N   0  0  0  0  0  0  0  0  0  0  0  0
   28.3837    7.8767   51.9100 O   0  0  0  0  0  0  0  0  0  0  0  0
   28.7333    5.4343   53.6622 H   0  0  0  0  0  0  0  0  0  0  0  0
   30.1843    6.4848   53.6050 H   0  0  0  0  0  0  0  0  0  0  0  0
   21.7269    9.7184   54.8484 C   0  0  0  0  0  0  0  0  0  0  0  0
   21.2037    5.2825   53.7199 C   0  0  0  0  0  0  0  0  0  0  0  0
   22.2022    6.3188   54.2256 C   0  0  0  0  0  0  0  0  0  0  0  0
   21.5273    7.3212   55.1159 C   0  0  0  0  0  0  0  0  0  0  0  0
   21.0970    8.5046   54.4721 N   0  0  0  0  0  0  0  0  0  0  0  0
   20.7618    8.3943   53.0946 C   0  0  0  0  0  0  0  0  0  0  0  0
   21.7877    7.6963   52.2584 C   0  0  0  0  0  0  0  0  0  0  0  0
   22.8552    7.0211   53.0790 C   0  0  0  0  0  0  0  0  0  0  0  0
   23.4944    6.0838   52.2373 O   0  0  0  0  0  0  0  0  0  0  0  0
   23.9227    6.5587   51.4816 H   0  0  0  0  0  0  0  0  0  0  0  0
 23 24  1  0  0  0
 24 25  1  0  0  0
 25 26  1  0  0  0
 26 22  1  0  0  0
 22  1  1  0  0  0
  1  2  2  0  0  0
  2  3  1  0  0  0
  3  4  2  0  0  0
  4  5  1  0  0  0
  5  6  2  0  0  0
  6  7  1  0  0  0
  7  8  2  0  0  0
  8  9  1  0  0  0
  9 10  2  0  0  0
  7 17  1  0  0  0
 17 18  1  0  0  0
 17 19  2  0  0  0
  5 11  1  0  0  0
 11 12  1  0  0  0
 12 13  2  0  0  0
 13 14  1  0  0  0
 14 15  1  0  0  0
 14 16  1  0  0  0
 26 27  1  0  0  0
 27 28  1  0  0  0
 28 29  1  0  0  0
 29 30  1  0  0  0
 29 24  1  0  0  0
 10  1  1  0  0  0
 16 11  2  0  0  0
  9  4  1  0  0  0
 18 20  1  0  0  0
 18 21  1  0  0  0
 30 31  1  0  0  0
M  END
> <minimizedAffinity>
20.42931

> <CNNscore>
0.6819155812

> <CNNaffinity>
6.3949213028

> <CNN_VS>
4.3607964516

> <CNNaffinity_variance>
0.7168136239

$$$$
[H]O[C@@]1([H])C([H])([H])C([H])([H])N(C([H])([H])c2c([H])c([H])c3c(-c4c([H])nn(C([H])([H])[H])c4[H])c([H])c(C(=O)N([H])[H])nc3c2[H])C([H])([H])[C@@]1([H])C([H])([H])[H]


 31 34  0  0  0  0  0  0  0  0999 V2000
   23.7769    6.8509   54.0492 C   0  0  0  0  0  0  0  0  0  0  0  0
   24.1509    7.0646   55.3443 C   0  0  0  0  0  0  0  0  0  0  0  0
   25.3041    7.7941   55.6726 C   0  0  0  0  0  0  0  0  0  0  0  0
   26.0793    8.3077   54.6600 C   0  0  0  0  0  0  0  0  0  0  0  0
   27.2152    9.0368   54.9193 C   0  0  0  0  0  0  0  0  0  0  0  0
   27.9637    9.5478   53.8367 C   0  0  0  0  0  0  0  0  0  0  0  0
   27.5842    9.3317   52.5579 C   0  0  0  0  0  0  0  0  0  0  0  0
   26.4754    8.6179   52.3235 N   0  0  0  0  0  0  0  0  0  0  0  0
   25.7296    8.1114   53.3169 C   0  0  0  0  0  0  0  0  0  0  0  0
   24.5904    7.3892   53.0701 C   0  0  0  0  0  0  0  0  0  0  0  0
   27.6920    9.2697   56.2725 C   0  0  0  0  0  0  0  0  0  0  0  0
   27.9654    8.3735   57.2679 C   0  0  0  0  0  0  0  0  0  0  0  0
   28.3786    9.0790   58.3329 N   0  0  0  0  0  0  0  0  0  0  0  0
   28.3892   10.3684   58.0892 N   0  0  0  0  0  0  0  0  0  0  0  0
   28.7768   11.4541   58.9977 C   0  0  0  0  0  0  0  0  0  0  0  0
   27.9673   10.5129   56.8171 C   0  0  0  0  0  0  0  0  0  0  0  0
   28.3845    9.8768   51.4515 C   0  0  0  0  0  0  0  0  0  0  0  0
   28.1656    9.4104   50.1414 N   0  0  0  0  0  0  0  0  0  0  0  0
   29.2477   10.7498   51.7068 O   0  0  0  0  0  0  0  0  0  0  0  0
   27.3162    9.6971   49.6286 H   0  0  0  0  0  0  0  0  0  0  0  0
   28.8563    8.7831   49.6991 H   0  0  0  0  0  0  0  0  0  0  0  0
   22.5983    6.1025   53.6070 C   0  0  0  0  0  0  0  0  0  0  0  0
   20.4411    9.6525   51.6150 C   0  0  0  0  0  0  0  0  0  0  0  0
   21.7647    9.1918   52.2168 C   0  0  0  0  0  0  0  0  0  0  0  0
   22.0078    7.7397   51.9250 C   0  0  0  0  0  0  0  0  0  0  0  0
   21.5917    6.8443   52.9375 N   0  0  0  0  0  0  0  0  0  0  0  0
   20.5027    7.2637   53.7501 C   0  0  0  0  0  0  0  0  0  0  0  0
   20.6380    8.6455   54.3076 C   0  0  0  0  0  0  0  0  0  0  0  0
   21.7762    9.4185   53.6944 C   0  0  0  0  0  0  0  0  0  0  0  0
   21.5498   10.7839   53.9768 O   0  0  0  0  0  0  0  0  0  0  0  0
   21.5587   10.9230   54.9569 H   0  0  0  0  0  0  0  0  0  0  0  0
 23 24  1  0  0  0
 24 25  1  0  0  0
 25 26  1  0  0  0
 26 22  1  0  0  0
 22  1  1  0  0  0
  1  2  2  0  0  0
  2  3  1  0  0  0
  3  4  2  0  0  0
  4  5  1  0  0  0
  5  6  2  0  0  0
  6  7  1  0  0  0
  7  8  2  0  0  0
  8  9  1  0  0  0
  9 10  2  0  0  0
  7 17  1  0  0  0
 17 18  1  0  0  0
 17 19  2  0  0  0
  5 11  1  0  0  0
 11 12  1  0  0  0
 12 13  2  0  0  0
 13 14  1  0  0  0
 14 15  1  0  0  0
 14 16  1  0  0  0
 26 27  1  0  0  0
 27 28  1  0  0  0
 28 29  1  0  0  0
 29 30  1  0  0  0
 29 24  1  0  0  0
 10  1  1  0  0  0
 16 11  2  0  0  0
  9  4  1  0  0  0
 18 20  1  0  0  0
 18 21  1  0  0  0
 30 31  1  0  0  0
M  END
> <minimizedAffinity>
21.45348

> <CNNscore>
0.6584797502

> <CNNaffinity>
6.1657514572

> <CNN_VS>
4.0600223541

> <CNNaffinity_variance>
0.8111933470

$$$$
[H]O[C@@]1([H])C([H])([H])C([H])([H])N(C([H])([H])c2c([H])c([H])c3c(-c4c([H])nn(C([H])([H])[H])c4[H])c([H])c(C(=O)N([H])[H])nc3c2[H])C([H])([H])[C@@]1([H])C([H])([H])[H]


 31 34  0  0  0  0  0  0  0  0999 V2000
   23.0809    8.8700   55.7535 C   0  0  0  0  0  0  0  0  0  0  0  0
   23.5787    9.4363   56.8912 C   0  0  0  0  0  0  0  0  0  0  0  0
   24.9582    9.5805   57.1058 C   0  0  0  0  0  0  0  0  0  0  0  0
   25.8330    9.1379   56.1421 C   0  0  0  0  0  0  0  0  0  0  0  0
   27.1938    9.2589   56.2921 C   0  0  0  0  0  0  0  0  0  0  0  0
   28.0409    8.7955   55.2620 C   0  0  0  0  0  0  0  0  0  0  0  0
   27.5380    8.2373   54.1387 C   0  0  0  0  0  0  0  0  0  0  0  0
   26.2095    8.1261   54.0098 N   0  0  0  0  0  0  0  0  0  0  0  0
   25.3625    8.5513   54.9592 C   0  0  0  0  0  0  0  0  0  0  0  0
   24.0031    8.4427   54.8168 C   0  0  0  0  0  0  0  0  0  0  0  0
   27.7924    9.8166   57.4935 C   0  0  0  0  0  0  0  0  0  0  0  0
   28.3332    9.1800   58.5756 C   0  0  0  0  0  0  0  0  0  0  0  0
   28.7553   10.1311   59.4241 N   0  0  0  0  0  0  0  0  0  0  0  0
   28.5222   11.3364   58.9604 N   0  0  0  0  0  0  0  0  0  0  0  0
   28.8367   12.6223   59.5942 C   0  0  0  0  0  0  0  0  0  0  0  0
   27.9253   11.1685   57.7634 C   0  0  0  0  0  0  0  0  0  0  0  0
   28.4457    7.7641   53.0832 C   0  0  0  0  0  0  0  0  0  0  0  0
   29.3723    6.7440   53.3710 N   0  0  0  0  0  0  0  0  0  0  0  0
   28.3695    8.2863   51.9457 O   0  0  0  0  0  0  0  0  0  0  0  0
   29.0465    5.7707   53.4857 H   0  0  0  0  0  0  0  0  0  0  0  0
   30.3744    6.9744   53.4661 H   0  0  0  0  0  0  0  0  0  0  0  0
   21.6641    8.6723   55.4403 C   0  0  0  0  0  0  0  0  0  0  0  0
   21.5713    7.3206   51.0370 C   0  0  0  0  0  0  0  0  0  0  0  0
   22.1774    8.3302   52.0065 C   0  0  0  0  0  0  0  0  0  0  0  0
   22.4118    7.7057   53.3511 C   0  0  0  0  0  0  0  0  0  0  0  0
   21.3723    7.8933   54.2915 N   0  0  0  0  0  0  0  0  0  0  0  0
   20.0599    8.0501   53.7670 C   0  0  0  0  0  0  0  0  0  0  0  0
   19.9460    9.0558   52.6651 C   0  0  0  0  0  0  0  0  0  0  0  0
   21.2838    9.5198   52.1514 C   0  0  0  0  0  0  0  0  0  0  0  0
   21.0601   10.1143   50.8897 O   0  0  0  0  0  0  0  0  0  0  0  0
   20.4673   10.8999   50.9967 H   0  0  0  0  0  0  0  0  0  0  0  0
 23 24  1  0  0  0
 24 25  1  0  0  0
 25 26  1  0  0  0
 26 22  1  0  0  0
 22  1  1  0  0  0
  1  2  2  0  0  0
  2  3  1  0  0  0
  3  4  2  0  0  0
  4  5  1  0  0  0
  5  6  2  0  0  0
  6  7  1  0  0  0
  7  8  2  0  0  0
  8  9  1  0  0  0
  9 10  2  0  0  0
  7 17  1  0  0  0
 17 18  1  0  0  0
 17 19  2  0  0  0
  5 11  1  0  0  0
 11 12  1  0  0  0
 12 13  2  0  0  0
 13 14  1  0  0  0
 14 15  1  0  0  0
 14 16  1  0  0  0
 26 27  1  0  0  0
 27 28  1  0  0  0
 28 29  1  0  0  0
 29 30  1  0  0  0
 29 24  1  0  0  0
 10  1  1  0  0  0
 16 11  2  0  0  0
  9  4  1  0  0  0
 18 20  1  0  0  0
 18 21  1  0  0  0
 30 31  1  0  0  0
M  END
> <minimizedAffinity>
27.16358

> <CNNscore>
0.5652410984

> <CNNaffinity>
5.9331927299

> <CNN_VS>
3.3536844254

> <CNNaffinity_variance>
1.3289884329

$$$$
[H]O[C@@]1([H])C([H])([H])C([H])([H])N(C([H])([H])c2c([H])c([H])c3c(-c4c([H])nn(C([H])([H])[H])c4[H])c([H])c(C(=O)N([H])[H])nc3c2[H])C([H])([H])[C@@]1([H])C([H])([H])[H]


 31 34  0  0  0  0  0  0  0  0999 V2000
   25.9634    8.1448   53.9694 C   0  0  0  0  0  0  0  0  0  0  0  0
   25.4528    6.9226   53.6401 C   0  0  0  0  0  0  0  0  0  0  0  0
   24.0751    6.6581   53.6835 C   0  0  0  0  0  0  0  0  0  0  0  0
   23.2155    7.6592   54.0694 C   0  0  0  0  0  0  0  0  0  0  0  0
   21.8564    7.4625   54.1237 C   0  0  0  0  0  0  0  0  0  0  0  0
   21.0240    8.5330   54.5168 C   0  0  0  0  0  0  0  0  0  0  0  0
   21.5393    9.7398   54.8397 C   0  0  0  0  0  0  0  0  0  0  0  0
   22.8662    9.9134   54.7825 N   0  0  0  0  0  0  0  0  0  0  0  0
   23.6994    8.9285   54.4147 C   0  0  0  0  0  0  0  0  0  0  0  0
   25.0562    9.1158   54.3495 C   0  0  0  0  0  0  0  0  0  0  0  0
   21.2489    6.1765   53.8236 C   0  0  0  0  0  0  0  0  0  0  0  0
   21.8330    5.0080   53.4209 C   0  0  0  0  0  0  0  0  0  0  0  0
   20.8506    4.1047   53.2739 N   0  0  0  0  0  0  0  0  0  0  0  0
   19.6742    4.6138   53.5550 N   0  0  0  0  0  0  0  0  0  0  0  0
   18.3688    3.9441   53.5121 C   0  0  0  0  0  0  0  0  0  0  0  0
   19.8943    5.8985   53.8991 C   0  0  0  0  0  0  0  0  0  0  0  0
   20.6468   10.8355   55.2454 C   0  0  0  0  0  0  0  0  0  0  0  0
   19.7824   10.6563   56.3420 N   0  0  0  0  0  0  0  0  0  0  0  0
   20.6799   11.9091   54.5983 O   0  0  0  0  0  0  0  0  0  0  0  0
   20.1634   10.6513   57.3018 H   0  0  0  0  0  0  0  0  0  0  0  0
   18.7701   10.5305   56.1808 H   0  0  0  0  0  0  0  0  0  0  0  0
   27.3801    8.5157   53.9595 C   0  0  0  0  0  0  0  0  0  0  0  0
   28.4619    9.1072   58.3985 C   0  0  0  0  0  0  0  0  0  0  0  0
   27.4070    9.3960   57.3353 C   0  0  0  0  0  0  0  0  0  0  0  0
   27.3006    8.2561   56.3646 C   0  0  0  0  0  0  0  0  0  0  0  0
   28.0756    8.3918   55.1895 N   0  0  0  0  0  0  0  0  0  0  0  0
   29.2648    9.1639   55.2967 C   0  0  0  0  0  0  0  0  0  0  0  0
   29.0846   10.4967   55.9522 C   0  0  0  0  0  0  0  0  0  0  0  0
   27.7343   10.6559   56.6004 C   0  0  0  0  0  0  0  0  0  0  0  0
   27.8342   11.7339   57.5076 O   0  0  0  0  0  0  0  0  0  0  0  0
   28.0516   12.5625   57.0113 H   0  0  0  0  0  0  0  0  0  0  0  0
 23 24  1  0  0  0
 24 25  1  0  0  0
 25 26  1  0  0  0
 26 22  1  0  0  0
 22  1  1  0  0  0
  1  2  2  0  0  0
  2  3  1  0  0  0
  3  4  2  0  0  0
  4  5  1  0  0  0
  5  6  2  0  0  0
  6  7  1  0  0  0
  7  8  2  0  0  0
  8  9  1  0  0  0
  9 10  2  0  0  0
  7 17  1  0  0  0
 17 18  1  0  0  0
 17 19  2  0  0  0
  5 11  1  0  0  0
 11 12  1  0  0  0
 12 13  2  0  0  0
 13 14  1  0  0  0
 14 15  1  0  0  0
 14 16  1  0  0  0
 26 27  1  0  0  0
 27 28  1  0  0  0
 28 29  1  0  0  0
 29 30  1  0  0  0
 29 24  1  0  0  0
 10  1  1  0  0  0
 16 11  2  0  0  0
  9  4  1  0  0  0
 18 20  1  0  0  0
 18 21  1  0  0  0
 30 31  1  0  0  0
M  END
> <minimizedAffinity>
26.45948

> <CNNscore>
0.5560012460

> <CNNaffinity>
6.2294874191

> <CNN_VS>
3.4636027813

> <CNNaffinity_variance>
1.0406811237

$$$$
[H]O[C@@]1([H])C([H])([H])C([H])([H])N(C([H])([H])c2c([H])c([H])c3c(-c4c([H])nn(C([H])([H])[H])c4[H])c([H])c(C(=O)N([H])[H])nc3c2[H])C([H])([H])[C@@]1([H])C([H])([H])[H]


 31 34  0  0  0  0  0  0  0  0999 V2000
   23.0732    9.2316   55.2627 C   0  0  0  0  0  0  0  0  0  0  0  0
   23.6056    8.5373   54.2151 C   0  0  0  0  0  0  0  0  0  0  0  0
   24.9819    8.2794   54.1190 C   0  0  0  0  0  0  0  0  0  0  0  0
   25.8175    8.7400   55.1089 C   0  0  0  0  0  0  0  0  0  0  0  0
   27.1724    8.5119   55.0737 C   0  0  0  0  0  0  0  0  0  0  0  0
   27.9773    9.0007   56.1257 C   0  0  0  0  0  0  0  0  0  0  0  0
   27.4401    9.6859   57.1592 C   0  0  0  0  0  0  0  0  0  0  0  0
   26.1182    9.9003   57.1765 N   0  0  0  0  0  0  0  0  0  0  0  0
   25.3105    9.4563   56.2018 C   0  0  0  0  0  0  0  0  0  0  0  0
   23.9566    9.6713   56.2304 C   0  0  0  0  0  0  0  0  0  0  0  0
   27.8103    7.8137   53.9700 C   0  0  0  0  0  0  0  0  0  0  0  0
   28.1071    8.2574   52.7115 C   0  0  0  0  0  0  0  0  0  0  0  0
   28.6936    7.2396   52.0612 N   0  0  0  0  0  0  0  0  0  0  0  0
   28.7939    6.1715   52.8169 N   0  0  0  0  0  0  0  0  0  0  0  0
   29.3725    4.8694   52.4646 C   0  0  0  0  0  0  0  0  0  0  0  0
   28.2530    6.5020   54.0065 C   0  0  0  0  0  0  0  0  0  0  0  0
   28.3043   10.1825   58.2402 C   0  0  0  0  0  0  0  0  0  0  0  0
   28.7282    9.2989   59.2508 N   0  0  0  0  0  0  0  0  0  0  0  0
   28.6431   11.3898   58.2328 O   0  0  0  0  0  0  0  0  0  0  0  0
   29.4473    8.5873   59.0435 H   0  0  0  0  0  0  0  0  0  0  0  0
   28.3173    9.3667   60.1958 H   0  0  0  0  0  0  0  0  0  0  0  0
   21.6569    9.5537   55.4495 C   0  0  0  0  0  0  0  0  0  0  0  0
   19.6352    7.5568   51.8232 C   0  0  0  0  0  0  0  0  0  0  0  0
   20.5640    7.3135   53.0084 C   0  0  0  0  0  0  0  0  0  0  0  0
   20.1488    8.1395   54.1910 C   0  0  0  0  0  0  0  0  0  0  0  0
   20.8141    9.3805   54.3218 N   0  0  0  0  0  0  0  0  0  0  0  0
   21.2729    9.9868   53.1202 C   0  0  0  0  0  0  0  0  0  0  0  0
   22.0503    9.0774   52.2217 C   0  0  0  0  0  0  0  0  0  0  0  0
   21.9775    7.6326   52.6413 C   0  0  0  0  0  0  0  0  0  0  0  0
   22.3760    6.8573   51.5297 O   0  0  0  0  0  0  0  0  0  0  0  0
   23.3124    7.0765   51.2946 H   0  0  0  0  0  0  0  0  0  0  0  0
 23 24  1  0  0  0
 24 25  1  0  0  0
 25 26  1  0  0  0
 26 22  1  0  0  0
 22  1  1  0  0  0
  1  2  2  0  0  0
  2  3  1  0  0  0
  3  4  2  0  0  0
  4  5  1  0  0  0
  5  6  2  0  0  0
  6  7  1  0  0  0
  7  8  2  0  0  0
  8  9  1  0  0  0
  9 10  2  0  0  0
  7 17  1  0  0  0
 17 18  1  0  0  0
 17 19  2  0  0  0
  5 11  1  0  0  0
 11 12  1  0  0  0
 12 13  2  0  0  0
 13 14  1  0  0  0
 14 15  1  0  0  0
 14 16  1  0  0  0
 26 27  1  0  0  0
 27 28  1  0  0  0
 28 29  1  0  0  0
 29 30  1  0  0  0
 29 24  1  0  0  0
 10  1  1  0  0  0
 16 11  2  0  0  0
  9  4  1  0  0  0
 18 20  1  0  0  0
 18 21  1  0  0  0
 30 31  1  0  0  0
M  END
> <minimizedAffinity>
26.78493

> <CNNscore>
0.4911164939

> <CNNaffinity>
6.1247339249

> <CNN_VS>
3.0079579353

> <CNNaffinity_variance>
1.0736515522

$$$$
[H]O[C@@]1([H])C([H])([H])C([H])([H])N(C([H])([H])c2c([H])c([H])c3c(-c4c([H])nn(C([H])([H])[H])c4[H])c([H])c(C(=O)N([H])[H])nc3c2[H])C([H])([H])[C@@]1([H])C([H])([H])[H]


 31 34  0  0  0  0  0  0  0  0999 V2000
   23.8086    7.0007   54.1007 C   0  0  0  0  0  0  0  0  0  0  0  0
   24.3268    7.3234   52.8799 C   0  0  0  0  0  0  0  0  0  0  0  0
   25.5132    8.0619   52.7493 C   0  0  0  0  0  0  0  0  0  0  0  0
   26.1718    8.4721   53.8842 C   0  0  0  0  0  0  0  0  0  0  0  0
   27.3415    9.1909   53.8199 C   0  0  0  0  0  0  0  0  0  0  0  0
   27.9774    9.5741   55.0209 C   0  0  0  0  0  0  0  0  0  0  0  0
   27.4569    9.2484   56.2247 C   0  0  0  0  0  0  0  0  0  0  0  0
   26.3156    8.5488   56.2687 N   0  0  0  0  0  0  0  0  0  0  0  0
   25.6734    8.1607   55.1567 C   0  0  0  0  0  0  0  0  0  0  0  0
   24.5101    7.4366   55.2088 C   0  0  0  0  0  0  0  0  0  0  0  0
   27.9280    9.6012   52.5549 C   0  0  0  0  0  0  0  0  0  0  0  0
   28.9225   10.5056   52.3065 C   0  0  0  0  0  0  0  0  0  0  0  0
   29.1088   10.5337   50.9771 N   0  0  0  0  0  0  0  0  0  0  0  0
   28.3011    9.7081   50.3541 N   0  0  0  0  0  0  0  0  0  0  0  0
   28.2048    9.4588   48.9109 C   0  0  0  0  0  0  0  0  0  0  0  0
   27.5580    9.1172   51.3112 C   0  0  0  0  0  0  0  0  0  0  0  0
   28.1423    9.6617   57.4581 C   0  0  0  0  0  0  0  0  0  0  0  0
   28.4013    8.7081   58.4607 N   0  0  0  0  0  0  0  0  0  0  0  0
   28.4805   10.8625   57.5846 O   0  0  0  0  0  0  0  0  0  0  0  0
   29.1427    8.0029   58.3206 H   0  0  0  0  0  0  0  0  0  0  0  0
   27.8479    8.7184   59.3325 H   0  0  0  0  0  0  0  0  0  0  0  0
   22.5798    6.2407   54.3394 C   0  0  0  0  0  0  0  0  0  0  0  0
   19.8794    8.5553   51.4111 C   0  0  0  0  0  0  0  0  0  0  0  0
   21.3251    8.1900   51.7322 C   0  0  0  0  0  0  0  0  0  0  0  0
   21.4130    6.8009   52.2942 C   0  0  0  0  0  0  0  0  0  0  0  0
   21.4051    6.7211   53.7061 N   0  0  0  0  0  0  0  0  0  0  0  0
   20.7208    7.7576   54.3985 C   0  0  0  0  0  0  0  0  0  0  0  0
   21.0832    9.1422   53.9625 C   0  0  0  0  0  0  0  0  0  0  0  0
   21.9092    9.1651   52.7030 C   0  0  0  0  0  0  0  0  0  0  0  0
   21.8316   10.4750   52.1800 O   0  0  0  0  0  0  0  0  0  0  0  0
   22.2201   11.1124   52.8303 H   0  0  0  0  0  0  0  0  0  0  0  0
 23 24  1  0  0  0
 24 25  1  0  0  0
 25 26  1  0  0  0
 26 22  1  0  0  0
 22  1  1  0  0  0
  1  2  2  0  0  0
  2  3  1  0  0  0
  3  4  2  0  0  0
  4  5  1  0  0  0
  5  6  2  0  0  0
  6  7  1  0  0  0
  7  8  2  0  0  0
  8  9  1  0  0  0
  9 10  2  0  0  0
  7 17  1  0  0  0
 17 18  1  0  0  0
 17 19  2  0  0  0
  5 11  1  0  0  0
 11 12  1  0  0  0
 12 13  2  0  0  0
 13 14  1  0  0  0
 14 15  1  0  0  0
 14 16  1  0  0  0
 26 27  1  0  0  0
 27 28  1  0  0  0
 28 29  1  0  0  0
 29 30  1  0  0  0
 29 24  1  0  0  0
 10  1  1  0  0  0
 16 11  2  0  0  0
  9  4  1  0  0  0
 18 20  1  0  0  0
 18 21  1  0  0  0
 30 31  1  0  0  0
M  END
> <minimizedAffinity>
21.52770

> <CNNscore>
0.4848672152

> <CNNaffinity>
6.1524376869

> <CNN_VS>
2.9831154346

> <CNNaffinity_variance>
0.8314940333

$$$$
[H]O[C@@]1([H])C([H])([H])C([H])([H])N(C([H])([H])c2c([H])c([H])c3c(-c4c([H])nn(C([H])([H])[H])c4[H])c([H])c(C(=O)N([H])[H])nc3c2[H])C([H])([H])[C@@]1([H])C([H])([H])[H]


 31 34  0  0  0  0  0  0  0  0999 V2000
   24.2799    9.9904   56.0991 C   0  0  0  0  0  0  0  0  0  0  0  0
   24.0438   11.1138   55.3607 C   0  0  0  0  0  0  0  0  0  0  0  0
   23.1848   11.1049   54.2508 C   0  0  0  0  0  0  0  0  0  0  0  0
   22.5638    9.9304   53.8973 C   0  0  0  0  0  0  0  0  0  0  0  0
   21.7061    9.8615   52.8256 C   0  0  0  0  0  0  0  0  0  0  0  0
   21.0898    8.6288   52.5191 C   0  0  0  0  0  0  0  0  0  0  0  0
   21.3292    7.5226   53.2573 C   0  0  0  0  0  0  0  0  0  0  0  0
   22.1687    7.6075   54.2974 N   0  0  0  0  0  0  0  0  0  0  0  0
   22.7788    8.7550   54.6300 C   0  0  0  0  0  0  0  0  0  0  0  0
   23.6302    8.8371   55.7017 C   0  0  0  0  0  0  0  0  0  0  0  0
   21.4395   11.0089   51.9741 C   0  0  0  0  0  0  0  0  0  0  0  0
   21.0677   11.0525   50.6593 C   0  0  0  0  0  0  0  0  0  0  0  0
   20.9436   12.3471   50.3259 N   0  0  0  0  0  0  0  0  0  0  0  0
   21.2105   13.1389   51.3378 N   0  0  0  0  0  0  0  0  0  0  0  0
   21.1842   14.6061   51.3654 C   0  0  0  0  0  0  0  0  0  0  0  0
   21.5210   12.3327   52.3726 C   0  0  0  0  0  0  0  0  0  0  0  0
   20.6722    6.2529   52.9133 C   0  0  0  0  0  0  0  0  0  0  0  0
   20.8000    5.1492   53.7777 N   0  0  0  0  0  0  0  0  0  0  0  0
   20.0102    6.1870   51.8504 O   0  0  0  0  0  0  0  0  0  0  0  0
   20.2883    5.1364   54.6747 H   0  0  0  0  0  0  0  0  0  0  0  0
   21.4056    4.3567   53.5102 H   0  0  0  0  0  0  0  0  0  0  0  0
   25.1589    9.8982   57.2668 C   0  0  0  0  0  0  0  0  0  0  0  0
   29.3694    8.2563   58.1616 C   0  0  0  0  0  0  0  0  0  0  0  0
   28.1278    8.8804   58.7905 C   0  0  0  0  0  0  0  0  0  0  0  0
   26.8834    8.4141   58.0925 C   0  0  0  0  0  0  0  0  0  0  0  0
   26.4131    9.2667   57.0668 N   0  0  0  0  0  0  0  0  0  0  0  0
   27.3893   10.0515   56.3937 C   0  0  0  0  0  0  0  0  0  0  0  0
   28.3199   10.7970   57.2975 C   0  0  0  0  0  0  0  0  0  0  0  0
   28.2069   10.3722   58.7382 C   0  0  0  0  0  0  0  0  0  0  0  0
   29.3750   10.8187   59.3951 O   0  0  0  0  0  0  0  0  0  0  0  0
   29.4180   11.8069   59.3542 H   0  0  0  0  0  0  0  0  0  0  0  0
 23 24  1  0  0  0
 24 25  1  0  0  0
 25 26  1  0  0  0
 26 22  1  0  0  0
 22  1  1  0  0  0
  1  2  2  0  0  0
  2  3  1  0  0  0
  3  4  2  0  0  0
  4  5  1  0  0  0
  5  6  2  0  0  0
  6  7  1  0  0  0
  7  8  2  0  0  0
  8  9  1  0  0  0
  9 10  2  0  0  0
  7 17  1  0  0  0
 17 18  1  0  0  0
 17 19  2  0  0  0
  5 11  1  0  0  0
 11 12  1  0  0  0
 12 13  2  0  0  0
 13 14  1  0  0  0
 14 15  1  0  0  0
 14 16  1  0  0  0
 26 27  1  0  0  0
 27 28  1  0  0  0
 28 29  1  0  0  0
 29 30  1  0  0  0
 29 24  1  0  0  0
 10  1  1  0  0  0
 16 11  2  0  0  0
  9  4  1  0  0  0
 18 20  1  0  0  0
 18 21  1  0  0  0
 30 31  1  0  0  0
M  END
> <minimizedAffinity>
36.75372

> <CNNscore>
0.4441464245

> <CNNaffinity>
5.9523124695

> <CNN_VS>
2.6436982155

> <CNNaffinity_variance>
1.0048701763

$$$$
[H]O[C@@]1([H])C([H])([H])C([H])([H])N(C([H])([H])c2c([H])c([H])c3c(-c4c([H])nn(C([H])([H])[H])c4[H])c([H])c(C(=O)N([H])[H])nc3c2[H])C([H])([H])[C@@]1([H])C([H])([H])[H]


 31 34  0  0  0  0  0  0  0  0999 V2000
   20.7466    5.6769   53.3833 C   0  0  0  0  0  0  0  0  0  0  0  0
   22.0052    5.4285   53.8494 C   0  0  0  0  0  0  0  0  0  0  0  0
   22.9727    6.4404   53.9485 C   0  0  0  0  0  0  0  0  0  0  0  0
   22.6427    7.7186   53.5643 C   0  0  0  0  0  0  0  0  0  0  0  0
   23.5449    8.7522   53.6456 C   0  0  0  0  0  0  0  0  0  0  0  0
   23.1432   10.0456   53.2464 C   0  0  0  0  0  0  0  0  0  0  0  0
   21.8942   10.2814   52.7875 C   0  0  0  0  0  0  0  0  0  0  0  0
   21.0285    9.2621   52.7136 N   0  0  0  0  0  0  0  0  0  0  0  0
   21.3610    8.0155   53.0810 C   0  0  0  0  0  0  0  0  0  0  0  0
   20.4669    6.9783   53.0114 C   0  0  0  0  0  0  0  0  0  0  0  0
   24.9121    8.5512   54.0961 C   0  0  0  0  0  0  0  0  0  0  0  0
   25.9404    7.8822   53.4930 C   0  0  0  0  0  0  0  0  0  0  0  0
   27.0055    7.9790   54.3047 N   0  0  0  0  0  0  0  0  0  0  0  0
   26.7313    8.6653   55.3891 N   0  0  0  0  0  0  0  0  0  0  0  0
   27.6296    8.9843   56.5051 C   0  0  0  0  0  0  0  0  0  0  0  0
   25.4383    9.0317   55.2837 C   0  0  0  0  0  0  0  0  0  0  0  0
   21.5053   11.6393   52.3792 C   0  0  0  0  0  0  0  0  0  0  0  0
   21.5717   12.0009   51.0203 N   0  0  0  0  0  0  0  0  0  0  0  0
   21.1218   12.4454   53.2599 O   0  0  0  0  0  0  0  0  0  0  0  0
   20.8724   11.6331   50.3554 H   0  0  0  0  0  0  0  0  0  0  0  0
   22.3205   12.6332   50.6947 H   0  0  0  0  0  0  0  0  0  0  0  0
   19.6730    4.6913   53.2394 C   0  0  0  0  0  0  0  0  0  0  0  0
   16.1938    3.2782   55.9082 C   0  0  0  0  0  0  0  0  0  0  0  0
   17.2312    2.8222   54.8872 C   0  0  0  0  0  0  0  0  0  0  0  0
   18.5143    3.5833   55.0526 C   0  0  0  0  0  0  0  0  0  0  0  0
   18.6511    4.7201   54.2226 N   0  0  0  0  0  0  0  0  0  0  0  0
   17.4491    5.3719   53.8323 C   0  0  0  0  0  0  0  0  0  0  0  0
   16.3951    4.4600   53.2880 C   0  0  0  0  0  0  0  0  0  0  0  0
   16.7130    3.0025   53.4967 C   0  0  0  0  0  0  0  0  0  0  0  0
   15.5061    2.2872   53.3329 O   0  0  0  0  0  0  0  0  0  0  0  0
   15.1714    2.4137   52.4099 H   0  0  0  0  0  0  0  0  0  0  0  0
 23 24  1  0  0  0
 24 25  1  0  0  0
 25 26  1  0  0  0
 26 22  1  0  0  0
 22  1  1  0  0  0
  1  2  2  0  0  0
  2  3  1  0  0  0
  3  4  2  0  0  0
  4  5  1  0  0  0
  5  6  2  0  0  0
  6  7  1  0  0  0
  7  8  2  0  0  0
  8  9  1  0  0  0
  9 10  2  0  0  0
  7 17  1  0  0  0
 17 18  1  0  0  0
 17 19  2  0  0  0
  5 11  1  0  0  0
 11 12  1  0  0  0
 12 13  2  0  0  0
 13 14  1  0  0  0
 14 15  1  0  0  0
 14 16  1  0  0  0
 26 27  1  0  0  0
 27 28  1  0  0  0
 28 29  1  0  0  0
 29 30  1  0  0  0
 29 24  1  0  0  0
 10  1  1  0  0  0
 16 11  2  0  0  0
  9  4  1  0  0  0
 18 20  1  0  0  0
 18 21  1  0  0  0
 30 31  1  0  0  0
M  END
> <minimizedAffinity>
27.73620

> <CNNscore>
0.4231985211

> <CNNaffinity>
6.2507677078

> <CNN_VS>
2.6453156471

> <CNNaffinity_variance>
0.7170605063

$$$$
[H]O[C@@]1([H])C([H])([H])C([H])([H])N(C([H])([H])c2c([H])c([H])c3c(-c4c([H])nn(C([H])([H])[H])c4[H])c([H])c(C(=O)N([H])[H])nc3c2[H])C([H])([H])[C@@]1([H])C([H])([H])[H]


 31 34  0  0  0  0  0  0  0  0999 V2000
   24.9439    6.8695   54.3201 C   0  0  0  0  0  0  0  0  0  0  0  0
   24.1802    5.7696   54.5846 C   0  0  0  0  0  0  0  0  0  0  0  0
   22.8451    5.6745   54.1624 C   0  0  0  0  0  0  0  0  0  0  0  0
   22.2908    6.7200   53.4626 C   0  0  0  0  0  0  0  0  0  0  0  0
   20.9914    6.6815   53.0164 C   0  0  0  0  0  0  0  0  0  0  0  0
   20.4823    7.7819   52.2930 C   0  0  0  0  0  0  0  0  0  0  0  0
   21.2470    8.8658   52.0351 C   0  0  0  0  0  0  0  0  0  0  0  0
   22.5106    8.8869   52.4786 N   0  0  0  0  0  0  0  0  0  0  0  0
   23.0413    7.8670   53.1697 C   0  0  0  0  0  0  0  0  0  0  0  0
   24.3387    7.8912   53.6129 C   0  0  0  0  0  0  0  0  0  0  0  0
   20.1113    5.5590   53.2955 C   0  0  0  0  0  0  0  0  0  0  0  0
   20.3571    4.2166   53.2171 C   0  0  0  0  0  0  0  0  0  0  0  0
   19.2274    3.5858   53.5756 N   0  0  0  0  0  0  0  0  0  0  0  0
   18.2718    4.4323   53.8793 N   0  0  0  0  0  0  0  0  0  0  0  0
   16.9031    4.1285   54.3138 C   0  0  0  0  0  0  0  0  0  0  0  0
   18.7951    5.6635   53.7135 C   0  0  0  0  0  0  0  0  0  0  0  0
   20.6885    9.9965   51.2791 C   0  0  0  0  0  0  0  0  0  0  0  0
   21.2679   11.2727   51.4104 N   0  0  0  0  0  0  0  0  0  0  0  0
   19.7028    9.7917   50.5315 O   0  0  0  0  0  0  0  0  0  0  0  0
   22.1820   11.4701   50.9722 H   0  0  0  0  0  0  0  0  0  0  0  0
   20.7753   12.0062   51.9450 H   0  0  0  0  0  0  0  0  0  0  0  0
   26.3392    7.0639   54.7201 C   0  0  0  0  0  0  0  0  0  0  0  0
   28.9705   10.7464   55.5802 C   0  0  0  0  0  0  0  0  0  0  0  0
   28.8157    9.2513   55.8397 C   0  0  0  0  0  0  0  0  0  0  0  0
   28.2423    8.5570   54.6388 C   0  0  0  0  0  0  0  0  0  0  0  0
   26.8381    8.3899   54.6534 N   0  0  0  0  0  0  0  0  0  0  0  0
   26.0891    9.3591   55.3756 C   0  0  0  0  0  0  0  0  0  0  0  0
   26.5905    9.6289   56.7592 C   0  0  0  0  0  0  0  0  0  0  0  0
   27.9389    9.0131   57.0268 C   0  0  0  0  0  0  0  0  0  0  0  0
   28.4734    9.6623   58.1619 O   0  0  0  0  0  0  0  0  0  0  0  0
   27.8855    9.4989   58.9415 H   0  0  0  0  0  0  0  0  0  0  0  0
 23 24  1  0  0  0
 24 25  1  0  0  0
 25 26  1  0  0  0
 26 22  1  0  0  0
 22  1  1  0  0  0
  1  2  2  0  0  0
  2  3  1  0  0  0
  3  4  2  0  0  0
  4  5  1  0  0  0
  5  6  2  0  0  0
  6  7  1  0  0  0
  7  8  2  0  0  0
  8  9  1  0  0  0
  9 10  2  0  0  0
  7 17  1  0  0  0
 17 18  1  0  0  0
 17 19  2  0  0  0
  5 11  1  0  0  0
 11 12  1  0  0  0
 12 13  2  0  0  0
 13 14  1  0  0  0
 14 15  1  0  0  0
 14 16  1  0  0  0
 26 27  1  0  0  0
 27 28  1  0  0  0
 28 29  1  0  0  0
 29 30  1  0  0  0
 29 24  1  0  0  0
 10  1  1  0  0  0
 16 11  2  0  0  0
  9  4  1  0  0  0
 18 20  1  0  0  0
 18 21  1  0  0  0
 30 31  1  0  0  0
M  END
> <minimizedAffinity>
21.73192

> <CNNscore>
0.3956723213

> <CNNaffinity>
6.3037662506

> <CNN_VS>
2.4942257404

> <CNNaffinity_variance>
0.7003589869

$$$$
[H]c1nc(Oc2c([H])c([H])c([H])c([H])c2[H])c([H])c([H])c1N1C([H])([H])C([H])([H])N(c2c([H])c([H])c([H])c(C#N)c2[H])[C@]([H])(C([H])([H])[H])C1([H])[H]


 28 31  0  0  0  0  0  0  0  0999 V2000
   19.6334    6.4353   52.1352 C   0  0  0  0  0  0  0  0  0  0  0  0
   20.2727    6.4824   53.5340 C   0  0  0  0  0  0  0  0  0  0  0  0
   21.6005    7.1363   53.4529 C   0  0  0  0  0  0  0  0  0  0  0  0
   22.6208    6.5894   54.2975 N   0  0  0  0  0  0  0  0  0  0  0  0
   22.4725    5.3424   55.0181 C   0  0  0  0  0  0  0  0  0  0  0  0
   21.4489    4.4523   54.3433 C   0  0  0  0  0  0  0  0  0  0  0  0
   20.2253    5.1558   54.0421 N   0  0  0  0  0  0  0  0  0  0  0  0
   18.9925    4.5195   54.2625 C   0  0  0  0  0  0  0  0  0  0  0  0
   18.8059    3.6725   55.3582 C   0  0  0  0  0  0  0  0  0  0  0  0
   17.6166    3.0333   55.6246 C   0  0  0  0  0  0  0  0  0  0  0  0
   16.5440    3.2076   54.8053 C   0  0  0  0  0  0  0  0  0  0  0  0
   16.6661    4.0320   53.7071 C   0  0  0  0  0  0  0  0  0  0  0  0
   17.8829    4.6742   53.4513 C   0  0  0  0  0  0  0  0  0  0  0  0
   15.5422    4.2134   52.8500 C   0  0  0  0  0  0  0  0  0  0  0  0
   14.6229    4.3714   52.1576 N   0  0  0  0  0  0  0  0  0  0  0  0
   23.8387    7.3097   54.4272 C   0  0  0  0  0  0  0  0  0  0  0  0
   24.5559    7.7820   53.3377 C   0  0  0  0  0  0  0  0  0  0  0  0
   25.7273    8.4766   53.5603 C   0  0  0  0  0  0  0  0  0  0  0  0
   26.2341    8.7328   54.8130 C   0  0  0  0  0  0  0  0  0  0  0  0
   25.5271    8.2685   55.8565 N   0  0  0  0  0  0  0  0  0  0  0  0
   24.3703    7.5814   55.6671 C   0  0  0  0  0  0  0  0  0  0  0  0
   27.4157    9.4338   55.0298 O   0  0  0  0  0  0  0  0  0  0  0  0
   27.8577    9.7371   56.2929 C   0  0  0  0  0  0  0  0  0  0  0  0
   27.7650   11.0573   56.7061 C   0  0  0  0  0  0  0  0  0  0  0  0
   28.1938   11.4214   57.9656 C   0  0  0  0  0  0  0  0  0  0  0  0
   28.7100   10.4159   58.7743 C   0  0  0  0  0  0  0  0  0  0  0  0
   28.7980    9.1063   58.3545 C   0  0  0  0  0  0  0  0  0  0  0  0
   28.3643    8.7491   57.0862 C   0  0  0  0  0  0  0  0  0  0  0  0
  1  2  1  0  0  0
  2  3  1  0  0  0
  3  4  1  0  0  0
  4  5  1  0  0  0
  5  6  1  0  0  0
  6  7  1  0  0  0
  7  8  1  0  0  0
  8  9  2  0  0  0
  9 10  1  0  0  0
 10 11  2  0  0  0
 11 12  1  0  0  0
 12 13  2  0  0  0
 12 14  1  0  0  0
 14 15  3  0  0  0
  4 16  1  0  0  0
 16 17  2  0  0  0
 17 18  1  0  0  0
 18 19  2  0  0  0
 19 22  1  0  0  0
 22 23  1  0  0  0
 23 24  2  0  0  0
 24 25  1  0  0  0
 25 26  2  0  0  0
 26 27  1  0  0  0
 27 28  2  0  0  0
 19 20  1  0  0  0
 20 21  2  0  0  0
  7  2  1  0  0  0
 13  8  1  0  0  0
 21 16  1  0  0  0
 28 23  1  0  0  0
M  END
> <minimizedAffinity>
41.02169

> <CNNscore>
0.4670927227

> <CNNaffinity>
5.8971290588

> <CNN_VS>
2.7545061111

> <CNNaffinity_variance>
0.7554584146

$$$$
[H]c1nc(Oc2c([H])c([H])c([H])c([H])c2[H])c([H])c([H])c1N1C([H])([H])C([H])([H])N(c2c([H])c([H])c([H])c(C#N)c2[H])[C@]([H])(C([H])([H])[H])C1([H])[H]


 28 31  0  0  0  0  0  0  0  0999 V2000
   26.3233    8.4488   52.6010 C   0  0  0  0  0  0  0  0  0  0  0  0
   25.5996    7.7205   53.7471 C   0  0  0  0  0  0  0  0  0  0  0  0
   24.2825    7.2323   53.2735 C   0  0  0  0  0  0  0  0  0  0  0  0
   23.2095    7.3061   54.2204 N   0  0  0  0  0  0  0  0  0  0  0  0
   23.3070    8.0157   55.4787 C   0  0  0  0  0  0  0  0  0  0  0  0
   24.3656    9.0970   55.4031 C   0  0  0  0  0  0  0  0  0  0  0  0
   25.6089    8.6086   54.8568 N   0  0  0  0  0  0  0  0  0  0  0  0
   26.8227    9.0141   55.4361 C   0  0  0  0  0  0  0  0  0  0  0  0
   27.9660    9.2007   54.6544 C   0  0  0  0  0  0  0  0  0  0  0  0
   29.1756    9.6060   55.1705 C   0  0  0  0  0  0  0  0  0  0  0  0
   29.3081    9.8479   56.5032 C   0  0  0  0  0  0  0  0  0  0  0  0
   28.2150    9.6813   57.3267 C   0  0  0  0  0  0  0  0  0  0  0  0
   26.9924    9.2686   56.7850 C   0  0  0  0  0  0  0  0  0  0  0  0
   28.3552    9.9349   58.7220 C   0  0  0  0  0  0  0  0  0  0  0  0
   28.4782   10.1497   59.8569 N   0  0  0  0  0  0  0  0  0  0  0  0
   21.9896    6.6513   53.9011 C   0  0  0  0  0  0  0  0  0  0  0  0
   20.8398    7.3350   53.5336 C   0  0  0  0  0  0  0  0  0  0  0  0
   19.7013    6.6143   53.2360 C   0  0  0  0  0  0  0  0  0  0  0  0
   19.6358    5.2412   53.2820 C   0  0  0  0  0  0  0  0  0  0  0  0
   20.7579    4.5952   53.6396 N   0  0  0  0  0  0  0  0  0  0  0  0
   21.8934    5.2790   53.9381 C   0  0  0  0  0  0  0  0  0  0  0  0
   18.4845    4.5214   52.9807 O   0  0  0  0  0  0  0  0  0  0  0  0
   17.6065    4.1166   53.9544 C   0  0  0  0  0  0  0  0  0  0  0  0
   18.1395    3.6495   55.1461 C   0  0  0  0  0  0  0  0  0  0  0  0
   17.3054    3.2290   56.1610 C   0  0  0  0  0  0  0  0  0  0  0  0
   15.9374    3.2988   55.9267 C   0  0  0  0  0  0  0  0  0  0  0  0
   15.4172    3.7647   54.7387 C   0  0  0  0  0  0  0  0  0  0  0  0
   16.2634    4.1856   53.7233 C   0  0  0  0  0  0  0  0  0  0  0  0
  1  2  1  0  0  0
  2  3  1  0  0  0
  3  4  1  0  0  0
  4  5  1  0  0  0
  5  6  1  0  0  0
  6  7  1  0  0  0
  7  8  1  0  0  0
  8  9  2  0  0  0
  9 10  1  0  0  0
 10 11  2  0  0  0
 11 12  1  0  0  0
 12 13  2  0  0  0
 12 14  1  0  0  0
 14 15  3  0  0  0
  4 16  1  0  0  0
 16 17  2  0  0  0
 17 18  1  0  0  0
 18 19  2  0  0  0
 19 22  1  0  0  0
 22 23  1  0  0  0
 23 24  2  0  0  0
 24 25  1  0  0  0
 25 26  2  0  0  0
 26 27  1  0  0  0
 27 28  2  0  0  0
 19 20  1  0  0  0
 20 21  2  0  0  0
  7  2  1  0  0  0
 13  8  1  0  0  0
 21 16  1  0  0  0
 28 23  1  0  0  0
M  END
> <minimizedAffinity>
28.87452

> <CNNscore>
0.4659956992

> <CNNaffinity>
5.9045367241

> <CNN_VS>
2.7514886856

> <CNNaffinity_variance>
0.2548216879

$$$$
[H]c1nc(Oc2c([H])c([H])c([H])c([H])c2[H])c([H])c([H])c1N1C([H])([H])C([H])([H])N(c2c([H])c([H])c([H])c(C#N)c2[H])[C@]([H])(C([H])([H])[H])C1([H])[H]


 28 31  0  0  0  0  0  0  0  0999 V2000
   20.5326    7.8474   53.1468 C   0  0  0  0  0  0  0  0  0  0  0  0
   21.4815    7.1511   54.1381 C   0  0  0  0  0  0  0  0  0  0  0  0
   22.6384    8.0329   54.4229 C   0  0  0  0  0  0  0  0  0  0  0  0
   23.9034    7.3772   54.5754 N   0  0  0  0  0  0  0  0  0  0  0  0
   24.1205    5.9830   54.2504 C   0  0  0  0  0  0  0  0  0  0  0  0
   23.1043    5.5057   53.2331 C   0  0  0  0  0  0  0  0  0  0  0  0
   21.7548    5.8655   53.5969 N   0  0  0  0  0  0  0  0  0  0  0  0
   20.7205    4.9323   53.4172 C   0  0  0  0  0  0  0  0  0  0  0  0
   20.9407    3.7391   52.7237 C   0  0  0  0  0  0  0  0  0  0  0  0
   19.9653    2.7881   52.5284 C   0  0  0  0  0  0  0  0  0  0  0  0
   18.7103    2.9800   53.0186 C   0  0  0  0  0  0  0  0  0  0  0  0
   18.4311    4.1383   53.7122 C   0  0  0  0  0  0  0  0  0  0  0  0
   19.4351    5.0947   53.9015 C   0  0  0  0  0  0  0  0  0  0  0  0
   17.1166    4.3379   54.2248 C   0  0  0  0  0  0  0  0  0  0  0  0
   16.0441    4.5111   54.6362 N   0  0  0  0  0  0  0  0  0  0  0  0
   24.9970    8.1397   55.0669 C   0  0  0  0  0  0  0  0  0  0  0  0
   26.2990    7.9662   54.6205 C   0  0  0  0  0  0  0  0  0  0  0  0
   27.2975    8.7566   55.1522 C   0  0  0  0  0  0  0  0  0  0  0  0
   27.0778    9.7187   56.1103 C   0  0  0  0  0  0  0  0  0  0  0  0
   25.8116    9.8733   56.5310 N   0  0  0  0  0  0  0  0  0  0  0  0
   24.8085    9.1091   56.0252 C   0  0  0  0  0  0  0  0  0  0  0  0
   28.0894   10.5118   56.6416 O   0  0  0  0  0  0  0  0  0  0  0  0
   28.4724   10.4148   57.9557 C   0  0  0  0  0  0  0  0  0  0  0  0
   28.5355    9.1475   58.5146 C   0  0  0  0  0  0  0  0  0  0  0  0
   28.9142    8.9886   59.8314 C   0  0  0  0  0  0  0  0  0  0  0  0
   29.2206   10.1404   60.5460 C   0  0  0  0  0  0  0  0  0  0  0  0
   29.1549   11.3959   59.9815 C   0  0  0  0  0  0  0  0  0  0  0  0
   28.7730   11.5465   58.6565 C   0  0  0  0  0  0  0  0  0  0  0  0
  1  2  1  0  0  0
  2  3  1  0  0  0
  3  4  1  0  0  0
  4  5  1  0  0  0
  5  6  1  0  0  0
  6  7  1  0  0  0
  7  8  1  0  0  0
  8  9  2  0  0  0
  9 10  1  0  0  0
 10 11  2  0  0  0
 11 12  1  0  0  0
 12 13  2  0  0  0
 12 14  1  0  0  0
 14 15  3  0  0  0
  4 16  1  0  0  0
 16 17  2  0  0  0
 17 18  1  0  0  0
 18 19  2  0  0  0
 19 22  1  0  0  0
 22 23  1  0  0  0
 23 24  2  0  0  0
 24 25  1  0  0  0
 25 26  2  0  0  0
 26 27  1  0  0  0
 27 28  2  0  0  0
 19 20  1  0  0  0
 20 21  2  0  0  0
  7  2  1  0  0  0
 13  8  1  0  0  0
 21 16  1  0  0  0
 28 23  1  0  0  0
M  END
> <minimizedAffinity>
19.08249

> <CNNscore>
0.4417722225

> <CNNaffinity>
5.9506559372

> <CNN_VS>
2.6288344860

> <CNNaffinity_variance>
0.2627016306

$$$$
[H]c1nc(Oc2c([H])c([H])c([H])c([H])c2[H])c([H])c([H])c1N1C([H])([H])C([H])([H])N(c2c([H])c([H])c([H])c(C#N)c2[H])[C@]([H])(C([H])([H])[H])C1([H])[H]


 28 31  0  0  0  0  0  0  0  0999 V2000
   17.7004    6.9993   52.9351 C   0  0  0  0  0  0  0  0  0  0  0  0
   18.7697    6.3810   53.8528 C   0  0  0  0  0  0  0  0  0  0  0  0
   20.0945    6.9670   53.5388 C   0  0  0  0  0  0  0  0  0  0  0  0
   21.2087    6.0684   53.6054 N   0  0  0  0  0  0  0  0  0  0  0  0
   21.0662    4.6335   53.7360 C   0  0  0  0  0  0  0  0  0  0  0  0
   19.7191    4.1792   53.2120 C   0  0  0  0  0  0  0  0  0  0  0  0
   18.6324    4.9711   53.7363 N   0  0  0  0  0  0  0  0  0  0  0  0
   17.4454    4.3342   54.1347 C   0  0  0  0  0  0  0  0  0  0  0  0
   16.4990    3.9222   53.1926 C   0  0  0  0  0  0  0  0  0  0  0  0
   15.3260    3.2861   53.5291 C   0  0  0  0  0  0  0  0  0  0  0  0
   15.0344    3.0263   54.8328 C   0  0  0  0  0  0  0  0  0  0  0  0
   15.9294    3.4089   55.8092 C   0  0  0  0  0  0  0  0  0  0  0  0
   17.1176    4.0547   55.4491 C   0  0  0  0  0  0  0  0  0  0  0  0
   15.6227    3.1364   57.1739 C   0  0  0  0  0  0  0  0  0  0  0  0
   15.3630    2.9076   58.2827 N   0  0  0  0  0  0  0  0  0  0  0  0
   22.5169    6.6188   53.5352 C   0  0  0  0  0  0  0  0  0  0  0  0
   23.6430    5.9485   53.9902 C   0  0  0  0  0  0  0  0  0  0  0  0
   24.8748    6.5599   53.8765 C   0  0  0  0  0  0  0  0  0  0  0  0
   25.0569    7.8100   53.3325 C   0  0  0  0  0  0  0  0  0  0  0  0
   23.9561    8.4448   52.8970 N   0  0  0  0  0  0  0  0  0  0  0  0
   22.7304    7.8668   52.9963 C   0  0  0  0  0  0  0  0  0  0  0  0
   26.3018    8.4202   53.2211 O   0  0  0  0  0  0  0  0  0  0  0  0
   27.0568    8.7339   54.3231 C   0  0  0  0  0  0  0  0  0  0  0  0
   26.3894    8.9476   55.5195 C   0  0  0  0  0  0  0  0  0  0  0  0
   27.0962    9.2661   56.6604 C   0  0  0  0  0  0  0  0  0  0  0  0
   28.4780    9.3578   56.5447 C   0  0  0  0  0  0  0  0  0  0  0  0
   29.1323    9.1436   55.3510 C   0  0  0  0  0  0  0  0  0  0  0  0
   28.4136    8.8237   54.2085 C   0  0  0  0  0  0  0  0  0  0  0  0
  1  2  1  0  0  0
  2  3  1  0  0  0
  3  4  1  0  0  0
  4  5  1  0  0  0
  5  6  1  0  0  0
  6  7  1  0  0  0
  7  8  1  0  0  0
  8  9  2  0  0  0
  9 10  1  0  0  0
 10 11  2  0  0  0
 11 12  1  0  0  0
 12 13  2  0  0  0
 12 14  1  0  0  0
 14 15  3  0  0  0
  4 16  1  0  0  0
 16 17  2  0  0  0
 17 18  1  0  0  0
 18 19  2  0  0  0
 19 22  1  0  0  0
 22 23  1  0  0  0
 23 24  2  0  0  0
 24 25  1  0  0  0
 25 26  2  0  0  0
 26 27  1  0  0  0
 27 28  2  0  0  0
 19 20  1  0  0  0
 20 21  2  0  0  0
  7  2  1  0  0  0
 13  8  1  0  0  0
 21 16  1  0  0  0
 28 23  1  0  0  0
M  END
> <minimizedAffinity>
34.00526

> <CNNscore>
0.4357435405

> <CNNaffinity>
5.8629312515

> <CNN_VS>
2.5547344685

> <CNNaffinity_variance>
0.7798192501

$$$$
[H]c1nc(Oc2c([H])c([H])c([H])c([H])c2[H])c([H])c([H])c1N1C([H])([H])C([H])([H])N(c2c([H])c([H])c([H])c(C#N)c2[H])[C@]([H])(C([H])([H])[H])C1([H])[H]


 28 31  0  0  0  0  0  0  0  0999 V2000
   28.6490    9.1527   55.2788 C   0  0  0  0  0  0  0  0  0  0  0  0
   27.3731    8.7199   56.0221 C   0  0  0  0  0  0  0  0  0  0  0  0
   26.3279    8.3449   55.0402 C   0  0  0  0  0  0  0  0  0  0  0  0
   24.9858    8.7122   55.3828 N   0  0  0  0  0  0  0  0  0  0  0  0
   24.6592    9.5929   56.4846 C   0  0  0  0  0  0  0  0  0  0  0  0
   25.8305   10.4955   56.8142 C   0  0  0  0  0  0  0  0  0  0  0  0
   27.0681    9.7634   56.9377 N   0  0  0  0  0  0  0  0  0  0  0  0
   27.9605   10.0881   57.9728 C   0  0  0  0  0  0  0  0  0  0  0  0
   28.7650    9.1092   58.5625 C   0  0  0  0  0  0  0  0  0  0  0  0
   29.6616    9.3762   59.5718 C   0  0  0  0  0  0  0  0  0  0  0  0
   29.8029   10.6430   60.0486 C   0  0  0  0  0  0  0  0  0  0  0  0
   29.0363   11.6527   59.5068 C   0  0  0  0  0  0  0  0  0  0  0  0
   28.1295   11.3634   58.4808 C   0  0  0  0  0  0  0  0  0  0  0  0
   29.1852   12.9787   60.0071 C   0  0  0  0  0  0  0  0  0  0  0  0
   29.3186   14.0589   60.4128 N   0  0  0  0  0  0  0  0  0  0  0  0
   23.9267    8.1858   54.5953 C   0  0  0  0  0  0  0  0  0  0  0  0
   24.1240    7.2379   53.6018 C   0  0  0  0  0  0  0  0  0  0  0  0
   23.0339    6.7800   52.8904 C   0  0  0  0  0  0  0  0  0  0  0  0
   21.7463    7.2117   53.1090 C   0  0  0  0  0  0  0  0  0  0  0  0
   21.5733    8.1294   54.0744 N   0  0  0  0  0  0  0  0  0  0  0  0
   22.6284    8.5981   54.7908 C   0  0  0  0  0  0  0  0  0  0  0  0
   20.6522    6.7456   52.3878 O   0  0  0  0  0  0  0  0  0  0  0  0
   19.7521    5.8610   52.9265 C   0  0  0  0  0  0  0  0  0  0  0  0
   20.1377    4.5329   53.0262 C   0  0  0  0  0  0  0  0  0  0  0  0
   19.2744    3.5984   53.5594 C   0  0  0  0  0  0  0  0  0  0  0  0
   18.0300    4.0526   53.9795 C   0  0  0  0  0  0  0  0  0  0  0  0
   17.6560    5.3749   53.8762 C   0  0  0  0  0  0  0  0  0  0  0  0
   18.5304    6.3079   53.3387 C   0  0  0  0  0  0  0  0  0  0  0  0
  1  2  1  0  0  0
  2  3  1  0  0  0
  3  4  1  0  0  0
  4  5  1  0  0  0
  5  6  1  0  0  0
  6  7  1  0  0  0
  7  8  1  0  0  0
  8  9  2  0  0  0
  9 10  1  0  0  0
 10 11  2  0  0  0
 11 12  1  0  0  0
 12 13  2  0  0  0
 12 14  1  0  0  0
 14 15  3  0  0  0
  4 16  1  0  0  0
 16 17  2  0  0  0
 17 18  1  0  0  0
 18 19  2  0  0  0
 19 22  1  0  0  0
 22 23  1  0  0  0
 23 24  2  0  0  0
 24 25  1  0  0  0
 25 26  2  0  0  0
 26 27  1  0  0  0
 27 28  2  0  0  0
 19 20  1  0  0  0
 20 21  2  0  0  0
  7  2  1  0  0  0
 13  8  1  0  0  0
 21 16  1  0  0  0
 28 23  1  0  0  0
M  END
> <minimizedAffinity>
21.88384

> <CNNscore>
0.3925707936

> <CNNaffinity>
5.6595816612

> <CNN_VS>
2.2217864990

> <CNNaffinity_variance>
0.1645399779

$$$$
[H]c1nc(Oc2c([H])c([H])c([H])c([H])c2[H])c([H])c([H])c1N1C([H])([H])C([H])([H])N(c2c([H])c([H])c([H])c(C#N)c2[H])[C@]([H])(C([H])([H])[H])C1([H])[H]


 28 31  0  0  0  0  0  0  0  0999 V2000
   29.6873   10.0499   56.0734 C   0  0  0  0  0  0  0  0  0  0  0  0
   28.3979    9.5146   56.7203 C   0  0  0  0  0  0  0  0  0  0  0  0
   27.5257    8.9241   55.6773 C   0  0  0  0  0  0  0  0  0  0  0  0
   26.1184    9.1370   55.8433 N   0  0  0  0  0  0  0  0  0  0  0  0
   25.5622   10.0547   56.8154 C   0  0  0  0  0  0  0  0  0  0  0  0
   26.5683   11.1291   57.1743 C   0  0  0  0  0  0  0  0  0  0  0  0
   27.8643   10.5806   57.4944 N   0  0  0  0  0  0  0  0  0  0  0  0
   28.5860   11.1056   58.5792 C   0  0  0  0  0  0  0  0  0  0  0  0
   29.4396   10.2967   59.3343 C   0  0  0  0  0  0  0  0  0  0  0  0
   30.1758   10.7632   60.3993 C   0  0  0  0  0  0  0  0  0  0  0  0
   30.0977   12.0707   60.7689 C   0  0  0  0  0  0  0  0  0  0  0  0
   29.2721   12.9190   60.0621 C   0  0  0  0  0  0  0  0  0  0  0  0
   28.5306   12.4277   58.9817 C   0  0  0  0  0  0  0  0  0  0  0  0
   29.1912   14.2878   60.4503 C   0  0  0  0  0  0  0  0  0  0  0  0
   29.1374   15.4036   60.7687 N   0  0  0  0  0  0  0  0  0  0  0  0
   25.2289    8.4111   55.0061 C   0  0  0  0  0  0  0  0  0  0  0  0
   25.6642    7.5433   54.0151 C   0  0  0  0  0  0  0  0  0  0  0  0
   24.7267    6.8766   53.2530 C   0  0  0  0  0  0  0  0  0  0  0  0
   23.3689    7.0217   53.4180 C   0  0  0  0  0  0  0  0  0  0  0  0
   22.9649    7.8656   54.3818 N   0  0  0  0  0  0  0  0  0  0  0  0
   23.8657    8.5354   55.1473 C   0  0  0  0  0  0  0  0  0  0  0  0
   22.4296    6.3463   52.6459 O   0  0  0  0  0  0  0  0  0  0  0  0
   21.2099    6.8965   52.3419 C   0  0  0  0  0  0  0  0  0  0  0  0
   20.1124    6.4700   53.0739 C   0  0  0  0  0  0  0  0  0  0  0  0
   18.8609    6.9881   52.8127 C   0  0  0  0  0  0  0  0  0  0  0  0
   18.7663    7.9362   51.8011 C   0  0  0  0  0  0  0  0  0  0  0  0
   19.8633    8.3538   51.0790 C   0  0  0  0  0  0  0  0  0  0  0  0
   21.1181    7.8275   51.3485 C   0  0  0  0  0  0  0  0  0  0  0  0
  1  2  1  0  0  0
  2  3  1  0  0  0
  3  4  1  0  0  0
  4  5  1  0  0  0
  5  6  1  0  0  0
  6  7  1  0  0  0
  7  8  1  0  0  0
  8  9  2  0  0  0
  9 10  1  0  0  0
 10 11  2  0  0  0
 11 12  1  0  0  0
 12 13  2  0  0  0
 12 14  1  0  0  0
 14 15  3  0  0  0
  4 16  1  0  0  0
 16 17  2  0  0  0
 17 18  1  0  0  0
 18 19  2  0  0  0
 19 22  1  0  0  0
 22 23  1  0  0  0
 23 24  2  0  0  0
 24 25  1  0  0  0
 25 26  2  0  0  0
 26 27  1  0  0  0
 27 28  2  0  0  0
 19 20  1  0  0  0
 20 21  2  0  0  0
  7  2  1  0  0  0
 13  8  1  0  0  0
 21 16  1  0  0  0
 28 23  1  0  0  0
M  END
> <minimizedAffinity>
25.20968

> <CNNscore>
0.3917960823

> <CNNaffinity>
5.5402860641

> <CNN_VS>
2.1706624031

> <CNNaffinity_variance>
0.2381024659

$$$$
[H]c1nc(Oc2c([H])c([H])c([H])c([H])c2[H])c([H])c([H])c1N1C([H])([H])C([H])([H])N(c2c([H])c([H])c([H])c(C#N)c2[H])[C@]([H])(C([H])([H])[H])C1([H])[H]


 28 31  0  0  0  0  0  0  0  0999 V2000
   19.1662    3.5246   55.6005 C   0  0  0  0  0  0  0  0  0  0  0  0
   19.4878    4.1879   54.2498 C   0  0  0  0  0  0  0  0  0  0  0  0
   20.7884    4.8934   54.3388 C   0  0  0  0  0  0  0  0  0  0  0  0
   20.8765    6.1366   53.6316 N   0  0  0  0  0  0  0  0  0  0  0  0
   19.7296    6.8059   53.0544 C   0  0  0  0  0  0  0  0  0  0  0  0
   18.4555    6.3916   53.7619 C   0  0  0  0  0  0  0  0  0  0  0  0
   18.3465    4.9590   53.8990 N   0  0  0  0  0  0  0  0  0  0  0  0
   17.1065    4.3378   53.6761 C   0  0  0  0  0  0  0  0  0  0  0  0
   15.9641    5.0923   53.3959 C   0  0  0  0  0  0  0  0  0  0  0  0
   14.7289    4.5331   53.1604 C   0  0  0  0  0  0  0  0  0  0  0  0
   14.5685    3.1820   53.1926 C   0  0  0  0  0  0  0  0  0  0  0  0
   15.6592    2.3837   53.4640 C   0  0  0  0  0  0  0  0  0  0  0  0
   16.9081    2.9692   53.7010 C   0  0  0  0  0  0  0  0  0  0  0  0
   15.4899    0.9691   53.4976 C   0  0  0  0  0  0  0  0  0  0  0  0
   15.3634   -0.1852   53.5288 N   0  0  0  0  0  0  0  0  0  0  0  0
   22.1557    6.7402   53.4967 C   0  0  0  0  0  0  0  0  0  0  0  0
   22.3367    8.1125   53.4041 C   0  0  0  0  0  0  0  0  0  0  0  0
   23.6180    8.6097   53.2802 C   0  0  0  0  0  0  0  0  0  0  0  0
   24.7416    7.8173   53.2424 C   0  0  0  0  0  0  0  0  0  0  0  0
   24.5482    6.4912   53.3333 N   0  0  0  0  0  0  0  0  0  0  0  0
   23.2979    5.9738   53.4561 C   0  0  0  0  0  0  0  0  0  0  0  0
   26.0302    8.3256   53.1173 O   0  0  0  0  0  0  0  0  0  0  0  0
   26.8081    8.6075   54.2120 C   0  0  0  0  0  0  0  0  0  0  0  0
   28.1821    8.4847   54.0725 C   0  0  0  0  0  0  0  0  0  0  0  0
   29.0142    8.7549   55.1390 C   0  0  0  0  0  0  0  0  0  0  0  0
   28.4123    9.1467   56.3287 C   0  0  0  0  0  0  0  0  0  0  0  0
   27.0455    9.2660   56.4575 C   0  0  0  0  0  0  0  0  0  0  0  0
   26.2162    8.9923   55.3798 C   0  0  0  0  0  0  0  0  0  0  0  0
  1  2  1  0  0  0
  2  3  1  0  0  0
  3  4  1  0  0  0
  4  5  1  0  0  0
  5  6  1  0  0  0
  6  7  1  0  0  0
  7  8  1  0  0  0
  8  9  2  0  0  0
  9 10  1  0  0  0
 10 11  2  0  0  0
 11 12  1  0  0  0
 12 13  2  0  0  0
 12 14  1  0  0  0
 14 15  3  0  0  0
  4 16  1  0  0  0
 16 17  2  0  0  0
 17 18  1  0  0  0
 18 19  2  0  0  0
 19 22  1  0  0  0
 22 23  1  0  0  0
 23 24  2  0  0  0
 24 25  1  0  0  0
 25 26  2  0  0  0
 26 27  1  0  0  0
 27 28  2  0  0  0
 19 20  1  0  0  0
 20 21  2  0  0  0
  7  2  1  0  0  0
 13  8  1  0  0  0
 21 16  1  0  0  0
 28 23  1  0  0  0
M  END
> <minimizedAffinity>
37.35318

> <CNNscore>
0.3760760128

> <CNNaffinity>
6.0602617264

> <CNN_VS>
2.2791190147

> <CNNaffinity_variance>
0.8529237509

$$$$
[H]c1nc(Oc2c([H])c([H])c([H])c([H])c2[H])c([H])c([H])c1N1C([H])([H])C([H])([H])N(c2c([H])c([H])c([H])c(C#N)c2[H])[C@]([H])(C([H])([H])[H])C1([H])[H]


 28 31  0  0  0  0  0  0  0  0999 V2000
   21.5454    9.3706   53.0511 C   0  0  0  0  0  0  0  0  0  0  0  0
   22.1986    8.5537   54.1796 C   0  0  0  0  0  0  0  0  0  0  0  0
   23.4988    9.1633   54.5471 C   0  0  0  0  0  0  0  0  0  0  0  0
   24.5495    8.2466   54.8775 N   0  0  0  0  0  0  0  0  0  0  0  0
   24.4585    6.8190   54.6540 C   0  0  0  0  0  0  0  0  0  0  0  0
   23.4627    6.5114   53.5543 C   0  0  0  0  0  0  0  0  0  0  0  0
   22.2091    7.2013   53.7423 N   0  0  0  0  0  0  0  0  0  0  0  0
   21.0047    6.5216   53.4957 C   0  0  0  0  0  0  0  0  0  0  0  0
   19.8022    7.2186   53.3504 C   0  0  0  0  0  0  0  0  0  0  0  0
   18.5978    6.6021   53.0984 C   0  0  0  0  0  0  0  0  0  0  0  0
   18.5307    5.2482   52.9774 C   0  0  0  0  0  0  0  0  0  0  0  0
   19.6842    4.5051   53.1107 C   0  0  0  0  0  0  0  0  0  0  0  0
   20.9004    5.1485   53.3668 C   0  0  0  0  0  0  0  0  0  0  0  0
   19.6124    3.0875   52.9839 C   0  0  0  0  0  0  0  0  0  0  0  0
   19.5618    1.9308   52.8899 N   0  0  0  0  0  0  0  0  0  0  0  0
   25.7397    8.7714   55.4492 C   0  0  0  0  0  0  0  0  0  0  0  0
   27.0004    8.5266   54.9248 C   0  0  0  0  0  0  0  0  0  0  0  0
   28.1006    9.0828   55.5449 C   0  0  0  0  0  0  0  0  0  0  0  0
   28.0226    9.8757   56.6660 C   0  0  0  0  0  0  0  0  0  0  0  0
   26.7945   10.1026   57.1605 N   0  0  0  0  0  0  0  0  0  0  0  0
   25.6935    9.5678   56.5705 C   0  0  0  0  0  0  0  0  0  0  0  0
   29.1361   10.4331   57.2858 O   0  0  0  0  0  0  0  0  0  0  0  0
   29.0326   11.1622   58.4437 C   0  0  0  0  0  0  0  0  0  0  0  0
   29.7089   10.6943   59.5600 C   0  0  0  0  0  0  0  0  0  0  0  0
   29.6415   11.3856   60.7517 C   0  0  0  0  0  0  0  0  0  0  0  0
   28.8776   12.5464   60.7684 C   0  0  0  0  0  0  0  0  0  0  0  0
   28.2090   13.0034   59.6534 C   0  0  0  0  0  0  0  0  0  0  0  0
   28.2823   12.3019   58.4590 C   0  0  0  0  0  0  0  0  0  0  0  0
  1  2  1  0  0  0
  2  3  1  0  0  0
  3  4  1  0  0  0
  4  5  1  0  0  0
  5  6  1  0  0  0
  6  7  1  0  0  0
  7  8  1  0  0  0
  8  9  2  0  0  0
  9 10  1  0  0  0
 10 11  2  0  0  0
 11 12  1  0  0  0
 12 13  2  0  0  0
 12 14  1  0  0  0
 14 15  3  0  0  0
  4 16  1  0  0  0
 16 17  2  0  0  0
 17 18  1  0  0  0
 18 19  2  0  0  0
 19 22  1  0  0  0
 22 23  1  0  0  0
 23 24  2  0  0  0
 24 25  1  0  0  0
 25 26  2  0  0  0
 26 27  1  0  0  0
 27 28  2  0  0  0
 19 20  1  0  0  0
 20 21  2  0  0  0
  7  2  1  0  0  0
 13  8  1  0  0  0
 21 16  1  0  0  0
 28 23  1  0  0  0
M  END
> <minimizedAffinity>
20.32212

> <CNNscore>
0.3129750788

> <CNNaffinity>
5.6119098663

> <CNN_VS>
1.7563879490

> <CNNaffinity_variance>
0.2144279480

$$$$
[H]c1nc(Oc2c([H])c([H])c([H])c([H])c2[H])c([H])c([H])c1N1C([H])([H])C([H])([H])N(c2c([H])c([H])c([H])c(C#N)c2[H])[C@]([H])(C([H])([H])[H])C1([H])[H]


 28 31  0  0  0  0  0  0  0  0999 V2000
   27.9670    8.7375   54.7387 C   0  0  0  0  0  0  0  0  0  0  0  0
   26.7368    8.4078   55.6022 C   0  0  0  0  0  0  0  0  0  0  0  0
   25.5884    8.0747   54.7261 C   0  0  0  0  0  0  0  0  0  0  0  0
   24.3068    8.5365   55.1705 N   0  0  0  0  0  0  0  0  0  0  0  0
   24.1329    9.4655   56.2674 C   0  0  0  0  0  0  0  0  0  0  0  0
   25.3822   10.2995   56.4660 C   0  0  0  0  0  0  0  0  0  0  0  0
   26.5782    9.4928   56.5065 N   0  0  0  0  0  0  0  0  0  0  0  0
   27.5762    9.7870   57.4503 C   0  0  0  0  0  0  0  0  0  0  0  0
   28.0194   11.0982   57.6435 C   0  0  0  0  0  0  0  0  0  0  0  0
   28.9863   11.4410   58.5609 C   0  0  0  0  0  0  0  0  0  0  0  0
   29.5653   10.4860   59.3387 C   0  0  0  0  0  0  0  0  0  0  0  0
   29.1698    9.1732   59.1944 C   0  0  0  0  0  0  0  0  0  0  0  0
   28.1851    8.8424   58.2566 C   0  0  0  0  0  0  0  0  0  0  0  0
   29.7771    8.1743   60.0094 C   0  0  0  0  0  0  0  0  0  0  0  0
   30.2830    7.3655   60.6721 N   0  0  0  0  0  0  0  0  0  0  0  0
   23.1522    8.0584   54.4942 C   0  0  0  0  0  0  0  0  0  0  0  0
   22.1381    8.8939   54.0494 C   0  0  0  0  0  0  0  0  0  0  0  0
   21.0555    8.3403   53.3969 C   0  0  0  0  0  0  0  0  0  0  0  0
   20.9186    6.9928   53.1574 C   0  0  0  0  0  0  0  0  0  0  0  0
   21.9095    6.1985   53.5947 N   0  0  0  0  0  0  0  0  0  0  0  0
   22.9873    6.7161   54.2402 C   0  0  0  0  0  0  0  0  0  0  0  0
   19.8243    6.4418   52.4990 O   0  0  0  0  0  0  0  0  0  0  0  0
   18.9946    5.5332   53.1063 C   0  0  0  0  0  0  0  0  0  0  0  0
   17.7422    5.9738   53.5060 C   0  0  0  0  0  0  0  0  0  0  0  0
   16.8654    5.1050   54.1217 C   0  0  0  0  0  0  0  0  0  0  0  0
   17.2979    3.7982   54.3129 C   0  0  0  0  0  0  0  0  0  0  0  0
   18.5448    3.3697   53.9120 C   0  0  0  0  0  0  0  0  0  0  0  0
   19.4202    4.2503   53.2935 C   0  0  0  0  0  0  0  0  0  0  0  0
  1  2  1  0  0  0
  2  3  1  0  0  0
  3  4  1  0  0  0
  4  5  1  0  0  0
  5  6  1  0  0  0
  6  7  1  0  0  0
  7  8  1  0  0  0
  8  9  2  0  0  0
  9 10  1  0  0  0
 10 11  2  0  0  0
 11 12  1  0  0  0
 12 13  2  0  0  0
 12 14  1  0  0  0
 14 15  3  0  0  0
  4 16  1  0  0  0
 16 17  2  0  0  0
 17 18  1  0  0  0
 18 19  2  0  0  0
 19 22  1  0  0  0
 22 23  1  0  0  0
 23 24  2  0  0  0
 24 25  1  0  0  0
 25 26  2  0  0  0
 26 27  1  0  0  0
 27 28  2  0  0  0
 19 20  1  0  0  0
 20 21  2  0  0  0
  7  2  1  0  0  0
 13  8  1  0  0  0
 21 16  1  0  0  0
 28 23  1  0  0  0
M  END
> <minimizedAffinity>
20.86744

> <CNNscore>
0.2110305727

> <CNNaffinity>
5.6108307838

> <CNN_VS>
1.1840568781

> <CNNaffinity_variance>
0.1306079626

$$$$
[H]c1nc(F)c([H])c(-c2nc(-c3c([H])c([H])c(C(F)(F)F)c(F)c3[H])n3c2C([H])([H])C([H])([H])OC([H])([H])C3([H])[H])c1[H]


 28 31  0  0  0  0  0  0  0  0999 V2000
   22.2801    7.4352   54.2157 C   0  0  0  0  0  0  0  0  0  0  0  0
   23.6499    7.2350   54.3246 N   0  0  0  0  0  0  0  0  0  0  0  0
   24.2256    8.3953   54.6698 C   0  0  0  0  0  0  0  0  0  0  0  0
   23.2385    9.3472   54.7851 C   0  0  0  0  0  0  0  0  0  0  0  0
   23.5017   10.7192   55.1365 C   0  0  0  0  0  0  0  0  0  0  0  0
   22.7347   11.8010   54.4992 C   0  0  0  0  0  0  0  0  0  0  0  0
   21.4555   11.5200   54.1272 O   0  0  0  0  0  0  0  0  0  0  0  0
   20.8596   10.7589   55.1097 C   0  0  0  0  0  0  0  0  0  0  0  0
   20.7934    9.3463   54.5361 C   0  0  0  0  0  0  0  0  0  0  0  0
   22.0642    8.7192   54.5006 N   0  0  0  0  0  0  0  0  0  0  0  0
   21.8410    2.8424   52.9654 F   0  0  0  0  0  0  0  0  0  0  0  0
   21.1910    3.9971   53.2234 C   0  0  0  0  0  0  0  0  0  0  0  0
   21.9472    5.0884   53.5812 C   0  0  0  0  0  0  0  0  0  0  0  0
   21.3969    6.3418   53.8744 C   0  0  0  0  0  0  0  0  0  0  0  0
   20.0444    6.4122   53.7805 C   0  0  0  0  0  0  0  0  0  0  0  0
   19.2618    5.2996   53.4151 C   0  0  0  0  0  0  0  0  0  0  0  0
   19.8327    4.0828   53.1339 C   0  0  0  0  0  0  0  0  0  0  0  0
   18.9890    2.8967   52.7436 C   0  0  0  0  0  0  0  0  0  0  0  0
   18.9692    2.8826   51.3591 F   0  0  0  0  0  0  0  0  0  0  0  0
   19.6486    1.7662   53.1500 F   0  0  0  0  0  0  0  0  0  0  0  0
   17.7447    2.9566   53.2938 F   0  0  0  0  0  0  0  0  0  0  0  0
   25.6746    8.5425   54.8698 C   0  0  0  0  0  0  0  0  0  0  0  0
   26.5435    8.2276   53.8537 C   0  0  0  0  0  0  0  0  0  0  0  0
   27.8974    8.3499   53.9977 C   0  0  0  0  0  0  0  0  0  0  0  0
   28.3570    8.7948   55.1833 N   0  0  0  0  0  0  0  0  0  0  0  0
   27.5678    9.1150   56.2024 C   0  0  0  0  0  0  0  0  0  0  0  0
   28.1280    9.5597   57.3726 F   0  0  0  0  0  0  0  0  0  0  0  0
   26.2054    8.9905   56.0537 C   0  0  0  0  0  0  0  0  0  0  0  0
 11 12  1  0  0  0
 12 13  2  0  0  0
 13 14  1  0  0  0
 14 15  2  0  0  0
 15 16  1  0  0  0
 16 17  2  0  0  0
 17 18  1  0  0  0
 18 19  1  0  0  0
 18 20  1  0  0  0
 18 21  1  0  0  0
 14  1  1  0  0  0
  1  2  2  0  0  0
  2  3  1  0  0  0
  3  4  2  0  0  0
  4  5  1  0  0  0
  5  6  1  0  0  0
  6  7  1  0  0  0
  7  8  1  0  0  0
  8  9  1  0  0  0
  9 10  1  0  0  0
  3 22  1  0  0  0
 22 23  2  0  0  0
 23 24  1  0  0  0
 24 25  2  0  0  0
 25 26  1  0  0  0
 26 27  1  0  0  0
 26 28  2  0  0  0
 17 12  1  0  0  0
 10  1  1  0  0  0
 28 22  1  0  0  0
 10  4  1  0  0  0
M  END
> <minimizedAffinity>
29.12526

> <CNNscore>
0.5329841375

> <CNNaffinity>
6.2037725449

> <CNN_VS>
3.3065123558

> <CNNaffinity_variance>
0.2029106319

$$$$
[H]c1nc(F)c([H])c(-c2nc(-c3c([H])c([H])c(C(F)(F)F)c(F)c3[H])n3c2C([H])([H])C([H])([H])OC([H])([H])C3([H])[H])c1[H]


 28 31  0  0  0  0  0  0  0  0999 V2000
   22.5493    7.2985   54.2525 C   0  0  0  0  0  0  0  0  0  0  0  0
   23.9268    7.1772   54.3792 N   0  0  0  0  0  0  0  0  0  0  0  0
   24.4274    8.3614   54.7586 C   0  0  0  0  0  0  0  0  0  0  0  0
   23.3838    9.2505   54.8784 C   0  0  0  0  0  0  0  0  0  0  0  0
   23.5598   10.6275   55.2633 C   0  0  0  0  0  0  0  0  0  0  0  0
   22.7395   11.6761   54.6371 C   0  0  0  0  0  0  0  0  0  0  0  0
   21.4850   11.3285   54.2384 O   0  0  0  0  0  0  0  0  0  0  0  0
   20.9208   10.5116   55.1946 C   0  0  0  0  0  0  0  0  0  0  0  0
   20.9471    9.1108   54.5898 C   0  0  0  0  0  0  0  0  0  0  0  0
   22.2533    8.5608   54.5614 N   0  0  0  0  0  0  0  0  0  0  0  0
   18.1674    5.5388   53.5090 F   0  0  0  0  0  0  0  0  0  0  0  0
   19.4916    5.2759   53.5108 C   0  0  0  0  0  0  0  0  0  0  0  0
   20.3455    6.3036   53.8353 C   0  0  0  0  0  0  0  0  0  0  0  0
   21.7378    6.1628   53.8736 C   0  0  0  0  0  0  0  0  0  0  0  0
   22.1991    4.9240   53.5648 C   0  0  0  0  0  0  0  0  0  0  0  0
   21.3320    3.8653   53.2309 C   0  0  0  0  0  0  0  0  0  0  0  0
   19.9698    4.0364   53.2021 C   0  0  0  0  0  0  0  0  0  0  0  0
   19.0482    2.8992   52.8440 C   0  0  0  0  0  0  0  0  0  0  0  0
   18.8891    2.9563   51.4697 F   0  0  0  0  0  0  0  0  0  0  0  0
   19.7033    1.7290   53.1268 F   0  0  0  0  0  0  0  0  0  0  0  0
   17.8685    2.9704   53.5205 F   0  0  0  0  0  0  0  0  0  0  0  0
   25.8619    8.5894   54.9851 C   0  0  0  0  0  0  0  0  0  0  0  0
   26.7668    8.3130   53.9894 C   0  0  0  0  0  0  0  0  0  0  0  0
   28.1089    8.5104   54.1584 C   0  0  0  0  0  0  0  0  0  0  0  0
   28.5198    8.9909   55.3480 N   0  0  0  0  0  0  0  0  0  0  0  0
   27.6942    9.2770   56.3482 C   0  0  0  0  0  0  0  0  0  0  0  0
   28.2058    9.7626   57.5243 F   0  0  0  0  0  0  0  0  0  0  0  0
   26.3438    9.0769   56.1743 C   0  0  0  0  0  0  0  0  0  0  0  0
 11 12  1  0  0  0
 12 13  2  0  0  0
 13 14  1  0  0  0
 14 15  2  0  0  0
 15 16  1  0  0  0
 16 17  2  0  0  0
 17 18  1  0  0  0
 18 19  1  0  0  0
 18 20  1  0  0  0
 18 21  1  0  0  0
 14  1  1  0  0  0
  1  2  2  0  0  0
  2  3  1  0  0  0
  3  4  2  0  0  0
  4  5  1  0  0  0
  5  6  1  0  0  0
  6  7  1  0  0  0
  7  8  1  0  0  0
  8  9  1  0  0  0
  9 10  1  0  0  0
  3 22  1  0  0  0
 22 23  2  0  0  0
 23 24  1  0  0  0
 24 25  2  0  0  0
 25 26  1  0  0  0
 26 27  1  0  0  0
 26 28  2  0  0  0
 17 12  1  0  0  0
 10  1  1  0  0  0
 28 22  1  0  0  0
 10  4  1  0  0  0
M  END
> <minimizedAffinity>
25.69295

> <CNNscore>
0.5144768357

> <CNNaffinity>
6.2265973091

> <CNN_VS>
3.2034401894

> <CNNaffinity_variance>
0.2256063223

$$$$
[H]c1nc(F)c([H])c(-c2nc(-c3c([H])c([H])c(C(F)(F)F)c(F)c3[H])n3c2C([H])([H])C([H])([H])OC([H])([H])C3([H])[H])c1[H]


 28 31  0  0  0  0  0  0  0  0999 V2000
   23.7176    8.8992   54.5285 C   0  0  0  0  0  0  0  0  0  0  0  0
   23.3498    9.9217   53.6639 N   0  0  0  0  0  0  0  0  0  0  0  0
   22.2408    9.5500   53.0090 C   0  0  0  0  0  0  0  0  0  0  0  0
   21.8868    8.2929   53.4426 C   0  0  0  0  0  0  0  0  0  0  0  0
   20.7411    7.5781   52.9409 C   0  0  0  0  0  0  0  0  0  0  0  0
   20.8152    6.1232   52.7347 C   0  0  0  0  0  0  0  0  0  0  0  0
   21.6368    5.4195   53.5614 O   0  0  0  0  0  0  0  0  0  0  0  0
   21.5146    5.9138   54.8422 C   0  0  0  0  0  0  0  0  0  0  0  0
   22.7941    6.7084   55.0878 C   0  0  0  0  0  0  0  0  0  0  0  0
   22.8144    7.9317   54.3718 N   0  0  0  0  0  0  0  0  0  0  0  0
   28.4330    8.3246   55.0618 F   0  0  0  0  0  0  0  0  0  0  0  0
   27.2827    8.7223   55.6460 C   0  0  0  0  0  0  0  0  0  0  0  0
   26.1307    8.6531   54.8986 C   0  0  0  0  0  0  0  0  0  0  0  0
   24.8748    9.0346   55.3855 C   0  0  0  0  0  0  0  0  0  0  0  0
   24.8671    9.4848   56.6662 C   0  0  0  0  0  0  0  0  0  0  0  0
   26.0422    9.5595   57.4392 C   0  0  0  0  0  0  0  0  0  0  0  0
   27.2596    9.1775   56.9316 C   0  0  0  0  0  0  0  0  0  0  0  0
   28.5128    9.2602   57.7645 C   0  0  0  0  0  0  0  0  0  0  0  0
   28.1414    8.8972   59.0481 F   0  0  0  0  0  0  0  0  0  0  0  0
   29.3789    8.3012   57.3078 F   0  0  0  0  0  0  0  0  0  0  0  0
   29.0814   10.4961   57.7035 F   0  0  0  0  0  0  0  0  0  0  0  0
   21.5777   10.3999   52.0095 C   0  0  0  0  0  0  0  0  0  0  0  0
   20.7231    9.8407   51.0910 C   0  0  0  0  0  0  0  0  0  0  0  0
   20.0863   10.5945   50.1450 C   0  0  0  0  0  0  0  0  0  0  0  0
   20.3273   11.9200   50.1431 N   0  0  0  0  0  0  0  0  0  0  0  0
   21.1422   12.5184   51.0043 C   0  0  0  0  0  0  0  0  0  0  0  0
   21.3254   13.8752   50.9248 F   0  0  0  0  0  0  0  0  0  0  0  0
   21.7815   11.7563   51.9551 C   0  0  0  0  0  0  0  0  0  0  0  0
 11 12  1  0  0  0
 12 13  2  0  0  0
 13 14  1  0  0  0
 14 15  2  0  0  0
 15 16  1  0  0  0
 16 17  2  0  0  0
 17 18  1  0  0  0
 18 19  1  0  0  0
 18 20  1  0  0  0
 18 21  1  0  0  0
 14  1  1  0  0  0
  1  2  2  0  0  0
  2  3  1  0  0  0
  3  4  2  0  0  0
  4  5  1  0  0  0
  5  6  1  0  0  0
  6  7  1  0  0  0
  7  8  1  0  0  0
  8  9  1  0  0  0
  9 10  1  0  0  0
  3 22  1  0  0  0
 22 23  2  0  0  0
 23 24  1  0  0  0
 24 25  2  0  0  0
 25 26  1  0  0  0
 26 27  1  0  0  0
 26 28  2  0  0  0
 17 12  1  0  0  0
 10  1  1  0  0  0
 28 22  1  0  0  0
 10  4  1  0  0  0
M  END
> <minimizedAffinity>
29.63526

> <CNNscore>
0.5023568869

> <CNNaffinity>
5.8344283104

> <CNN_VS>
2.9309651852

> <CNNaffinity_variance>
0.3575327694

$$$$
[H]c1nc(F)c([H])c(-c2nc(-c3c([H])c([H])c(C(F)(F)F)c(F)c3[H])n3c2C([H])([H])C([H])([H])OC([H])([H])C3([H])[H])c1[H]


 28 31  0  0  0  0  0  0  0  0999 V2000
   23.6922    8.7143   54.6165 C   0  0  0  0  0  0  0  0  0  0  0  0
   23.2610    9.6820   53.7188 N   0  0  0  0  0  0  0  0  0  0  0  0
   22.1740    9.2220   53.0833 C   0  0  0  0  0  0  0  0  0  0  0  0
   21.8973    7.9619   53.5624 C   0  0  0  0  0  0  0  0  0  0  0  0
   20.7948    7.1629   53.0923 C   0  0  0  0  0  0  0  0  0  0  0  0
   20.9551    5.7086   52.9365 C   0  0  0  0  0  0  0  0  0  0  0  0
   21.8201    5.0847   53.7828 O   0  0  0  0  0  0  0  0  0  0  0  0
   21.6729    5.6156   55.0462 C   0  0  0  0  0  0  0  0  0  0  0  0
   22.9034    6.4932   55.2569 C   0  0  0  0  0  0  0  0  0  0  0  0
   22.8480    7.6897   54.4985 N   0  0  0  0  0  0  0  0  0  0  0  0
   28.4537    8.7343   55.0375 F   0  0  0  0  0  0  0  0  0  0  0  0
   27.2758    8.9408   55.6639 C   0  0  0  0  0  0  0  0  0  0  0  0
   26.1250    8.7660   54.9320 C   0  0  0  0  0  0  0  0  0  0  0  0
   24.8421    8.9485   55.4619 C   0  0  0  0  0  0  0  0  0  0  0  0
   24.8065    9.3151   56.7685 C   0  0  0  0  0  0  0  0  0  0  0  0
   25.9801    9.4968   57.5259 C   0  0  0  0  0  0  0  0  0  0  0  0
   27.2244    9.3101   56.9759 C   0  0  0  0  0  0  0  0  0  0  0  0
   28.4757    9.5062   57.7925 C   0  0  0  0  0  0  0  0  0  0  0  0
   28.0599   10.0213   59.0086 F   0  0  0  0  0  0  0  0  0  0  0  0
   29.0090    8.2680   58.0389 F   0  0  0  0  0  0  0  0  0  0  0  0
   29.3766   10.3045   57.1556 F   0  0  0  0  0  0  0  0  0  0  0  0
   21.4578    9.9951   52.0584 C   0  0  0  0  0  0  0  0  0  0  0  0
   21.8676   11.2689   51.7481 C   0  0  0  0  0  0  0  0  0  0  0  0
   21.2300   12.0219   50.8019 C   0  0  0  0  0  0  0  0  0  0  0  0
   20.1738   11.4670   50.1763 N   0  0  0  0  0  0  0  0  0  0  0  0
   19.7306   10.2415   50.4323 C   0  0  0  0  0  0  0  0  0  0  0  0
   18.6464    9.7611   49.7435 F   0  0  0  0  0  0  0  0  0  0  0  0
   20.3749    9.4865   51.3855 C   0  0  0  0  0  0  0  0  0  0  0  0
 11 12  1  0  0  0
 12 13  2  0  0  0
 13 14  1  0  0  0
 14 15  2  0  0  0
 15 16  1  0  0  0
 16 17  2  0  0  0
 17 18  1  0  0  0
 18 19  1  0  0  0
 18 20  1  0  0  0
 18 21  1  0  0  0
 14  1  1  0  0  0
  1  2  2  0  0  0
  2  3  1  0  0  0
  3  4  2  0  0  0
  4  5  1  0  0  0
  5  6  1  0  0  0
  6  7  1  0  0  0
  7  8  1  0  0  0
  8  9  1  0  0  0
  9 10  1  0  0  0
  3 22  1  0  0  0
 22 23  2  0  0  0
 23 24  1  0  0  0
 24 25  2  0  0  0
 25 26  1  0  0  0
 26 27  1  0  0  0
 26 28  2  0  0  0
 17 12  1  0  0  0
 10  1  1  0  0  0
 28 22  1  0  0  0
 10  4  1  0  0  0
M  END
> <minimizedAffinity>
36.25296

> <CNNscore>
0.4741877317

> <CNNaffinity>
5.8300080299

> <CNN_VS>
2.7645182610

> <CNNaffinity_variance>
0.5279401541

$$$$
[H]c1nc(F)c([H])c(-c2nc(-c3c([H])c([H])c(C(F)(F)F)c(F)c3[H])n3c2C([H])([H])C([H])([H])OC([H])([H])C3([H])[H])c1[H]


 28 31  0  0  0  0  0  0  0  0999 V2000
   21.4390    7.7267   52.8471 C   0  0  0  0  0  0  0  0  0  0  0  0
   20.3369    6.8850   52.7751 N   0  0  0  0  0  0  0  0  0  0  0  0
   20.6645    5.7040   53.3182 C   0  0  0  0  0  0  0  0  0  0  0  0
   21.9720    5.7737   53.7417 C   0  0  0  0  0  0  0  0  0  0  0  0
   22.6586    4.6736   54.3690 C   0  0  0  0  0  0  0  0  0  0  0  0
   24.0784    4.4280   54.0715 C   0  0  0  0  0  0  0  0  0  0  0  0
   24.8466    5.5110   53.7703 O   0  0  0  0  0  0  0  0  0  0  0  0
   24.5027    6.5513   54.6066 C   0  0  0  0  0  0  0  0  0  0  0  0
   23.7043    7.5171   53.7357 C   0  0  0  0  0  0  0  0  0  0  0  0
   22.4084    7.0269   53.4362 N   0  0  0  0  0  0  0  0  0  0  0  0
   21.7856   12.3958   53.8113 F   0  0  0  0  0  0  0  0  0  0  0  0
   21.5352   11.4658   52.8652 C   0  0  0  0  0  0  0  0  0  0  0  0
   21.6043   10.1437   53.2364 C   0  0  0  0  0  0  0  0  0  0  0  0
   21.3674    9.0841   52.3527 C   0  0  0  0  0  0  0  0  0  0  0  0
   21.0590    9.4523   51.0830 C   0  0  0  0  0  0  0  0  0  0  0  0
   20.9863   10.8040   50.6937 C   0  0  0  0  0  0  0  0  0  0  0  0
   21.2247   11.8207   51.5854 C   0  0  0  0  0  0  0  0  0  0  0  0
   21.1451   13.2646   51.1616 C   0  0  0  0  0  0  0  0  0  0  0  0
   20.2782   13.8755   52.0519 F   0  0  0  0  0  0  0  0  0  0  0  0
   22.3820   13.8227   51.3543 F   0  0  0  0  0  0  0  0  0  0  0  0
   20.7527   13.3912   49.8637 F   0  0  0  0  0  0  0  0  0  0  0  0
   19.7272    4.5749   53.4059 C   0  0  0  0  0  0  0  0  0  0  0  0
   20.0633    3.3595   52.8612 C   0  0  0  0  0  0  0  0  0  0  0  0
   19.2214    2.2842   52.9206 C   0  0  0  0  0  0  0  0  0  0  0  0
   18.0369    2.4576   53.5384 N   0  0  0  0  0  0  0  0  0  0  0  0
   17.6555    3.6070   54.0837 C   0  0  0  0  0  0  0  0  0  0  0  0
   16.4291    3.6883   54.6922 F   0  0  0  0  0  0  0  0  0  0  0  0
   18.5057    4.6873   54.0219 C   0  0  0  0  0  0  0  0  0  0  0  0
 11 12  1  0  0  0
 12 13  2  0  0  0
 13 14  1  0  0  0
 14 15  2  0  0  0
 15 16  1  0  0  0
 16 17  2  0  0  0
 17 18  1  0  0  0
 18 19  1  0  0  0
 18 20  1  0  0  0
 18 21  1  0  0  0
 14  1  1  0  0  0
  1  2  2  0  0  0
  2  3  1  0  0  0
  3  4  2  0  0  0
  4  5  1  0  0  0
  5  6  1  0  0  0
  6  7  1  0  0  0
  7  8  1  0  0  0
  8  9  1  0  0  0
  9 10  1  0  0  0
  3 22  1  0  0  0
 22 23  2  0  0  0
 23 24  1  0  0  0
 24 25  2  0  0  0
 25 26  1  0  0  0
 26 27  1  0  0  0
 26 28  2  0  0  0
 17 12  1  0  0  0
 10  1  1  0  0  0
 28 22  1  0  0  0
 10  4  1  0  0  0
M  END
> <minimizedAffinity>
33.13229

> <CNNscore>
0.4631638229

> <CNNaffinity>
6.2351942062

> <CNN_VS>
2.8879163265

> <CNNaffinity_variance>
0.6628999710

$$$$
[H]c1nc(F)c([H])c(-c2nc(-c3c([H])c([H])c(C(F)(F)F)c(F)c3[H])n3c2C([H])([H])C([H])([H])OC([H])([H])C3([H])[H])c1[H]


 28 31  0  0  0  0  0  0  0  0999 V2000
   22.9438    7.8008   53.8522 C   0  0  0  0  0  0  0  0  0  0  0  0
   22.3441    6.5903   54.1734 N   0  0  0  0  0  0  0  0  0  0  0  0
   21.2894    6.4080   53.3665 C   0  0  0  0  0  0  0  0  0  0  0  0
   21.2004    7.4926   52.5240 C   0  0  0  0  0  0  0  0  0  0  0  0
   20.1721    7.6344   51.5253 C   0  0  0  0  0  0  0  0  0  0  0  0
   19.5867    8.9571   51.2561 C   0  0  0  0  0  0  0  0  0  0  0  0
   20.3909   10.0408   51.4359 O   0  0  0  0  0  0  0  0  0  0  0  0
   21.6497    9.7499   50.9556 C   0  0  0  0  0  0  0  0  0  0  0  0
   22.5134    9.5442   52.1967 C   0  0  0  0  0  0  0  0  0  0  0  0
   22.2308    8.3199   52.8529 N   0  0  0  0  0  0  0  0  0  0  0  0
   27.7077    7.6642   54.2220 F   0  0  0  0  0  0  0  0  0  0  0  0
   26.5609    8.1581   54.7352 C   0  0  0  0  0  0  0  0  0  0  0  0
   25.3829    7.8059   54.1197 C   0  0  0  0  0  0  0  0  0  0  0  0
   24.1275    8.2494   54.5520 C   0  0  0  0  0  0  0  0  0  0  0  0
   24.1480    9.0639   55.6379 C   0  0  0  0  0  0  0  0  0  0  0  0
   25.3498    9.4304   56.2746 C   0  0  0  0  0  0  0  0  0  0  0  0
   26.5660    8.9781   55.8252 C   0  0  0  0  0  0  0  0  0  0  0  0
   27.8477    9.3743   56.5115 C   0  0  0  0  0  0  0  0  0  0  0  0
   28.8575    9.1510   55.5907 F   0  0  0  0  0  0  0  0  0  0  0  0
   27.7976   10.7253   56.7369 F   0  0  0  0  0  0  0  0  0  0  0  0
   28.0297    8.6944   57.6774 F   0  0  0  0  0  0  0  0  0  0  0  0
   20.4229    5.2225   53.4358 C   0  0  0  0  0  0  0  0  0  0  0  0
   20.8953    4.0015   53.0203 C   0  0  0  0  0  0  0  0  0  0  0  0
   20.1231    2.8744   53.0678 C   0  0  0  0  0  0  0  0  0  0  0  0
   18.8684    3.0021   53.5412 N   0  0  0  0  0  0  0  0  0  0  0  0
   18.3553    4.1543   53.9573 C   0  0  0  0  0  0  0  0  0  0  0  0
   17.0660    4.1866   54.4237 F   0  0  0  0  0  0  0  0  0  0  0  0
   19.1356    5.2867   53.9079 C   0  0  0  0  0  0  0  0  0  0  0  0
 11 12  1  0  0  0
 12 13  2  0  0  0
 13 14  1  0  0  0
 14 15  2  0  0  0
 15 16  1  0  0  0
 16 17  2  0  0  0
 17 18  1  0  0  0
 18 19  1  0  0  0
 18 20  1  0  0  0
 18 21  1  0  0  0
 14  1  1  0  0  0
  1  2  2  0  0  0
  2  3  1  0  0  0
  3  4  2  0  0  0
  4  5  1  0  0  0
  5  6  1  0  0  0
  6  7  1  0  0  0
  7  8  1  0  0  0
  8  9  1  0  0  0
  9 10  1  0  0  0
  3 22  1  0  0  0
 22 23  2  0  0  0
 23 24  1  0  0  0
 24 25  2  0  0  0
 25 26  1  0  0  0
 26 27  1  0  0  0
 26 28  2  0  0  0
 17 12  1  0  0  0
 10  1  1  0  0  0
 28 22  1  0  0  0
 10  4  1  0  0  0
M  END
> <minimizedAffinity>
23.69531

> <CNNscore>
0.4542664587

> <CNNaffinity>
6.4490194321

> <CNN_VS>
2.9295732975

> <CNNaffinity_variance>
0.9765149951

$$$$
[H]c1nc(F)c([H])c(-c2nc(-c3c([H])c([H])c(C(F)(F)F)c(F)c3[H])n3c2C([H])([H])C([H])([H])OC([H])([H])C3([H])[H])c1[H]


 28 31  0  0  0  0  0  0  0  0999 V2000
   23.4338    8.8217   53.6700 C   0  0  0  0  0  0  0  0  0  0  0  0
   23.1432   10.1211   53.2761 N   0  0  0  0  0  0  0  0  0  0  0  0
   21.9096   10.1436   52.7521 C   0  0  0  0  0  0  0  0  0  0  0  0
   21.3979    8.8671   52.8030 C   0  0  0  0  0  0  0  0  0  0  0  0
   20.0877    8.5215   52.3141 C   0  0  0  0  0  0  0  0  0  0  0  0
   19.8744    7.2374   51.6284 C   0  0  0  0  0  0  0  0  0  0  0  0
   20.6592    6.1919   52.0088 O   0  0  0  0  0  0  0  0  0  0  0  0
   20.7961    6.2097   53.3802 C   0  0  0  0  0  0  0  0  0  0  0  0
   22.2174    6.7040   53.6337 C   0  0  0  0  0  0  0  0  0  0  0  0
   22.3604    8.0899   53.3720 N   0  0  0  0  0  0  0  0  0  0  0  0
   26.5825    9.7900   57.1338 F   0  0  0  0  0  0  0  0  0  0  0  0
   26.3030    9.0189   56.0615 C   0  0  0  0  0  0  0  0  0  0  0  0
   25.1079    9.2329   55.4162 C   0  0  0  0  0  0  0  0  0  0  0  0
   24.6990    8.5025   54.2940 C   0  0  0  0  0  0  0  0  0  0  0  0
   25.5742    7.5527   53.8760 C   0  0  0  0  0  0  0  0  0  0  0  0
   26.8004    7.3262   54.5310 C   0  0  0  0  0  0  0  0  0  0  0  0
   27.1722    8.0603   55.6304 C   0  0  0  0  0  0  0  0  0  0  0  0
   28.4858    7.8124   56.3261 C   0  0  0  0  0  0  0  0  0  0  0  0
   28.1704    7.5201   57.6423 F   0  0  0  0  0  0  0  0  0  0  0  0
   29.0370    6.6817   55.7818 F   0  0  0  0  0  0  0  0  0  0  0  0
   29.3322    8.8721   56.2035 F   0  0  0  0  0  0  0  0  0  0  0  0
   21.2826   11.3668   52.2308 C   0  0  0  0  0  0  0  0  0  0  0  0
   21.6889   11.8869   51.0262 C   0  0  0  0  0  0  0  0  0  0  0  0
   21.1325   13.0219   50.5055 C   0  0  0  0  0  0  0  0  0  0  0  0
   20.1609   13.6207   51.2212 N   0  0  0  0  0  0  0  0  0  0  0  0
   19.7256   13.1663   52.3908 C   0  0  0  0  0  0  0  0  0  0  0  0
   18.7307   13.8445   53.0474 F   0  0  0  0  0  0  0  0  0  0  0  0
   20.2881   12.0236   52.9118 C   0  0  0  0  0  0  0  0  0  0  0  0
 11 12  1  0  0  0
 12 13  2  0  0  0
 13 14  1  0  0  0
 14 15  2  0  0  0
 15 16  1  0  0  0
 16 17  2  0  0  0
 17 18  1  0  0  0
 18 19  1  0  0  0
 18 20  1  0  0  0
 18 21  1  0  0  0
 14  1  1  0  0  0
  1  2  2  0  0  0
  2  3  1  0  0  0
  3  4  2  0  0  0
  4  5  1  0  0  0
  5  6  1  0  0  0
  6  7  1  0  0  0
  7  8  1  0  0  0
  8  9  1  0  0  0
  9 10  1  0  0  0
  3 22  1  0  0  0
 22 23  2  0  0  0
 23 24  1  0  0  0
 24 25  2  0  0  0
 25 26  1  0  0  0
 26 27  1  0  0  0
 26 28  2  0  0  0
 17 12  1  0  0  0
 10  1  1  0  0  0
 28 22  1  0  0  0
 10  4  1  0  0  0
M  END
> <minimizedAffinity>
52.87428

> <CNNscore>
0.4379674494

> <CNNaffinity>
5.6446962357

> <CNN_VS>
2.4721932411

> <CNNaffinity_variance>
0.4386154711

$$$$
[H]c1nc(F)c([H])c(-c2nc(-c3c([H])c([H])c(C(F)(F)F)c(F)c3[H])n3c2C([H])([H])C([H])([H])OC([H])([H])C3([H])[H])c1[H]


 28 31  0  0  0  0  0  0  0  0999 V2000
   24.2429    8.4836   54.8365 C   0  0  0  0  0  0  0  0  0  0  0  0
   23.5072    9.3025   53.9901 N   0  0  0  0  0  0  0  0  0  0  0  0
   22.6150    8.5477   53.3335 C   0  0  0  0  0  0  0  0  0  0  0  0
   22.7672    7.2443   53.7479 C   0  0  0  0  0  0  0  0  0  0  0  0
   21.9723    6.1560   53.2391 C   0  0  0  0  0  0  0  0  0  0  0  0
   22.5893    4.8403   53.0090 C   0  0  0  0  0  0  0  0  0  0  0  0
   23.6240    4.4887   53.8210 O   0  0  0  0  0  0  0  0  0  0  0  0
   23.3364    4.8826   55.1101 C   0  0  0  0  0  0  0  0  0  0  0  0
   24.2225    6.0988   55.3636 C   0  0  0  0  0  0  0  0  0  0  0  0
   23.7714    7.2484   54.6675 N   0  0  0  0  0  0  0  0  0  0  0  0
   28.8830    8.6547   55.9720 F   0  0  0  0  0  0  0  0  0  0  0  0
   27.6435    9.1008   56.2668 C   0  0  0  0  0  0  0  0  0  0  0  0
   26.6019    8.6495   55.4908 C   0  0  0  0  0  0  0  0  0  0  0  0
   25.2712    9.0352   55.6912 C   0  0  0  0  0  0  0  0  0  0  0  0
   25.0713    9.8984   56.7196 C   0  0  0  0  0  0  0  0  0  0  0  0
   26.1320   10.3663   57.5195 C   0  0  0  0  0  0  0  0  0  0  0  0
   27.4274    9.9688   57.2965 C   0  0  0  0  0  0  0  0  0  0  0  0
   28.5573   10.4735   58.1565 C   0  0  0  0  0  0  0  0  0  0  0  0
   29.3677   11.2219   57.3196 F   0  0  0  0  0  0  0  0  0  0  0  0
   28.0239   11.3350   59.0793 F   0  0  0  0  0  0  0  0  0  0  0  0
   29.2210    9.4551   58.7704 F   0  0  0  0  0  0  0  0  0  0  0  0
   21.6699    9.0970   52.3505 C   0  0  0  0  0  0  0  0  0  0  0  0
   20.6871    8.2965   51.8213 C   0  0  0  0  0  0  0  0  0  0  0  0
   19.7883    8.7671   50.9050 C   0  0  0  0  0  0  0  0  0  0  0  0
   19.8995   10.0573   50.5337 N   0  0  0  0  0  0  0  0  0  0  0  0
   20.8274   10.8800   51.0093 C   0  0  0  0  0  0  0  0  0  0  0  0
   20.8623   12.1792   50.5713 F   0  0  0  0  0  0  0  0  0  0  0  0
   21.7304   10.4027   51.9315 C   0  0  0  0  0  0  0  0  0  0  0  0
 11 12  1  0  0  0
 12 13  2  0  0  0
 13 14  1  0  0  0
 14 15  2  0  0  0
 15 16  1  0  0  0
 16 17  2  0  0  0
 17 18  1  0  0  0
 18 19  1  0  0  0
 18 20  1  0  0  0
 18 21  1  0  0  0
 14  1  1  0  0  0
  1  2  2  0  0  0
  2  3  1  0  0  0
  3  4  2  0  0  0
  4  5  1  0  0  0
  5  6  1  0  0  0
  6  7  1  0  0  0
  7  8  1  0  0  0
  8  9  1  0  0  0
  9 10  1  0  0  0
  3 22  1  0  0  0
 22 23  2  0  0  0
 23 24  1  0  0  0
 24 25  2  0  0  0
 25 26  1  0  0  0
 26 27  1  0  0  0
 26 28  2  0  0  0
 17 12  1  0  0  0
 10  1  1  0  0  0
 28 22  1  0  0  0
 10  4  1  0  0  0
M  END
> <minimizedAffinity>
33.17181

> <CNNscore>
0.4324951470

> <CNNaffinity>
5.9872159958

> <CNN_VS>
2.5894417763

> <CNNaffinity_variance>
0.7874908447

$$$$
[H]c1nc(F)c([H])c(-c2nc(-c3c([H])c([H])c(C(F)(F)F)c(F)c3[H])n3c2C([H])([H])C([H])([H])OC([H])([H])C3([H])[H])c1[H]


 28 31  0  0  0  0  0  0  0  0999 V2000
   21.4384    7.0830   54.1055 C   0  0  0  0  0  0  0  0  0  0  0  0
   22.7654    6.7779   53.8330 N   0  0  0  0  0  0  0  0  0  0  0  0
   23.5164    7.8544   54.1049 C   0  0  0  0  0  0  0  0  0  0  0  0
   22.6855    8.8563   54.5516 C   0  0  0  0  0  0  0  0  0  0  0  0
   23.1573   10.1641   54.9286 C   0  0  0  0  0  0  0  0  0  0  0  0
   22.3574   11.3555   54.6040 C   0  0  0  0  0  0  0  0  0  0  0  0
   21.0051   11.2034   54.5615 O   0  0  0  0  0  0  0  0  0  0  0  0
   20.6123   10.3905   55.6029 C   0  0  0  0  0  0  0  0  0  0  0  0
   20.2693    9.0511   54.9571 C   0  0  0  0  0  0  0  0  0  0  0  0
   21.4241    8.3436   54.5381 N   0  0  0  0  0  0  0  0  0  0  0  0
   16.7567    6.1446   53.8795 F   0  0  0  0  0  0  0  0  0  0  0  0
   18.0034    5.6296   53.8243 C   0  0  0  0  0  0  0  0  0  0  0  0
   19.0594    6.4993   53.9624 C   0  0  0  0  0  0  0  0  0  0  0  0
   20.3988    6.0939   53.9238 C   0  0  0  0  0  0  0  0  0  0  0  0
   20.5917    4.7630   53.7385 C   0  0  0  0  0  0  0  0  0  0  0  0
   19.5162    3.8648   53.5957 C   0  0  0  0  0  0  0  0  0  0  0  0
   18.2127    4.2947   53.6380 C   0  0  0  0  0  0  0  0  0  0  0  0
   17.0670    3.3279   53.4845 C   0  0  0  0  0  0  0  0  0  0  0  0
   16.7140    2.9488   54.7686 F   0  0  0  0  0  0  0  0  0  0  0  0
   16.0063    4.0207   52.9614 F   0  0  0  0  0  0  0  0  0  0  0  0
   17.3970    2.2730   52.6890 F   0  0  0  0  0  0  0  0  0  0  0  0
   24.9754    7.8792   53.9266 C   0  0  0  0  0  0  0  0  0  0  0  0
   25.7918    7.2946   54.8638 C   0  0  0  0  0  0  0  0  0  0  0  0
   27.1529    7.2952   54.7366 C   0  0  0  0  0  0  0  0  0  0  0  0
   27.6736    7.8954   53.6488 N   0  0  0  0  0  0  0  0  0  0  0  0
   26.9371    8.4771   52.7091 C   0  0  0  0  0  0  0  0  0  0  0  0
   27.5575    9.0636   51.6357 F   0  0  0  0  0  0  0  0  0  0  0  0
   25.5673    8.4745   52.8406 C   0  0  0  0  0  0  0  0  0  0  0  0
 11 12  1  0  0  0
 12 13  2  0  0  0
 13 14  1  0  0  0
 14 15  2  0  0  0
 15 16  1  0  0  0
 16 17  2  0  0  0
 17 18  1  0  0  0
 18 19  1  0  0  0
 18 20  1  0  0  0
 18 21  1  0  0  0
 14  1  1  0  0  0
  1  2  2  0  0  0
  2  3  1  0  0  0
  3  4  2  0  0  0
  4  5  1  0  0  0
  5  6  1  0  0  0
  6  7  1  0  0  0
  7  8  1  0  0  0
  8  9  1  0  0  0
  9 10  1  0  0  0
  3 22  1  0  0  0
 22 23  2  0  0  0
 23 24  1  0  0  0
 24 25  2  0  0  0
 25 26  1  0  0  0
 26 27  1  0  0  0
 26 28  2  0  0  0
 17 12  1  0  0  0
 10  1  1  0  0  0
 28 22  1  0  0  0
 10  4  1  0  0  0
M  END
> <minimizedAffinity>
30.72467

> <CNNscore>
0.4271256924

> <CNNaffinity>
5.9263639450

> <CNN_VS>
2.5313022137

> <CNNaffinity_variance>
0.4741532207

$$$$
[H]c1c([H])c(C([H])(N([H])[H])C2([H])C([H])([H])C([H])([H])C2([H])[H])c([H])c(F)c1-c1c([H])c([H])n2c(C([H])([H])C3([H])C([H])([H])C3([H])[H])nnc2c1C(F)(F)F


 32 36  0  0  0  0  0  0  0  0999 V2000
   25.0171    8.7320   55.4900 C   0  0  0  0  0  0  0  0  0  0  0  0
   24.8223    9.1816   56.8013 C   0  0  0  0  0  0  0  0  0  0  0  0
   25.8910    9.6148   57.5348 C   0  0  0  0  0  0  0  0  0  0  0  0
   27.1179    9.6048   56.9903 N   0  0  0  0  0  0  0  0  0  0  0  0
   28.3194    9.9796   57.5161 C   0  0  0  0  0  0  0  0  0  0  0  0
   29.2151    9.7613   56.5410 N   0  0  0  0  0  0  0  0  0  0  0  0
   28.6295    9.2812   55.4706 N   0  0  0  0  0  0  0  0  0  0  0  0
   27.2966    9.1794   55.7497 C   0  0  0  0  0  0  0  0  0  0  0  0
   26.2633    8.7147   54.9135 C   0  0  0  0  0  0  0  0  0  0  0  0
   21.3227    7.5063   53.6980 C   0  0  0  0  0  0  0  0  0  0  0  0
   22.4390    6.7068   53.6091 C   0  0  0  0  0  0  0  0  0  0  0  0
   23.6529    7.0830   54.1611 C   0  0  0  0  0  0  0  0  0  0  0  0
   23.8178    8.2689   54.8259 C   0  0  0  0  0  0  0  0  0  0  0  0
   22.6539    9.0605   54.8971 C   0  0  0  0  0  0  0  0  0  0  0  0
   22.7699   10.2618   55.5594 F   0  0  0  0  0  0  0  0  0  0  0  0
   21.4529    8.6922   54.3533 C   0  0  0  0  0  0  0  0  0  0  0  0
   19.8057    5.6314   53.2556 N   0  0  0  0  0  0  0  0  0  0  0  0
   20.0603    7.0212   53.0767 C   0  0  0  0  0  0  0  0  0  0  0  0
   19.5107    5.4321   54.2166 H   0  0  0  0  0  0  0  0  0  0  0  0
   20.5207    4.9885   52.9015 H   0  0  0  0  0  0  0  0  0  0  0  0
   19.9991    7.5209   51.6680 C   0  0  0  0  0  0  0  0  0  0  0  0
   19.6140    8.9418   51.4509 C   0  0  0  0  0  0  0  0  0  0  0  0
   21.0895    9.2401   51.1477 C   0  0  0  0  0  0  0  0  0  0  0  0
   21.3666    7.7563   51.0427 C   0  0  0  0  0  0  0  0  0  0  0  0
   26.5505    8.2706   53.5436 C   0  0  0  0  0  0  0  0  0  0  0  0
   27.2051    9.2303   52.7802 F   0  0  0  0  0  0  0  0  0  0  0  0
   27.5966    7.2934   53.6985 F   0  0  0  0  0  0  0  0  0  0  0  0
   25.5859    7.5765   52.8922 F   0  0  0  0  0  0  0  0  0  0  0  0
   28.5500   10.5065   58.8769 C   0  0  0  0  0  0  0  0  0  0  0  0
   28.8342   11.9828   58.9158 C   0  0  0  0  0  0  0  0  0  0  0  0
   28.0940   12.7210   60.0114 C   0  0  0  0  0  0  0  0  0  0  0  0
   29.5654   12.6307   60.0189 C   0  0  0  0  0  0  0  0  0  0  0  0
 17 18  1  0  0  0
 18 21  1  0  0  0
 21 22  1  0  0  0
 22 23  1  0  0  0
 23 24  1  0  0  0
 18 10  1  0  0  0
 10 11  2  0  0  0
 11 12  1  0  0  0
 12 13  2  0  0  0
 13 14  1  0  0  0
 14 15  1  0  0  0
 14 16  2  0  0  0
 13  1  1  0  0  0
  1  2  1  0  0  0
  2  3  2  0  0  0
  3  4  1  0  0  0
  4  5  1  0  0  0
  5 29  1  0  0  0
 29 30  1  0  0  0
 30 31  1  0  0  0
 31 32  1  0  0  0
  5  6  2  0  0  0
  6  7  1  0  0  0
  7  8  2  0  0  0
  8  9  1  0  0  0
  9 25  1  0  0  0
 25 26  1  0  0  0
 25 27  1  0  0  0
 25 28  1  0  0  0
 24 21  1  0  0  0
 16 10  1  0  0  0
  9  1  2  0  0  0
  8  4  1  0  0  0
 32 30  1  0  0  0
 17 19  1  0  0  0
 17 20  1  0  0  0
M  END
> <minimizedAffinity>
16.66446

> <CNNscore>
0.5816556811

> <CNNaffinity>
6.7142934799

> <CNN_VS>
3.9054069519

> <CNNaffinity_variance>
0.7583613992

$$$$
[H]c1c([H])c(C([H])(N([H])[H])C2([H])C([H])([H])C([H])([H])C2([H])[H])c([H])c(F)c1-c1c([H])c([H])n2c(C([H])([H])C3([H])C([H])([H])C3([H])[H])nnc2c1C(F)(F)F


 32 36  0  0  0  0  0  0  0  0999 V2000
   22.8175    7.4374   54.4228 C   0  0  0  0  0  0  0  0  0  0  0  0
   22.5508    6.1523   54.9095 C   0  0  0  0  0  0  0  0  0  0  0  0
   21.3974    5.5159   54.5454 C   0  0  0  0  0  0  0  0  0  0  0  0
   20.5310    6.1298   53.7242 N   0  0  0  0  0  0  0  0  0  0  0  0
   19.3323    5.7059   53.2301 C   0  0  0  0  0  0  0  0  0  0  0  0
   18.8906    6.7141   52.4624 N   0  0  0  0  0  0  0  0  0  0  0  0
   19.7436    7.7098   52.4662 N   0  0  0  0  0  0  0  0  0  0  0  0
   20.7883    7.3448   53.2663 C   0  0  0  0  0  0  0  0  0  0  0  0
   21.9455    8.0828   53.5809 C   0  0  0  0  0  0  0  0  0  0  0  0
   26.5942    8.9322   55.7882 C   0  0  0  0  0  0  0  0  0  0  0  0
   25.4197    9.4513   56.2826 C   0  0  0  0  0  0  0  0  0  0  0  0
   24.1828    9.0031   55.8479 C   0  0  0  0  0  0  0  0  0  0  0  0
   24.0517    8.0208   54.9027 C   0  0  0  0  0  0  0  0  0  0  0  0
   25.2748    7.5134   54.4201 C   0  0  0  0  0  0  0  0  0  0  0  0
   25.1937    6.5208   53.4697 F   0  0  0  0  0  0  0  0  0  0  0  0
   26.4986    7.9534   54.8472 C   0  0  0  0  0  0  0  0  0  0  0  0
   27.8191   10.8303   56.7417 N   0  0  0  0  0  0  0  0  0  0  0  0
   27.8772    9.4731   56.3140 C   0  0  0  0  0  0  0  0  0  0  0  0
   27.3189   10.9145   57.6321 H   0  0  0  0  0  0  0  0  0  0  0  0
   27.5288   11.5169   56.0386 H   0  0  0  0  0  0  0  0  0  0  0  0
   28.9682    9.1387   55.3466 C   0  0  0  0  0  0  0  0  0  0  0  0
   28.6329    8.2496   54.2014 C   0  0  0  0  0  0  0  0  0  0  0  0
   28.6582    9.4913   53.2985 C   0  0  0  0  0  0  0  0  0  0  0  0
   29.3221   10.2810   54.4053 C   0  0  0  0  0  0  0  0  0  0  0  0
   22.1556    9.4228   53.0183 C   0  0  0  0  0  0  0  0  0  0  0  0
   22.1780   10.4260   53.9805 F   0  0  0  0  0  0  0  0  0  0  0  0
   23.5339    9.4216   52.6017 F   0  0  0  0  0  0  0  0  0  0  0  0
   21.4973    9.7356   51.8758 F   0  0  0  0  0  0  0  0  0  0  0  0
   18.6852    4.4069   53.5060 C   0  0  0  0  0  0  0  0  0  0  0  0
   17.3045    4.5287   54.0897 C   0  0  0  0  0  0  0  0  0  0  0  0
   16.3523    3.4388   53.6442 C   0  0  0  0  0  0  0  0  0  0  0  0
   16.7540    3.5633   55.0572 C   0  0  0  0  0  0  0  0  0  0  0  0
 17 18  1  0  0  0
 18 21  1  0  0  0
 21 22  1  0  0  0
 22 23  1  0  0  0
 23 24  1  0  0  0
 18 10  1  0  0  0
 10 11  2  0  0  0
 11 12  1  0  0  0
 12 13  2  0  0  0
 13 14  1  0  0  0
 14 15  1  0  0  0
 14 16  2  0  0  0
 13  1  1  0  0  0
  1  2  1  0  0  0
  2  3  2  0  0  0
  3  4  1  0  0  0
  4  5  1  0  0  0
  5 29  1  0  0  0
 29 30  1  0  0  0
 30 31  1  0  0  0
 31 32  1  0  0  0
  5  6  2  0  0  0
  6  7  1  0  0  0
  7  8  2  0  0  0
  8  9  1  0  0  0
  9 25  1  0  0  0
 25 26  1  0  0  0
 25 27  1  0  0  0
 25 28  1  0  0  0
 24 21  1  0  0  0
 16 10  1  0  0  0
  9  1  2  0  0  0
  8  4  1  0  0  0
 32 30  1  0  0  0
 17 19  1  0  0  0
 17 20  1  0  0  0
M  END
> <minimizedAffinity>
21.84904

> <CNNscore>
0.5292461514

> <CNNaffinity>
6.6983842850

> <CNN_VS>
3.5450940132

> <CNNaffinity_variance>
0.2289121151

$$$$
[H]c1c([H])c(C([H])(N([H])[H])C2([H])C([H])([H])C([H])([H])C2([H])[H])c([H])c(F)c1-c1c([H])c([H])n2c(C([H])([H])C3([H])C([H])([H])C3([H])[H])nnc2c1C(F)(F)F


 32 36  0  0  0  0  0  0  0  0999 V2000
   23.0931    7.2712   54.2484 C   0  0  0  0  0  0  0  0  0  0  0  0
   22.9079    5.9282   54.5967 C   0  0  0  0  0  0  0  0  0  0  0  0
   21.7721    5.2770   54.2047 C   0  0  0  0  0  0  0  0  0  0  0  0
   20.8445    5.9322   53.4889 N   0  0  0  0  0  0  0  0  0  0  0  0
   19.6480    5.5040   52.9932 C   0  0  0  0  0  0  0  0  0  0  0  0
   19.1277    6.5666   52.3598 N   0  0  0  0  0  0  0  0  0  0  0  0
   19.9319    7.5986   52.4452 N   0  0  0  0  0  0  0  0  0  0  0  0
   21.0248    7.2020   53.1616 C   0  0  0  0  0  0  0  0  0  0  0  0
   22.1576    7.9597   53.5159 C   0  0  0  0  0  0  0  0  0  0  0  0
   26.5764    9.2391   55.7833 C   0  0  0  0  0  0  0  0  0  0  0  0
   26.6962    8.2531   54.8312 C   0  0  0  0  0  0  0  0  0  0  0  0
   25.5914    7.5847   54.3286 C   0  0  0  0  0  0  0  0  0  0  0  0
   24.3168    7.8611   54.7466 C   0  0  0  0  0  0  0  0  0  0  0  0
   24.2334    8.8758   55.7212 C   0  0  0  0  0  0  0  0  0  0  0  0
   22.9708    9.1912   56.1702 F   0  0  0  0  0  0  0  0  0  0  0  0
   25.3224    9.5385   56.2198 C   0  0  0  0  0  0  0  0  0  0  0  0
   29.0273    9.2934   55.8282 N   0  0  0  0  0  0  0  0  0  0  0  0
   27.8175    9.9047   56.2649 C   0  0  0  0  0  0  0  0  0  0  0  0
   29.2028    9.4905   54.8380 H   0  0  0  0  0  0  0  0  0  0  0  0
   29.1577    8.3094   56.0826 H   0  0  0  0  0  0  0  0  0  0  0  0
   27.6953   10.1335   57.7382 C   0  0  0  0  0  0  0  0  0  0  0  0
   28.4624    9.2383   58.6463 C   0  0  0  0  0  0  0  0  0  0  0  0
   29.4413   10.3986   58.8770 C   0  0  0  0  0  0  0  0  0  0  0  0
   28.4596   11.3531   58.2330 C   0  0  0  0  0  0  0  0  0  0  0  0
   22.2806    9.3627   53.1002 C   0  0  0  0  0  0  0  0  0  0  0  0
   23.5405    9.6818   52.6069 F   0  0  0  0  0  0  0  0  0  0  0  0
   21.4935    9.4477   51.8975 F   0  0  0  0  0  0  0  0  0  0  0  0
   21.7176   10.3056   53.8943 F   0  0  0  0  0  0  0  0  0  0  0  0
   19.0751    4.1507   53.1442 C   0  0  0  0  0  0  0  0  0  0  0  0
   18.1045    4.0267   54.2862 C   0  0  0  0  0  0  0  0  0  0  0  0
   16.8327    4.8273   54.0995 C   0  0  0  0  0  0  0  0  0  0  0  0
   16.7991    3.3547   54.1609 C   0  0  0  0  0  0  0  0  0  0  0  0
 17 18  1  0  0  0
 18 21  1  0  0  0
 21 22  1  0  0  0
 22 23  1  0  0  0
 23 24  1  0  0  0
 18 10  1  0  0  0
 10 11  2  0  0  0
 11 12  1  0  0  0
 12 13  2  0  0  0
 13 14  1  0  0  0
 14 15  1  0  0  0
 14 16  2  0  0  0
 13  1  1  0  0  0
  1  2  1  0  0  0
  2  3  2  0  0  0
  3  4  1  0  0  0
  4  5  1  0  0  0
  5 29  1  0  0  0
 29 30  1  0  0  0
 30 31  1  0  0  0
 31 32  1  0  0  0
  5  6  2  0  0  0
  6  7  1  0  0  0
  7  8  2  0  0  0
  8  9  1  0  0  0
  9 25  1  0  0  0
 25 26  1  0  0  0
 25 27  1  0  0  0
 25 28  1  0  0  0
 24 21  1  0  0  0
 16 10  1  0  0  0
  9  1  2  0  0  0
  8  4  1  0  0  0
 32 30  1  0  0  0
 17 19  1  0  0  0
 17 20  1  0  0  0
M  END
> <minimizedAffinity>
17.31160

> <CNNscore>
0.5178647041

> <CNNaffinity>
6.7899389267

> <CNN_VS>
3.5162696838

> <CNNaffinity_variance>
0.2731364667

$$$$
[H]c1c([H])c(C([H])(N([H])[H])C2([H])C([H])([H])C([H])([H])C2([H])[H])c([H])c(F)c1-c1c([H])c([H])n2c(C([H])([H])C3([H])C([H])([H])C3([H])[H])nnc2c1C(F)(F)F


 32 36  0  0  0  0  0  0  0  0999 V2000
   24.1463    8.8220   54.5536 C   0  0  0  0  0  0  0  0  0  0  0  0
   23.6174   10.0083   54.0318 C   0  0  0  0  0  0  0  0  0  0  0  0
   22.5907    9.9540   53.1314 C   0  0  0  0  0  0  0  0  0  0  0  0
   22.0991    8.7627   52.7560 N   0  0  0  0  0  0  0  0  0  0  0  0
   21.0953    8.4577   51.8842 C   0  0  0  0  0  0  0  0  0  0  0  0
   21.0224    7.1177   51.8844 N   0  0  0  0  0  0  0  0  0  0  0  0
   21.9148    6.6036   52.6959 N   0  0  0  0  0  0  0  0  0  0  0  0
   22.6023    7.6438   53.2529 C   0  0  0  0  0  0  0  0  0  0  0  0
   23.6574    7.5931   54.1840 C   0  0  0  0  0  0  0  0  0  0  0  0
   27.5562    9.1931   57.1220 C   0  0  0  0  0  0  0  0  0  0  0  0
   26.2887    9.4106   57.6113 C   0  0  0  0  0  0  0  0  0  0  0  0
   25.1674    9.3172   56.8026 C   0  0  0  0  0  0  0  0  0  0  0  0
   25.2496    9.0050   55.4717 C   0  0  0  0  0  0  0  0  0  0  0  0
   26.5624    8.7890   55.0068 C   0  0  0  0  0  0  0  0  0  0  0  0
   26.6952    8.4690   53.6744 F   0  0  0  0  0  0  0  0  0  0  0  0
   27.6724    8.8802   55.8025 C   0  0  0  0  0  0  0  0  0  0  0  0
   28.5539    8.5837   59.2773 N   0  0  0  0  0  0  0  0  0  0  0  0
   28.7025    9.3137   58.0635 C   0  0  0  0  0  0  0  0  0  0  0  0
   28.6773    7.5786   59.1199 H   0  0  0  0  0  0  0  0  0  0  0  0
   27.7360    8.8145   59.8499 H   0  0  0  0  0  0  0  0  0  0  0  0
   29.0497   10.7614   58.2097 C   0  0  0  0  0  0  0  0  0  0  0  0
   27.9311   11.7358   58.3266 C   0  0  0  0  0  0  0  0  0  0  0  0
   28.2514   11.8433   59.8245 C   0  0  0  0  0  0  0  0  0  0  0  0
   29.5655   11.1299   59.5934 C   0  0  0  0  0  0  0  0  0  0  0  0
   24.1472    6.3053   54.6920 C   0  0  0  0  0  0  0  0  0  0  0  0
   23.2481    5.6716   55.5420 F   0  0  0  0  0  0  0  0  0  0  0  0
   24.0970    5.4301   53.5498 F   0  0  0  0  0  0  0  0  0  0  0  0
   25.4465    6.2313   55.0698 F   0  0  0  0  0  0  0  0  0  0  0  0
   20.2834    9.4238   51.1160 C   0  0  0  0  0  0  0  0  0  0  0  0
   20.5053   10.8563   51.5163 C   0  0  0  0  0  0  0  0  0  0  0  0
   21.9133   11.3527   51.2627 C   0  0  0  0  0  0  0  0  0  0  0  0
   20.7646   11.9311   50.5422 C   0  0  0  0  0  0  0  0  0  0  0  0
 17 18  1  0  0  0
 18 21  1  0  0  0
 21 22  1  0  0  0
 22 23  1  0  0  0
 23 24  1  0  0  0
 18 10  1  0  0  0
 10 11  2  0  0  0
 11 12  1  0  0  0
 12 13  2  0  0  0
 13 14  1  0  0  0
 14 15  1  0  0  0
 14 16  2  0  0  0
 13  1  1  0  0  0
  1  2  1  0  0  0
  2  3  2  0  0  0
  3  4  1  0  0  0
  4  5  1  0  0  0
  5 29  1  0  0  0
 29 30  1  0  0  0
 30 31  1  0  0  0
 31 32  1  0  0  0
  5  6  2  0  0  0
  6  7  1  0  0  0
  7  8  2  0  0  0
  8  9  1  0  0  0
  9 25  1  0  0  0
 25 26  1  0  0  0
 25 27  1  0  0  0
 25 28  1  0  0  0
 24 21  1  0  0  0
 16 10  1  0  0  0
  9  1  2  0  0  0
  8  4  1  0  0  0
 32 30  1  0  0  0
 17 19  1  0  0  0
 17 20  1  0  0  0
M  END
> <minimizedAffinity>
21.77195

> <CNNscore>
0.5030087233

> <CNNaffinity>
6.6557426453

> <CNN_VS>
3.3478965759

> <CNNaffinity_variance>
0.2939549088

$$$$
[H]c1c([H])c(C([H])(N([H])[H])C2([H])C([H])([H])C([H])([H])C2([H])[H])c([H])c(F)c1-c1c([H])c([H])n2c(C([H])([H])C3([H])C([H])([H])C3([H])[H])nnc2c1C(F)(F)F


 32 36  0  0  0  0  0  0  0  0999 V2000
   23.3967    7.9620   54.3570 C   0  0  0  0  0  0  0  0  0  0  0  0
   23.4059    6.5757   54.1638 C   0  0  0  0  0  0  0  0  0  0  0  0
   22.3222    5.9629   53.5999 C   0  0  0  0  0  0  0  0  0  0  0  0
   21.2587    6.6971   53.2368 N   0  0  0  0  0  0  0  0  0  0  0  0
   20.0786    6.3185   52.6669 C   0  0  0  0  0  0  0  0  0  0  0  0
   19.3775    7.4533   52.5198 N   0  0  0  0  0  0  0  0  0  0  0  0
   20.0588    8.4817   52.9641 N   0  0  0  0  0  0  0  0  0  0  0  0
   21.2553    8.0078   53.4210 C   0  0  0  0  0  0  0  0  0  0  0  0
   22.3198    8.7317   53.9916 C   0  0  0  0  0  0  0  0  0  0  0  0
   27.0545    9.3297   56.1210 C   0  0  0  0  0  0  0  0  0  0  0  0
   25.8464    9.6094   56.7172 C   0  0  0  0  0  0  0  0  0  0  0  0
   24.6452    9.1980   56.1624 C   0  0  0  0  0  0  0  0  0  0  0  0
   24.5849    8.4914   54.9908 C   0  0  0  0  0  0  0  0  0  0  0  0
   25.8407    8.2235   54.4098 C   0  0  0  0  0  0  0  0  0  0  0  0
   25.8308    7.5122   53.2312 F   0  0  0  0  0  0  0  0  0  0  0  0
   27.0293    8.6280   54.9550 C   0  0  0  0  0  0  0  0  0  0  0  0
   29.4490    9.0125   56.5427 N   0  0  0  0  0  0  0  0  0  0  0  0
   28.2949    9.8098   56.7888 C   0  0  0  0  0  0  0  0  0  0  0  0
   29.8014    9.1587   55.5915 H   0  0  0  0  0  0  0  0  0  0  0  0
   29.3867    8.0260   56.8127 H   0  0  0  0  0  0  0  0  0  0  0  0
   27.9864   10.0872   58.2261 C   0  0  0  0  0  0  0  0  0  0  0  0
   28.7054    9.2910   59.2573 C   0  0  0  0  0  0  0  0  0  0  0  0
   29.5645   10.5318   59.5403 C   0  0  0  0  0  0  0  0  0  0  0  0
   28.5979   11.3810   58.7441 C   0  0  0  0  0  0  0  0  0  0  0  0
   22.2354   10.1893   54.1489 C   0  0  0  0  0  0  0  0  0  0  0  0
   22.0387   10.8616   52.9482 F   0  0  0  0  0  0  0  0  0  0  0  0
   20.9629   10.4050   54.7872 F   0  0  0  0  0  0  0  0  0  0  0  0
   23.1041   10.7810   55.0043 F   0  0  0  0  0  0  0  0  0  0  0  0
   19.6868    4.9408   52.3051 C   0  0  0  0  0  0  0  0  0  0  0  0
   19.5737    4.0131   53.4833 C   0  0  0  0  0  0  0  0  0  0  0  0
   18.1547    3.5830   53.7910 C   0  0  0  0  0  0  0  0  0  0  0  0
   19.1667    2.6024   53.3581 C   0  0  0  0  0  0  0  0  0  0  0  0
 17 18  1  0  0  0
 18 21  1  0  0  0
 21 22  1  0  0  0
 22 23  1  0  0  0
 23 24  1  0  0  0
 18 10  1  0  0  0
 10 11  2  0  0  0
 11 12  1  0  0  0
 12 13  2  0  0  0
 13 14  1  0  0  0
 14 15  1  0  0  0
 14 16  2  0  0  0
 13  1  1  0  0  0
  1  2  1  0  0  0
  2  3  2  0  0  0
  3  4  1  0  0  0
  4  5  1  0  0  0
  5 29  1  0  0  0
 29 30  1  0  0  0
 30 31  1  0  0  0
 31 32  1  0  0  0
  5  6  2  0  0  0
  6  7  1  0  0  0
  7  8  2  0  0  0
  8  9  1  0  0  0
  9 25  1  0  0  0
 25 26  1  0  0  0
 25 27  1  0  0  0
 25 28  1  0  0  0
 24 21  1  0  0  0
 16 10  1  0  0  0
  9  1  2  0  0  0
  8  4  1  0  0  0
 32 30  1  0  0  0
 17 19  1  0  0  0
 17 20  1  0  0  0
M  END
> <minimizedAffinity>
17.33635

> <CNNscore>
0.5006329417

> <CNNaffinity>
6.7245011330

> <CNN_VS>
3.3665068150

> <CNNaffinity_variance>
0.2260725945

$$$$
[H]c1c([H])c(C([H])(N([H])[H])C2([H])C([H])([H])C([H])([H])C2([H])[H])c([H])c(F)c1-c1c([H])c([H])n2c(C([H])([H])C3([H])C([H])([H])C3([H])[H])nnc2c1C(F)(F)F


 32 36  0  0  0  0  0  0  0  0999 V2000
   22.8786    7.6011   54.3749 C   0  0  0  0  0  0  0  0  0  0  0  0
   22.6341    6.3083   54.8526 C   0  0  0  0  0  0  0  0  0  0  0  0
   21.4851    5.6601   54.4956 C   0  0  0  0  0  0  0  0  0  0  0  0
   20.6016    6.2701   53.6898 N   0  0  0  0  0  0  0  0  0  0  0  0
   19.4030    5.8351   53.2051 C   0  0  0  0  0  0  0  0  0  0  0  0
   18.9396    6.8443   52.4517 N   0  0  0  0  0  0  0  0  0  0  0  0
   19.7795    7.8511   52.4553 N   0  0  0  0  0  0  0  0  0  0  0  0
   20.8379    7.4925   53.2402 C   0  0  0  0  0  0  0  0  0  0  0  0
   21.9889    8.2427   53.5488 C   0  0  0  0  0  0  0  0  0  0  0  0
   26.6557    9.1449   55.6835 C   0  0  0  0  0  0  0  0  0  0  0  0
   25.4902    9.5436   56.2965 C   0  0  0  0  0  0  0  0  0  0  0  0
   24.2518    9.0777   55.8848 C   0  0  0  0  0  0  0  0  0  0  0  0
   24.1104    8.1962   54.8463 C   0  0  0  0  0  0  0  0  0  0  0  0
   25.3247    7.8105   54.2437 C   0  0  0  0  0  0  0  0  0  0  0  0
   25.2332    6.9221   53.1961 F   0  0  0  0  0  0  0  0  0  0  0  0
   26.5498    8.2683   54.6476 C   0  0  0  0  0  0  0  0  0  0  0  0
   29.0847    8.8962   55.9078 N   0  0  0  0  0  0  0  0  0  0  0  0
   27.9411    9.6955   56.1932 C   0  0  0  0  0  0  0  0  0  0  0  0
   29.3464    8.9677   54.9196 H   0  0  0  0  0  0  0  0  0  0  0  0
   29.0678    7.9347   56.2619 H   0  0  0  0  0  0  0  0  0  0  0  0
   27.7580   10.0870   57.6254 C   0  0  0  0  0  0  0  0  0  0  0  0
   28.3672    9.2162   58.6670 C   0  0  0  0  0  0  0  0  0  0  0  0
   29.4521   10.2869   58.8523 C   0  0  0  0  0  0  0  0  0  0  0  0
   28.6208   11.2658   58.0522 C   0  0  0  0  0  0  0  0  0  0  0  0
   22.1752    9.5904   52.9963 C   0  0  0  0  0  0  0  0  0  0  0  0
   22.3422   10.5665   53.9719 F   0  0  0  0  0  0  0  0  0  0  0  0
   23.4947    9.5596   52.4208 F   0  0  0  0  0  0  0  0  0  0  0  0
   21.3985    9.9528   51.9465 F   0  0  0  0  0  0  0  0  0  0  0  0
   18.7759    4.5252   53.4761 C   0  0  0  0  0  0  0  0  0  0  0  0
   17.3423    4.6193   53.9207 C   0  0  0  0  0  0  0  0  0  0  0  0
   16.5267    3.3777   53.6271 C   0  0  0  0  0  0  0  0  0  0  0  0
   16.7859    3.8036   55.0144 C   0  0  0  0  0  0  0  0  0  0  0  0
 17 18  1  0  0  0
 18 21  1  0  0  0
 21 22  1  0  0  0
 22 23  1  0  0  0
 23 24  1  0  0  0
 18 10  1  0  0  0
 10 11  2  0  0  0
 11 12  1  0  0  0
 12 13  2  0  0  0
 13 14  1  0  0  0
 14 15  1  0  0  0
 14 16  2  0  0  0
 13  1  1  0  0  0
  1  2  1  0  0  0
  2  3  2  0  0  0
  3  4  1  0  0  0
  4  5  1  0  0  0
  5 29  1  0  0  0
 29 30  1  0  0  0
 30 31  1  0  0  0
 31 32  1  0  0  0
  5  6  2  0  0  0
  6  7  1  0  0  0
  7  8  2  0  0  0
  8  9  1  0  0  0
  9 25  1  0  0  0
 25 26  1  0  0  0
 25 27  1  0  0  0
 25 28  1  0  0  0
 24 21  1  0  0  0
 16 10  1  0  0  0
  9  1  2  0  0  0
  8  4  1  0  0  0
 32 30  1  0  0  0
 17 19  1  0  0  0
 17 20  1  0  0  0
M  END
> <minimizedAffinity>
17.91039

> <CNNscore>
0.4975466430

> <CNNaffinity>
6.6879501343

> <CNN_VS>
3.3275671005

> <CNNaffinity_variance>
0.2440012246

$$$$
[H]c1c([H])c(C([H])(N([H])[H])C2([H])C([H])([H])C([H])([H])C2([H])[H])c([H])c(F)c1-c1c([H])c([H])n2c(C([H])([H])C3([H])C([H])([H])C3([H])[H])nnc2c1C(F)(F)F


 32 36  0  0  0  0  0  0  0  0999 V2000
   22.3634    7.0956   53.8148 C   0  0  0  0  0  0  0  0  0  0  0  0
   23.1595    6.2252   54.5685 C   0  0  0  0  0  0  0  0  0  0  0  0
   24.5141    6.4036   54.6020 C   0  0  0  0  0  0  0  0  0  0  0  0
   25.0683    7.4124   53.9112 N   0  0  0  0  0  0  0  0  0  0  0  0
   26.3748    7.7849   53.7893 C   0  0  0  0  0  0  0  0  0  0  0  0
   26.3625    8.8565   52.9815 N   0  0  0  0  0  0  0  0  0  0  0  0
   25.1382    9.1471   52.6131 N   0  0  0  0  0  0  0  0  0  0  0  0
   24.3109    8.2331   53.2007 C   0  0  0  0  0  0  0  0  0  0  0  0
   22.9097    8.1344   53.1020 C   0  0  0  0  0  0  0  0  0  0  0  0
   18.2277    5.9807   53.6925 C   0  0  0  0  0  0  0  0  0  0  0  0
   18.5914    7.2779   53.9721 C   0  0  0  0  0  0  0  0  0  0  0  0
   19.9199    7.6662   54.0378 C   0  0  0  0  0  0  0  0  0  0  0  0
   20.9497    6.7875   53.8306 C   0  0  0  0  0  0  0  0  0  0  0  0
   20.5391    5.4695   53.5467 C   0  0  0  0  0  0  0  0  0  0  0  0
   21.5401    4.5501   53.3277 F   0  0  0  0  0  0  0  0  0  0  0  0
   19.2279    5.0821   53.4808 C   0  0  0  0  0  0  0  0  0  0  0  0
   15.9157    6.7017   54.0759 N   0  0  0  0  0  0  0  0  0  0  0  0
   16.7766    5.6540   53.6407 C   0  0  0  0  0  0  0  0  0  0  0  0
   15.8608    7.4478   53.3755 H   0  0  0  0  0  0  0  0  0  0  0  0
   16.0604    7.0423   55.0314 H   0  0  0  0  0  0  0  0  0  0  0  0
   16.5641    4.3220   54.2878 C   0  0  0  0  0  0  0  0  0  0  0  0
   15.3315    3.5667   53.9345 C   0  0  0  0  0  0  0  0  0  0  0  0
   16.2071    2.6442   53.0740 C   0  0  0  0  0  0  0  0  0  0  0  0
   17.4476    3.2194   53.7220 C   0  0  0  0  0  0  0  0  0  0  0  0
   22.1456    9.0967   52.2979 C   0  0  0  0  0  0  0  0  0  0  0  0
   21.3276    8.4937   51.3493 F   0  0  0  0  0  0  0  0  0  0  0  0
   21.1594    9.6174   53.2087 F   0  0  0  0  0  0  0  0  0  0  0  0
   22.7863   10.2147   51.8783 F   0  0  0  0  0  0  0  0  0  0  0  0
   27.5335    7.1232   54.4233 C   0  0  0  0  0  0  0  0  0  0  0  0
   28.2742    7.9983   55.3966 C   0  0  0  0  0  0  0  0  0  0  0  0
   28.5932    9.3782   54.8605 C   0  0  0  0  0  0  0  0  0  0  0  0
   27.6816    9.2022   56.0056 C   0  0  0  0  0  0  0  0  0  0  0  0
 17 18  1  0  0  0
 18 21  1  0  0  0
 21 22  1  0  0  0
 22 23  1  0  0  0
 23 24  1  0  0  0
 18 10  1  0  0  0
 10 11  2  0  0  0
 11 12  1  0  0  0
 12 13  2  0  0  0
 13 14  1  0  0  0
 14 15  1  0  0  0
 14 16  2  0  0  0
 13  1  1  0  0  0
  1  2  1  0  0  0
  2  3  2  0  0  0
  3  4  1  0  0  0
  4  5  1  0  0  0
  5 29  1  0  0  0
 29 30  1  0  0  0
 30 31  1  0  0  0
 31 32  1  0  0  0
  5  6  2  0  0  0
  6  7  1  0  0  0
  7  8  2  0  0  0
  8  9  1  0  0  0
  9 25  1  0  0  0
 25 26  1  0  0  0
 25 27  1  0  0  0
 25 28  1  0  0  0
 24 21  1  0  0  0
 16 10  1  0  0  0
  9  1  2  0  0  0
  8  4  1  0  0  0
 32 30  1  0  0  0
 17 19  1  0  0  0
 17 20  1  0  0  0
M  END
> <minimizedAffinity>
27.36728

> <CNNscore>
0.4577043355

> <CNNaffinity>
6.5019254684

> <CNN_VS>
2.9759595394

> <CNNaffinity_variance>
0.3806744218

$$$$
[H]c1c([H])c(C([H])(N([H])[H])C2([H])C([H])([H])C([H])([H])C2([H])[H])c([H])c(F)c1-c1c([H])c([H])n2c(C([H])([H])C3([H])C([H])([H])C3([H])[H])nnc2c1C(F)(F)F


 32 36  0  0  0  0  0  0  0  0999 V2000
   22.7752    7.0439   53.9561 C   0  0  0  0  0  0  0  0  0  0  0  0
   23.7528    6.3484   53.2349 C   0  0  0  0  0  0  0  0  0  0  0  0
   25.0572    6.7513   53.2995 C   0  0  0  0  0  0  0  0  0  0  0  0
   25.3883    7.8108   54.0543 N   0  0  0  0  0  0  0  0  0  0  0  0
   26.6020    8.3941   54.2718 C   0  0  0  0  0  0  0  0  0  0  0  0
   26.3580    9.4161   55.1066 N   0  0  0  0  0  0  0  0  0  0  0  0
   25.0819    9.4821   55.4004 N   0  0  0  0  0  0  0  0  0  0  0  0
   24.4601    8.4645   54.7349 C   0  0  0  0  0  0  0  0  0  0  0  0
   23.0925    8.1293   54.7351 C   0  0  0  0  0  0  0  0  0  0  0  0
   18.6982    5.8184   53.4684 C   0  0  0  0  0  0  0  0  0  0  0  0
   19.6328    4.9436   53.9729 C   0  0  0  0  0  0  0  0  0  0  0  0
   20.9624    5.3028   54.1250 C   0  0  0  0  0  0  0  0  0  0  0  0
   21.4281    6.5446   53.7836 C   0  0  0  0  0  0  0  0  0  0  0  0
   20.4430    7.4127   53.2713 C   0  0  0  0  0  0  0  0  0  0  0  0
   20.8635    8.6748   52.9168 F   0  0  0  0  0  0  0  0  0  0  0  0
   19.1287    7.0616   53.1198 C   0  0  0  0  0  0  0  0  0  0  0  0
   16.3122    6.2675   53.8114 N   0  0  0  0  0  0  0  0  0  0  0  0
   17.2921    5.3472   53.3413 C   0  0  0  0  0  0  0  0  0  0  0  0
   16.1998    7.0503   53.1597 H   0  0  0  0  0  0  0  0  0  0  0  0
   16.3910    6.5546   54.7919 H   0  0  0  0  0  0  0  0  0  0  0  0
   17.2025    3.9590   53.8915 C   0  0  0  0  0  0  0  0  0  0  0  0
   16.2468    3.7135   55.0055 C   0  0  0  0  0  0  0  0  0  0  0  0
   15.3248    3.0211   53.9914 C   0  0  0  0  0  0  0  0  0  0  0  0
   16.4557    2.9895   52.9866 C   0  0  0  0  0  0  0  0  0  0  0  0
   22.1312    8.9044   55.5296 C   0  0  0  0  0  0  0  0  0  0  0  0
   21.2908    8.1116   56.3028 F   0  0  0  0  0  0  0  0  0  0  0  0
   22.9326    9.5221   56.5541 F   0  0  0  0  0  0  0  0  0  0  0  0
   21.5346    9.9659   54.9348 F   0  0  0  0  0  0  0  0  0  0  0  0
   27.8917    7.9673   53.6913 C   0  0  0  0  0  0  0  0  0  0  0  0
   29.0816    8.2934   54.5513 C   0  0  0  0  0  0  0  0  0  0  0  0
   29.3767    9.7752   54.6531 C   0  0  0  0  0  0  0  0  0  0  0  0
   28.9714    9.0000   55.8396 C   0  0  0  0  0  0  0  0  0  0  0  0
 17 18  1  0  0  0
 18 21  1  0  0  0
 21 22  1  0  0  0
 22 23  1  0  0  0
 23 24  1  0  0  0
 18 10  1  0  0  0
 10 11  2  0  0  0
 11 12  1  0  0  0
 12 13  2  0  0  0
 13 14  1  0  0  0
 14 15  1  0  0  0
 14 16  2  0  0  0
 13  1  1  0  0  0
  1  2  1  0  0  0
  2  3  2  0  0  0
  3  4  1  0  0  0
  4  5  1  0  0  0
  5 29  1  0  0  0
 29 30  1  0  0  0
 30 31  1  0  0  0
 31 32  1  0  0  0
  5  6  2  0  0  0
  6  7  1  0  0  0
  7  8  2  0  0  0
  8  9  1  0  0  0
  9 25  1  0  0  0
 25 26  1  0  0  0
 25 27  1  0  0  0
 25 28  1  0  0  0
 24 21  1  0  0  0
 16 10  1  0  0  0
  9  1  2  0  0  0
  8  4  1  0  0  0
 32 30  1  0  0  0
 17 19  1  0  0  0
 17 20  1  0  0  0
M  END
> <minimizedAffinity>
23.82764

> <CNNscore>
0.4410886168

> <CNNaffinity>
6.7282280922

> <CNN_VS>
2.9677448273

> <CNNaffinity_variance>
0.3918349147

$$$$
[H]c1c([H])c(C([H])(N([H])[H])C2([H])C([H])([H])C([H])([H])C2([H])[H])c([H])c(F)c1-c1c([H])c([H])n2c(C([H])([H])C3([H])C([H])([H])C3([H])[H])nnc2c1C(F)(F)F


 32 36  0  0  0  0  0  0  0  0999 V2000
   22.6427    7.0649   54.6057 C   0  0  0  0  0  0  0  0  0  0  0  0
   23.9014    6.4537   54.6452 C   0  0  0  0  0  0  0  0  0  0  0  0
   25.0002    7.1875   54.9947 C   0  0  0  0  0  0  0  0  0  0  0  0
   24.8614    8.4881   55.2968 N   0  0  0  0  0  0  0  0  0  0  0  0
   25.7944    9.4123   55.6656 C   0  0  0  0  0  0  0  0  0  0  0  0
   25.1099   10.5526   55.8451 N   0  0  0  0  0  0  0  0  0  0  0  0
   23.8333   10.3710   55.6075 N   0  0  0  0  0  0  0  0  0  0  0  0
   23.6688    9.0610   55.2586 C   0  0  0  0  0  0  0  0  0  0  0  0
   22.4784    8.3933   54.9122 C   0  0  0  0  0  0  0  0  0  0  0  0
   19.5248    4.3158   53.5646 C   0  0  0  0  0  0  0  0  0  0  0  0
   20.0003    5.2137   52.6367 C   0  0  0  0  0  0  0  0  0  0  0  0
   20.9940    6.1280   52.9473 C   0  0  0  0  0  0  0  0  0  0  0  0
   21.5622    6.1961   54.1915 C   0  0  0  0  0  0  0  0  0  0  0  0
   21.0507    5.2618   55.1145 C   0  0  0  0  0  0  0  0  0  0  0  0
   21.5940    5.2900   56.3791 F   0  0  0  0  0  0  0  0  0  0  0  0
   20.0693    4.3570   54.8114 C   0  0  0  0  0  0  0  0  0  0  0  0
   18.6778    2.7490   51.8795 N   0  0  0  0  0  0  0  0  0  0  0  0
   18.4569    3.3691   53.1424 C   0  0  0  0  0  0  0  0  0  0  0  0
   19.4074    2.0323   51.9439 H   0  0  0  0  0  0  0  0  0  0  0  0
   18.7856    3.3769   51.0769 H   0  0  0  0  0  0  0  0  0  0  0  0
   17.1299    4.0367   53.3197 C   0  0  0  0  0  0  0  0  0  0  0  0
   15.9094    3.1893   53.2383 C   0  0  0  0  0  0  0  0  0  0  0  0
   15.7997    3.2931   54.7664 C   0  0  0  0  0  0  0  0  0  0  0  0
   16.8210    4.4096   54.7626 C   0  0  0  0  0  0  0  0  0  0  0  0
   21.1943    9.1056   54.9063 C   0  0  0  0  0  0  0  0  0  0  0  0
   21.2554   10.3546   55.5137 F   0  0  0  0  0  0  0  0  0  0  0  0
   21.0053    9.4867   53.5307 F   0  0  0  0  0  0  0  0  0  0  0  0
   20.0762    8.3888   55.1752 F   0  0  0  0  0  0  0  0  0  0  0  0
   27.2442    9.1746   55.8207 C   0  0  0  0  0  0  0  0  0  0  0  0
   27.9834    9.0616   54.5159 C   0  0  0  0  0  0  0  0  0  0  0  0
   28.3029    7.6371   54.1137 C   0  0  0  0  0  0  0  0  0  0  0  0
   27.3898    8.4660   53.3059 C   0  0  0  0  0  0  0  0  0  0  0  0
 17 18  1  0  0  0
 18 21  1  0  0  0
 21 22  1  0  0  0
 22 23  1  0  0  0
 23 24  1  0  0  0
 18 10  1  0  0  0
 10 11  2  0  0  0
 11 12  1  0  0  0
 12 13  2  0  0  0
 13 14  1  0  0  0
 14 15  1  0  0  0
 14 16  2  0  0  0
 13  1  1  0  0  0
  1  2  1  0  0  0
  2  3  2  0  0  0
  3  4  1  0  0  0
  4  5  1  0  0  0
  5 29  1  0  0  0
 29 30  1  0  0  0
 30 31  1  0  0  0
 31 32  1  0  0  0
  5  6  2  0  0  0
  6  7  1  0  0  0
  7  8  2  0  0  0
  8  9  1  0  0  0
  9 25  1  0  0  0
 25 26  1  0  0  0
 25 27  1  0  0  0
 25 28  1  0  0  0
 24 21  1  0  0  0
 16 10  1  0  0  0
  9  1  2  0  0  0
  8  4  1  0  0  0
 32 30  1  0  0  0
 17 19  1  0  0  0
 17 20  1  0  0  0
M  END
> <minimizedAffinity>
30.37208

> <CNNscore>
0.4355930388

> <CNNaffinity>
6.5239424706

> <CNN_VS>
2.8417840004

> <CNNaffinity_variance>
0.2605458796

$$$$
[H]c1c([H])c(-c2c([H])c(C(=O)N([H])[H])nc3c([H])c(C([H])([H])N4C(=O)C([H])([H])C([H])([H])C4=O)c([H])c([H])c23)c([H])c([H])c1F


 30 33  0  0  0  0  0  0  0  0999 V2000
   21.5542    9.5875   52.1177 C   0  0  0  0  0  0  0  0  0  0  0  0
   20.6926    8.5720   52.4290 C   0  0  0  0  0  0  0  0  0  0  0  0
   21.1024    7.3898   53.0635 C   0  0  0  0  0  0  0  0  0  0  0  0
   22.4417    7.2974   53.3663 C   0  0  0  0  0  0  0  0  0  0  0  0
   22.9459    6.2029   53.9929 C   0  0  0  0  0  0  0  0  0  0  0  0
   24.2901    6.0775   54.3234 C   0  0  0  0  0  0  0  0  0  0  0  0
   25.1610    7.0913   54.0126 C   0  0  0  0  0  0  0  0  0  0  0  0
   24.6543    8.2051   53.3777 C   0  0  0  0  0  0  0  0  0  0  0  0
   23.3105    8.3315   53.0472 C   0  0  0  0  0  0  0  0  0  0  0  0
   22.8497    9.4408   52.4362 N   0  0  0  0  0  0  0  0  0  0  0  0
   20.1340    6.3546   53.3177 C   0  0  0  0  0  0  0  0  0  0  0  0
   20.4670    5.0269   53.3331 C   0  0  0  0  0  0  0  0  0  0  0  0
   19.5321    4.0298   53.5784 C   0  0  0  0  0  0  0  0  0  0  0  0
   18.2203    4.4381   53.8121 C   0  0  0  0  0  0  0  0  0  0  0  0
   17.2866    3.5120   54.0529 F   0  0  0  0  0  0  0  0  0  0  0  0
   17.8883    5.7781   53.7957 C   0  0  0  0  0  0  0  0  0  0  0  0
   18.8207    6.7567   53.5521 C   0  0  0  0  0  0  0  0  0  0  0  0
   21.5105   12.0913   51.9282 N   0  0  0  0  0  0  0  0  0  0  0  0
   21.1133   10.8173   51.4547 C   0  0  0  0  0  0  0  0  0  0  0  0
   20.3712   10.7088   50.4519 O   0  0  0  0  0  0  0  0  0  0  0  0
   22.4291   12.2447   52.4405 H   0  0  0  0  0  0  0  0  0  0  0  0
   20.8797   12.9163   51.7705 H   0  0  0  0  0  0  0  0  0  0  0  0
   26.5984    6.9727   54.3595 C   0  0  0  0  0  0  0  0  0  0  0  0
   27.0143    8.1646   55.0811 N   0  0  0  0  0  0  0  0  0  0  0  0
   26.1506    8.9723   55.8696 C   0  0  0  0  0  0  0  0  0  0  0  0
   24.8974    9.0598   55.8154 O   0  0  0  0  0  0  0  0  0  0  0  0
   27.0444    9.7270   56.8112 C   0  0  0  0  0  0  0  0  0  0  0  0
   28.2386    9.9860   55.9046 C   0  0  0  0  0  0  0  0  0  0  0  0
   28.3463    8.7195   55.1192 C   0  0  0  0  0  0  0  0  0  0  0  0
   29.3788    8.2301   54.5960 O   0  0  0  0  0  0  0  0  0  0  0  0
 18 19  1  0  0  0
 19 20  2  0  0  0
 19  1  1  0  0  0
  1  2  2  0  0  0
  2  3  1  0  0  0
  3 11  1  0  0  0
 11 12  2  0  0  0
 12 13  1  0  0  0
 13 14  2  0  0  0
 14 15  1  0  0  0
 14 16  1  0  0  0
 16 17  2  0  0  0
  3  4  2  0  0  0
  4  5  1  0  0  0
  5  6  2  0  0  0
  6  7  1  0  0  0
  7 23  1  0  0  0
 23 24  1  0  0  0
 24 25  1  0  0  0
 25 26  2  0  0  0
 25 27  1  0  0  0
 27 28  1  0  0  0
 28 29  1  0  0  0
 29 30  2  0  0  0
  7  8  2  0  0  0
  8  9  1  0  0  0
  9 10  2  0  0  0
 10  1  1  0  0  0
 17 11  1  0  0  0
  9  4  1  0  0  0
 29 24  1  0  0  0
 18 21  1  0  0  0
 18 22  1  0  0  0
M  END
> <minimizedAffinity>
20.85717

> <CNNscore>
0.6109912992

> <CNNaffinity>
6.3826727867

> <CNN_VS>
3.8997576237

> <CNNaffinity_variance>
0.4553394914

$$$$
[H]c1c([H])c(-c2c([H])c(C(=O)N([H])[H])nc3c([H])c(C([H])([H])N4C(=O)C([H])([H])C([H])([H])C4=O)c([H])c([H])c23)c([H])c([H])c1F


 30 33  0  0  0  0  0  0  0  0999 V2000
   21.5107    9.5959   52.0341 C   0  0  0  0  0  0  0  0  0  0  0  0
   20.6511    8.5861   52.3685 C   0  0  0  0  0  0  0  0  0  0  0  0
   21.0661    7.4119   53.0144 C   0  0  0  0  0  0  0  0  0  0  0  0
   22.4085    7.3215   53.3039 C   0  0  0  0  0  0  0  0  0  0  0  0
   22.9179    6.2348   53.9398 C   0  0  0  0  0  0  0  0  0  0  0  0
   24.2655    6.1117   54.2572 C   0  0  0  0  0  0  0  0  0  0  0  0
   25.1344    7.1199   53.9233 C   0  0  0  0  0  0  0  0  0  0  0  0
   24.6224    8.2258   53.2789 C   0  0  0  0  0  0  0  0  0  0  0  0
   23.2752    8.3498   52.9614 C   0  0  0  0  0  0  0  0  0  0  0  0
   22.8093    9.4515   52.3405 N   0  0  0  0  0  0  0  0  0  0  0  0
   20.0990    6.3819   53.2931 C   0  0  0  0  0  0  0  0  0  0  0  0
   20.4282    5.0532   53.3134 C   0  0  0  0  0  0  0  0  0  0  0  0
   19.4946    4.0611   53.5823 C   0  0  0  0  0  0  0  0  0  0  0  0
   18.1883    4.4753   53.8351 C   0  0  0  0  0  0  0  0  0  0  0  0
   17.2560    3.5541   54.0989 F   0  0  0  0  0  0  0  0  0  0  0  0
   17.8601    5.8162   53.8138 C   0  0  0  0  0  0  0  0  0  0  0  0
   18.7911    6.7899   53.5467 C   0  0  0  0  0  0  0  0  0  0  0  0
   21.5616   12.0889   51.7349 N   0  0  0  0  0  0  0  0  0  0  0  0
   21.0644   10.8174   51.3593 C   0  0  0  0  0  0  0  0  0  0  0  0
   20.2261   10.7039   50.4361 O   0  0  0  0  0  0  0  0  0  0  0  0
   22.5308   12.2181   52.1518 H   0  0  0  0  0  0  0  0  0  0  0  0
   20.9564   12.9365   51.5989 H   0  0  0  0  0  0  0  0  0  0  0  0
   26.5753    7.0037   54.2560 C   0  0  0  0  0  0  0  0  0  0  0  0
   26.9722    8.1482   55.0604 N   0  0  0  0  0  0  0  0  0  0  0  0
   28.3049    8.6282   55.1775 C   0  0  0  0  0  0  0  0  0  0  0  0
   29.3790    8.0135   54.9553 O   0  0  0  0  0  0  0  0  0  0  0  0
   28.1864   10.0548   55.6313 C   0  0  0  0  0  0  0  0  0  0  0  0
   26.9904    9.9451   56.5655 C   0  0  0  0  0  0  0  0  0  0  0  0
   26.0998    8.9746   55.8600 C   0  0  0  0  0  0  0  0  0  0  0  0
   24.8486    8.8879   55.9400 O   0  0  0  0  0  0  0  0  0  0  0  0
 18 19  1  0  0  0
 19 20  2  0  0  0
 19  1  1  0  0  0
  1  2  2  0  0  0
  2  3  1  0  0  0
  3 11  1  0  0  0
 11 12  2  0  0  0
 12 13  1  0  0  0
 13 14  2  0  0  0
 14 15  1  0  0  0
 14 16  1  0  0  0
 16 17  2  0  0  0
  3  4  2  0  0  0
  4  5  1  0  0  0
  5  6  2  0  0  0
  6  7  1  0  0  0
  7 23  1  0  0  0
 23 24  1  0  0  0
 24 25  1  0  0  0
 25 26  2  0  0  0
 25 27  1  0  0  0
 27 28  1  0  0  0
 28 29  1  0  0  0
 29 30  2  0  0  0
  7  8  2  0  0  0
  8  9  1  0  0  0
  9 10  2  0  0  0
 10  1  1  0  0  0
 17 11  1  0  0  0
  9  4  1  0  0  0
 29 24  1  0  0  0
 18 21  1  0  0  0
 18 22  1  0  0  0
M  END
> <minimizedAffinity>
22.49636

> <CNNscore>
0.5890423656

> <CNNaffinity>
6.3347988129

> <CNN_VS>
3.7314648628

> <CNNaffinity_variance>
0.4629995227

$$$$
[H]c1c([H])c(-c2c([H])c(C(=O)N([H])[H])nc3c([H])c(C([H])([H])N4C(=O)C([H])([H])C([H])([H])C4=O)c([H])c([H])c23)c([H])c([H])c1F


 30 33  0  0  0  0  0  0  0  0999 V2000
   20.6551    6.3759   53.4665 C   0  0  0  0  0  0  0  0  0  0  0  0
   20.5664    7.6408   52.9541 C   0  0  0  0  0  0  0  0  0  0  0  0
   21.6434    8.5398   52.9476 C   0  0  0  0  0  0  0  0  0  0  0  0
   22.8205    8.0793   53.4918 C   0  0  0  0  0  0  0  0  0  0  0  0
   23.9311    8.8604   53.5259 C   0  0  0  0  0  0  0  0  0  0  0  0
   25.1397    8.4273   54.0585 C   0  0  0  0  0  0  0  0  0  0  0  0
   25.2360    7.1602   54.5762 C   0  0  0  0  0  0  0  0  0  0  0  0
   24.1120    6.3626   54.5429 C   0  0  0  0  0  0  0  0  0  0  0  0
   22.9034    6.7947   54.0104 C   0  0  0  0  0  0  0  0  0  0  0  0
   21.8285    5.9821   53.9854 N   0  0  0  0  0  0  0  0  0  0  0  0
   21.4497    9.8672   52.4238 C   0  0  0  0  0  0  0  0  0  0  0  0
   21.1301   10.0987   51.1129 C   0  0  0  0  0  0  0  0  0  0  0  0
   20.9436   11.3793   50.6093 C   0  0  0  0  0  0  0  0  0  0  0  0
   21.0964   12.4376   51.5030 C   0  0  0  0  0  0  0  0  0  0  0  0
   20.9261   13.6881   51.0616 F   0  0  0  0  0  0  0  0  0  0  0  0
   21.4188   12.2002   52.8243 C   0  0  0  0  0  0  0  0  0  0  0  0
   21.6012   10.9295   53.3126 C   0  0  0  0  0  0  0  0  0  0  0  0
   19.7212    4.0446   53.4615 N   0  0  0  0  0  0  0  0  0  0  0  0
   19.5224    5.4466   53.4673 C   0  0  0  0  0  0  0  0  0  0  0  0
   18.3675    5.9304   53.4733 O   0  0  0  0  0  0  0  0  0  0  0  0
   20.5834    3.5925   53.8881 H   0  0  0  0  0  0  0  0  0  0  0  0
   18.9950    3.4258   53.0222 H   0  0  0  0  0  0  0  0  0  0  0  0
   26.5192    6.6831   55.1473 C   0  0  0  0  0  0  0  0  0  0  0  0
   27.4988    7.7555   55.0795 N   0  0  0  0  0  0  0  0  0  0  0  0
   28.5599    7.8199   54.1361 C   0  0  0  0  0  0  0  0  0  0  0  0
   29.0743    6.8830   53.4738 O   0  0  0  0  0  0  0  0  0  0  0  0
   28.9655    9.2646   54.0761 C   0  0  0  0  0  0  0  0  0  0  0  0
   28.7907    9.6576   55.5356 C   0  0  0  0  0  0  0  0  0  0  0  0
   27.5599    8.9130   55.9398 C   0  0  0  0  0  0  0  0  0  0  0  0
   26.7408    9.2225   56.8413 O   0  0  0  0  0  0  0  0  0  0  0  0
 18 19  1  0  0  0
 19 20  2  0  0  0
 19  1  1  0  0  0
  1  2  2  0  0  0
  2  3  1  0  0  0
  3 11  1  0  0  0
 11 12  2  0  0  0
 12 13  1  0  0  0
 13 14  2  0  0  0
 14 15  1  0  0  0
 14 16  1  0  0  0
 16 17  2  0  0  0
  3  4  2  0  0  0
  4  5  1  0  0  0
  5  6  2  0  0  0
  6  7  1  0  0  0
  7 23  1  0  0  0
 23 24  1  0  0  0
 24 25  1  0  0  0
 25 26  2  0  0  0
 25 27  1  0  0  0
 27 28  1  0  0  0
 28 29  1  0  0  0
 29 30  2  0  0  0
  7  8  2  0  0  0
  8  9  1  0  0  0
  9 10  2  0  0  0
 10  1  1  0  0  0
 17 11  1  0  0  0
  9  4  1  0  0  0
 29 24  1  0  0  0
 18 21  1  0  0  0
 18 22  1  0  0  0
M  END
> <minimizedAffinity>
21.10407

> <CNNscore>
0.4861580729

> <CNNaffinity>
6.1477050781

> <CNN_VS>
2.9887564182

> <CNNaffinity_variance>
0.3522378206

$$$$
[H]c1c([H])c(-c2c([H])c(C(=O)N([H])[H])nc3c([H])c(C([H])([H])N4C(=O)C([H])([H])C([H])([H])C4=O)c([H])c([H])c23)c([H])c([H])c1F


 30 33  0  0  0  0  0  0  0  0999 V2000
   21.7688    9.9117   52.2289 C   0  0  0  0  0  0  0  0  0  0  0  0
   22.9812    9.8194   52.8550 C   0  0  0  0  0  0  0  0  0  0  0  0
   23.4334    8.6451   53.4753 C   0  0  0  0  0  0  0  0  0  0  0  0
   22.5818    7.5653   53.4225 C   0  0  0  0  0  0  0  0  0  0  0  0
   22.9233    6.3740   53.9785 C   0  0  0  0  0  0  0  0  0  0  0  0
   22.0944    5.2591   53.9371 C   0  0  0  0  0  0  0  0  0  0  0  0
   20.8757    5.3445   53.3124 C   0  0  0  0  0  0  0  0  0  0  0  0
   20.5246    6.5510   52.7453 C   0  0  0  0  0  0  0  0  0  0  0  0
   21.3528    7.6661   52.7858 C   0  0  0  0  0  0  0  0  0  0  0  0
   20.9799    8.8262   52.2102 N   0  0  0  0  0  0  0  0  0  0  0  0
   24.7074    8.6488   54.1466 C   0  0  0  0  0  0  0  0  0  0  0  0
   25.8514    8.1902   53.5507 C   0  0  0  0  0  0  0  0  0  0  0  0
   27.0793    8.1944   54.1992 C   0  0  0  0  0  0  0  0  0  0  0  0
   27.1040    8.6911   55.5010 C   0  0  0  0  0  0  0  0  0  0  0  0
   28.2649    8.7143   56.1637 F   0  0  0  0  0  0  0  0  0  0  0  0
   25.9482    9.1528   56.0986 C   0  0  0  0  0  0  0  0  0  0  0  0
   24.7385    9.1444   55.4484 C   0  0  0  0  0  0  0  0  0  0  0  0
   21.5490   12.4127   52.1667 N   0  0  0  0  0  0  0  0  0  0  0  0
   21.3082   11.1444   51.5848 C   0  0  0  0  0  0  0  0  0  0  0  0
   20.6923   11.0436   50.4993 O   0  0  0  0  0  0  0  0  0  0  0  0
   22.3905   12.6008   52.7882 H   0  0  0  0  0  0  0  0  0  0  0  0
   20.8764   13.1978   51.9810 H   0  0  0  0  0  0  0  0  0  0  0  0
   19.9801    4.1631   53.2592 C   0  0  0  0  0  0  0  0  0  0  0  0
   18.6250    4.5775   53.5854 N   0  0  0  0  0  0  0  0  0  0  0  0
   17.5134    3.6971   53.6808 C   0  0  0  0  0  0  0  0  0  0  0  0
   17.3790    2.5515   53.1802 O   0  0  0  0  0  0  0  0  0  0  0  0
   16.4952    4.4146   54.5195 C   0  0  0  0  0  0  0  0  0  0  0  0
   16.7051    5.8433   54.0399 C   0  0  0  0  0  0  0  0  0  0  0  0
   18.1865    5.9246   53.8620 C   0  0  0  0  0  0  0  0  0  0  0  0
   18.9100    6.9496   53.9360 O   0  0  0  0  0  0  0  0  0  0  0  0
 18 19  1  0  0  0
 19 20  2  0  0  0
 19  1  1  0  0  0
  1  2  2  0  0  0
  2  3  1  0  0  0
  3 11  1  0  0  0
 11 12  2  0  0  0
 12 13  1  0  0  0
 13 14  2  0  0  0
 14 15  1  0  0  0
 14 16  1  0  0  0
 16 17  2  0  0  0
  3  4  2  0  0  0
  4  5  1  0  0  0
  5  6  2  0  0  0
  6  7  1  0  0  0
  7 23  1  0  0  0
 23 24  1  0  0  0
 24 25  1  0  0  0
 25 26  2  0  0  0
 25 27  1  0  0  0
 27 28  1  0  0  0
 28 29  1  0  0  0
 29 30  2  0  0  0
  7  8  2  0  0  0
  8  9  1  0  0  0
  9 10  2  0  0  0
 10  1  1  0  0  0
 17 11  1  0  0  0
  9  4  1  0  0  0
 29 24  1  0  0  0
 18 21  1  0  0  0
 18 22  1  0  0  0
M  END
> <minimizedAffinity>
24.56379

> <CNNscore>
0.4853633642

> <CNNaffinity>
6.2496995926

> <CNN_VS>
3.0333752632

> <CNNaffinity_variance>
0.4521406293

$$$$
[H]c1c([H])c(-c2c([H])c(C(=O)N([H])[H])nc3c([H])c(C([H])([H])N4C(=O)C([H])([H])C([H])([H])C4=O)c([H])c([H])c23)c([H])c([H])c1F


 30 33  0  0  0  0  0  0  0  0999 V2000
   21.8231    9.9641   54.2187 C   0  0  0  0  0  0  0  0  0  0  0  0
   23.1765    9.8337   54.3660 C   0  0  0  0  0  0  0  0  0  0  0  0
   23.8404    8.6015   54.2698 C   0  0  0  0  0  0  0  0  0  0  0  0
   23.0491    7.5052   54.0133 C   0  0  0  0  0  0  0  0  0  0  0  0
   23.5877    6.2647   53.8868 C   0  0  0  0  0  0  0  0  0  0  0  0
   22.8225    5.1358   53.6188 C   0  0  0  0  0  0  0  0  0  0  0  0
   21.4638    5.2583   53.4716 C   0  0  0  0  0  0  0  0  0  0  0  0
   20.9120    6.5153   53.5978 C   0  0  0  0  0  0  0  0  0  0  0  0
   21.6762    7.6446   53.8654 C   0  0  0  0  0  0  0  0  0  0  0  0
   21.1023    8.8594   53.9710 N   0  0  0  0  0  0  0  0  0  0  0  0
   25.2644    8.5504   54.4786 C   0  0  0  0  0  0  0  0  0  0  0  0
   26.1353    8.1550   53.4992 C   0  0  0  0  0  0  0  0  0  0  0  0
   27.5082    8.1062   53.7021 C   0  0  0  0  0  0  0  0  0  0  0  0
   27.9740    8.4812   54.9608 C   0  0  0  0  0  0  0  0  0  0  0  0
   29.2889    8.4497   55.2009 F   0  0  0  0  0  0  0  0  0  0  0  0
   27.0926    8.8795   55.9460 C   0  0  0  0  0  0  0  0  0  0  0  0
   25.7362    8.9242   55.7352 C   0  0  0  0  0  0  0  0  0  0  0  0
   21.1877   12.1988   53.2654 N   0  0  0  0  0  0  0  0  0  0  0  0
   21.1419   11.2570   54.3217 C   0  0  0  0  0  0  0  0  0  0  0  0
   20.5146   11.5065   55.3763 O   0  0  0  0  0  0  0  0  0  0  0  0
   21.2950   11.9062   52.2491 H   0  0  0  0  0  0  0  0  0  0  0  0
   21.1136   13.2227   53.4879 H   0  0  0  0  0  0  0  0  0  0  0  0
   20.6336    4.0630   53.1845 C   0  0  0  0  0  0  0  0  0  0  0  0
   19.3206    4.2398   53.7839 N   0  0  0  0  0  0  0  0  0  0  0  0
   18.4195    5.2890   53.4566 C   0  0  0  0  0  0  0  0  0  0  0  0
   18.6738    6.3999   52.9254 O   0  0  0  0  0  0  0  0  0  0  0  0
   17.0611    4.8068   53.8780 C   0  0  0  0  0  0  0  0  0  0  0  0
   17.4228    4.0480   55.1464 C   0  0  0  0  0  0  0  0  0  0  0  0
   18.7208    3.3983   54.7917 C   0  0  0  0  0  0  0  0  0  0  0  0
   19.1999    2.3382   55.2671 O   0  0  0  0  0  0  0  0  0  0  0  0
 18 19  1  0  0  0
 19 20  2  0  0  0
 19  1  1  0  0  0
  1  2  2  0  0  0
  2  3  1  0  0  0
  3 11  1  0  0  0
 11 12  2  0  0  0
 12 13  1  0  0  0
 13 14  2  0  0  0
 14 15  1  0  0  0
 14 16  1  0  0  0
 16 17  2  0  0  0
  3  4  2  0  0  0
  4  5  1  0  0  0
  5  6  2  0  0  0
  6  7  1  0  0  0
  7 23  1  0  0  0
 23 24  1  0  0  0
 24 25  1  0  0  0
 25 26  2  0  0  0
 25 27  1  0  0  0
 27 28  1  0  0  0
 28 29  1  0  0  0
 29 30  2  0  0  0
  7  8  2  0  0  0
  8  9  1  0  0  0
  9 10  2  0  0  0
 10  1  1  0  0  0
 17 11  1  0  0  0
  9  4  1  0  0  0
 29 24  1  0  0  0
 18 21  1  0  0  0
 18 22  1  0  0  0
M  END
> <minimizedAffinity>
27.07401

> <CNNscore>
0.4633166194

> <CNNaffinity>
6.2357392311

> <CNN_VS>
2.8891215324

> <CNNaffinity_variance>
0.5093094110

$$$$
[H]c1c([H])c(-c2c([H])c(C(=O)N([H])[H])nc3c([H])c(C([H])([H])N4C(=O)C([H])([H])C([H])([H])C4=O)c([H])c([H])c23)c([H])c([H])c1F


 30 33  0  0  0  0  0  0  0  0999 V2000
   24.4489    8.4075   54.8463 C   0  0  0  0  0  0  0  0  0  0  0  0
   23.7694    9.2453   54.0056 C   0  0  0  0  0  0  0  0  0  0  0  0
   22.6106    8.8599   53.3151 C   0  0  0  0  0  0  0  0  0  0  0  0
   22.1784    7.5709   53.5286 C   0  0  0  0  0  0  0  0  0  0  0  0
   21.0598    7.0959   52.9220 C   0  0  0  0  0  0  0  0  0  0  0  0
   20.5873    5.8039   53.1201 C   0  0  0  0  0  0  0  0  0  0  0  0
   21.2646    4.9568   53.9606 C   0  0  0  0  0  0  0  0  0  0  0  0
   22.4000    5.4342   54.5799 C   0  0  0  0  0  0  0  0  0  0  0  0
   22.8730    6.7259   54.3827 C   0  0  0  0  0  0  0  0  0  0  0  0
   23.9810    7.1609   55.0146 N   0  0  0  0  0  0  0  0  0  0  0  0
   21.9813    9.7946   52.4183 C   0  0  0  0  0  0  0  0  0  0  0  0
   21.1106    9.3984   51.4391 C   0  0  0  0  0  0  0  0  0  0  0  0
   20.5045   10.3010   50.5750 C   0  0  0  0  0  0  0  0  0  0  0  0
   20.8211   11.6474   50.7448 C   0  0  0  0  0  0  0  0  0  0  0  0
   20.2608   12.5518   49.9352 F   0  0  0  0  0  0  0  0  0  0  0  0
   21.6998   12.0431   51.7335 C   0  0  0  0  0  0  0  0  0  0  0  0
   22.2940   11.1424   52.5832 C   0  0  0  0  0  0  0  0  0  0  0  0
   26.9469    8.4606   55.0992 N   0  0  0  0  0  0  0  0  0  0  0  0
   25.6584    8.8224   55.5615 C   0  0  0  0  0  0  0  0  0  0  0  0
   25.5190    9.5098   56.5988 O   0  0  0  0  0  0  0  0  0  0  0  0
   27.1535    8.2921   54.0702 H   0  0  0  0  0  0  0  0  0  0  0  0
   27.7289    8.3539   55.7924 H   0  0  0  0  0  0  0  0  0  0  0  0
   20.7724    3.5752   54.1829 C   0  0  0  0  0  0  0  0  0  0  0  0
   19.3193    3.5729   54.1297 N   0  0  0  0  0  0  0  0  0  0  0  0
   18.4707    3.5524   55.2697 C   0  0  0  0  0  0  0  0  0  0  0  0
   18.7423    3.1786   56.4391 O   0  0  0  0  0  0  0  0  0  0  0  0
   17.1446    4.0784   54.8009 C   0  0  0  0  0  0  0  0  0  0  0  0
   17.0927    3.4795   53.4031 C   0  0  0  0  0  0  0  0  0  0  0  0
   18.5077    3.5906   52.9362 C   0  0  0  0  0  0  0  0  0  0  0  0
   18.9167    3.6812   51.7514 O   0  0  0  0  0  0  0  0  0  0  0  0
 18 19  1  0  0  0
 19 20  2  0  0  0
 19  1  1  0  0  0
  1  2  2  0  0  0
  2  3  1  0  0  0
  3 11  1  0  0  0
 11 12  2  0  0  0
 12 13  1  0  0  0
 13 14  2  0  0  0
 14 15  1  0  0  0
 14 16  1  0  0  0
 16 17  2  0  0  0
  3  4  2  0  0  0
  4  5  1  0  0  0
  5  6  2  0  0  0
  6  7  1  0  0  0
  7 23  1  0  0  0
 23 24  1  0  0  0
 24 25  1  0  0  0
 25 26  2  0  0  0
 25 27  1  0  0  0
 27 28  1  0  0  0
 28 29  1  0  0  0
 29 30  2  0  0  0
  7  8  2  0  0  0
  8  9  1  0  0  0
  9 10  2  0  0  0
 10  1  1  0  0  0
 17 11  1  0  0  0
  9  4  1  0  0  0
 29 24  1  0  0  0
 18 21  1  0  0  0
 18 22  1  0  0  0
M  END
> <minimizedAffinity>
37.65410

> <CNNscore>
0.4496460855

> <CNNaffinity>
6.1661214828

> <CNN_VS>
2.7725722790

> <CNNaffinity_variance>
0.9071292877

$$$$
[H]c1c([H])c(-c2c([H])c(C(=O)N([H])[H])nc3c([H])c(C([H])([H])N4C(=O)C([H])([H])C([H])([H])C4=O)c([H])c([H])c23)c([H])c([H])c1F


 30 33  0  0  0  0  0  0  0  0999 V2000
   21.9593    6.3697   53.9078 C   0  0  0  0  0  0  0  0  0  0  0  0
   23.2826    6.6946   54.0242 C   0  0  0  0  0  0  0  0  0  0  0  0
   23.7255    7.9685   54.4105 C   0  0  0  0  0  0  0  0  0  0  0  0
   22.7446    8.8970   54.6741 C   0  0  0  0  0  0  0  0  0  0  0  0
   23.0593   10.1580   55.0688 C   0  0  0  0  0  0  0  0  0  0  0  0
   22.0970   11.1198   55.3529 C   0  0  0  0  0  0  0  0  0  0  0  0
   20.7673   10.8020   55.2366 C   0  0  0  0  0  0  0  0  0  0  0  0
   20.4422    9.5231   54.8376 C   0  0  0  0  0  0  0  0  0  0  0  0
   21.4036    8.5607   54.5536 C   0  0  0  0  0  0  0  0  0  0  0  0
   21.0472    7.3169   54.1766 N   0  0  0  0  0  0  0  0  0  0  0  0
   25.1396    8.2350   54.4684 C   0  0  0  0  0  0  0  0  0  0  0  0
   25.9537    8.1144   53.3745 C   0  0  0  0  0  0  0  0  0  0  0  0
   27.3172    8.3717   53.4318 C   0  0  0  0  0  0  0  0  0  0  0  0
   27.8342    8.7639   54.6650 C   0  0  0  0  0  0  0  0  0  0  0  0
   29.1421    9.0221   54.7666 F   0  0  0  0  0  0  0  0  0  0  0  0
   27.0100    8.8844   55.7660 C   0  0  0  0  0  0  0  0  0  0  0  0
   25.6625    8.6275   55.6988 C   0  0  0  0  0  0  0  0  0  0  0  0
   20.1435    4.7654   53.2475 N   0  0  0  0  0  0  0  0  0  0  0  0
   21.5098    5.0353   53.5032 C   0  0  0  0  0  0  0  0  0  0  0  0
   22.3733    4.1356   53.3894 O   0  0  0  0  0  0  0  0  0  0  0  0
   19.4733    5.5133   52.8993 H   0  0  0  0  0  0  0  0  0  0  0  0
   19.7745    3.7947   53.4055 H   0  0  0  0  0  0  0  0  0  0  0  0
   19.7284   11.8173   55.5371 C   0  0  0  0  0  0  0  0  0  0  0  0
   19.0627   11.4641   56.7807 N   0  0  0  0  0  0  0  0  0  0  0  0
   17.6632   11.2562   56.9154 C   0  0  0  0  0  0  0  0  0  0  0  0
   16.7373   11.6650   56.1694 O   0  0  0  0  0  0  0  0  0  0  0  0
   17.4911   10.4291   58.1570 C   0  0  0  0  0  0  0  0  0  0  0  0
   18.5858   11.0210   59.0326 C   0  0  0  0  0  0  0  0  0  0  0  0
   19.6956   11.2684   58.0631 C   0  0  0  0  0  0  0  0  0  0  0  0
   20.9284   11.3012   58.3049 O   0  0  0  0  0  0  0  0  0  0  0  0
 18 19  1  0  0  0
 19 20  2  0  0  0
 19  1  1  0  0  0
  1  2  2  0  0  0
  2  3  1  0  0  0
  3 11  1  0  0  0
 11 12  2  0  0  0
 12 13  1  0  0  0
 13 14  2  0  0  0
 14 15  1  0  0  0
 14 16  1  0  0  0
 16 17  2  0  0  0
  3  4  2  0  0  0
  4  5  1  0  0  0
  5  6  2  0  0  0
  6  7  1  0  0  0
  7 23  1  0  0  0
 23 24  1  0  0  0
 24 25  1  0  0  0
 25 26  2  0  0  0
 25 27  1  0  0  0
 27 28  1  0  0  0
 28 29  1  0  0  0
 29 30  2  0  0  0
  7  8  2  0  0  0
  8  9  1  0  0  0
  9 10  2  0  0  0
 10  1  1  0  0  0
 17 11  1  0  0  0
  9  4  1  0  0  0
 29 24  1  0  0  0
 18 21  1  0  0  0
 18 22  1  0  0  0
M  END
> <minimizedAffinity>
56.47539

> <CNNscore>
0.3876532316

> <CNNaffinity>
6.0253400803

> <CNN_VS>
2.3357424736

> <CNNaffinity_variance>
0.6812614202

$$$$
[H]c1c([H])c(-c2c([H])c(C(=O)N([H])[H])nc3c([H])c(C([H])([H])N4C(=O)C([H])([H])C([H])([H])C4=O)c([H])c([H])c23)c([H])c([H])c1F


 30 33  0  0  0  0  0  0  0  0999 V2000
   24.5063    7.8216   54.3975 C   0  0  0  0  0  0  0  0  0  0  0  0
   23.8524    8.7496   53.6348 C   0  0  0  0  0  0  0  0  0  0  0  0
   22.5182    8.6007   53.2274 C   0  0  0  0  0  0  0  0  0  0  0  0
   21.8828    7.4522   53.6411 C   0  0  0  0  0  0  0  0  0  0  0  0
   20.5863    7.2110   53.3158 C   0  0  0  0  0  0  0  0  0  0  0  0
   19.9085    6.0679   53.7227 C   0  0  0  0  0  0  0  0  0  0  0  0
   20.5584    5.1313   54.4865 C   0  0  0  0  0  0  0  0  0  0  0  0
   21.8741    5.3717   54.8206 C   0  0  0  0  0  0  0  0  0  0  0  0
   22.5525    6.5145   54.4145 C   0  0  0  0  0  0  0  0  0  0  0  0
   23.8360    6.7203   54.7702 N   0  0  0  0  0  0  0  0  0  0  0  0
   21.9204    9.6092   52.3911 C   0  0  0  0  0  0  0  0  0  0  0  0
   22.0920   10.9479   52.6202 C   0  0  0  0  0  0  0  0  0  0  0  0
   21.5149   11.9193   51.8129 C   0  0  0  0  0  0  0  0  0  0  0  0
   20.7417   11.4729   50.7428 C   0  0  0  0  0  0  0  0  0  0  0  0
   20.1668   12.3733   49.9388 F   0  0  0  0  0  0  0  0  0  0  0  0
   20.5710   10.1220   50.5148 C   0  0  0  0  0  0  0  0  0  0  0  0
   21.1462    9.1691   51.3195 C   0  0  0  0  0  0  0  0  0  0  0  0
   26.9551    7.3258   54.1437 N   0  0  0  0  0  0  0  0  0  0  0  0
   25.9003    7.9891   54.8162 C   0  0  0  0  0  0  0  0  0  0  0  0
   26.1331    8.7397   55.7911 O   0  0  0  0  0  0  0  0  0  0  0  0
   26.8966    7.0656   53.1148 H   0  0  0  0  0  0  0  0  0  0  0  0
   27.8274    7.0803   54.6749 H   0  0  0  0  0  0  0  0  0  0  0  0
   19.8484    3.9065   54.9293 C   0  0  0  0  0  0  0  0  0  0  0  0
   18.7545    3.6319   54.0114 N   0  0  0  0  0  0  0  0  0  0  0  0
   18.9089    3.0493   52.7242 C   0  0  0  0  0  0  0  0  0  0  0  0
   19.9399    3.0038   52.0059 O   0  0  0  0  0  0  0  0  0  0  0  0
   17.5655    2.4790   52.3705 C   0  0  0  0  0  0  0  0  0  0  0  0
   16.6530    3.5345   52.9775 C   0  0  0  0  0  0  0  0  0  0  0  0
   17.3552    3.8982   54.2453 C   0  0  0  0  0  0  0  0  0  0  0  0
   16.8423    4.3444   55.3022 O   0  0  0  0  0  0  0  0  0  0  0  0
 18 19  1  0  0  0
 19 20  2  0  0  0
 19  1  1  0  0  0
  1  2  2  0  0  0
  2  3  1  0  0  0
  3 11  1  0  0  0
 11 12  2  0  0  0
 12 13  1  0  0  0
 13 14  2  0  0  0
 14 15  1  0  0  0
 14 16  1  0  0  0
 16 17  2  0  0  0
  3  4  2  0  0  0
  4  5  1  0  0  0
  5  6  2  0  0  0
  6  7  1  0  0  0
  7 23  1  0  0  0
 23 24  1  0  0  0
 24 25  1  0  0  0
 25 26  2  0  0  0
 25 27  1  0  0  0
 27 28  1  0  0  0
 28 29  1  0  0  0
 29 30  2  0  0  0
  7  8  2  0  0  0
  8  9  1  0  0  0
  9 10  2  0  0  0
 10  1  1  0  0  0
 17 11  1  0  0  0
  9  4  1  0  0  0
 29 24  1  0  0  0
 18 21  1  0  0  0
 18 22  1  0  0  0
M  END
> <minimizedAffinity>
33.19629

> <CNNscore>
0.3432905078

> <CNNaffinity>
6.0122737885

> <CNN_VS>
2.0639564991

> <CNNaffinity_variance>
0.5484106541

$$$$
[H]c1c([H])c(-c2c([H])c(C(=O)N([H])[H])nc3c([H])c(C([H])([H])N4C(=O)C([H])([H])C([H])([H])C4=O)c([H])c([H])c23)c([H])c([H])c1F


 30 33  0  0  0  0  0  0  0  0999 V2000
   26.0510    8.7279   55.3365 C   0  0  0  0  0  0  0  0  0  0  0  0
   24.9499    9.5346   55.2533 C   0  0  0  0  0  0  0  0  0  0  0  0
   23.7069    9.0849   54.7832 C   0  0  0  0  0  0  0  0  0  0  0  0
   23.6450    7.7639   54.4021 C   0  0  0  0  0  0  0  0  0  0  0  0
   22.4882    7.2188   53.9442 C   0  0  0  0  0  0  0  0  0  0  0  0
   22.3845    5.8874   53.5592 C   0  0  0  0  0  0  0  0  0  0  0  0
   23.4854    5.0722   53.6379 C   0  0  0  0  0  0  0  0  0  0  0  0
   24.6618    5.6200   54.1033 C   0  0  0  0  0  0  0  0  0  0  0  0
   24.7664    6.9510   54.4887 C   0  0  0  0  0  0  0  0  0  0  0  0
   25.9311    7.4484   54.9493 N   0  0  0  0  0  0  0  0  0  0  0  0
   22.6104   10.0140   54.6914 C   0  0  0  0  0  0  0  0  0  0  0  0
   22.3627   10.7464   53.5617 C   0  0  0  0  0  0  0  0  0  0  0  0
   21.3050   11.6420   53.4747 C   0  0  0  0  0  0  0  0  0  0  0  0
   20.4915   11.7693   54.5990 C   0  0  0  0  0  0  0  0  0  0  0  0
   19.4610   12.6201   54.5600 F   0  0  0  0  0  0  0  0  0  0  0  0
   20.7444   11.0288   55.7365 C   0  0  0  0  0  0  0  0  0  0  0  0
   21.7934   10.1456   55.8124 C   0  0  0  0  0  0  0  0  0  0  0  0
   28.5196    9.0895   55.0496 N   0  0  0  0  0  0  0  0  0  0  0  0
   27.3438    9.2101   55.8292 C   0  0  0  0  0  0  0  0  0  0  0  0
   27.3790    9.7348   56.9656 O   0  0  0  0  0  0  0  0  0  0  0  0
   28.4971    9.0827   53.9869 H   0  0  0  0  0  0  0  0  0  0  0  0
   29.4483    9.0036   55.5327 H   0  0  0  0  0  0  0  0  0  0  0  0
   23.3904    3.6487   53.2315 C   0  0  0  0  0  0  0  0  0  0  0  0
   24.6898    3.2013   52.7562 N   0  0  0  0  0  0  0  0  0  0  0  0
   25.4469    2.1528   53.3458 C   0  0  0  0  0  0  0  0  0  0  0  0
   25.3621    1.6879   54.5109 O   0  0  0  0  0  0  0  0  0  0  0  0
   26.3989    1.6884   52.2813 C   0  0  0  0  0  0  0  0  0  0  0  0
   26.7269    3.0147   51.6116 C   0  0  0  0  0  0  0  0  0  0  0  0
   25.4172    3.7338   51.6289 C   0  0  0  0  0  0  0  0  0  0  0  0
   25.0216    4.6205   50.8310 O   0  0  0  0  0  0  0  0  0  0  0  0
 18 19  1  0  0  0
 19 20  2  0  0  0
 19  1  1  0  0  0
  1  2  2  0  0  0
  2  3  1  0  0  0
  3 11  1  0  0  0
 11 12  2  0  0  0
 12 13  1  0  0  0
 13 14  2  0  0  0
 14 15  1  0  0  0
 14 16  1  0  0  0
 16 17  2  0  0  0
  3  4  2  0  0  0
  4  5  1  0  0  0
  5  6  2  0  0  0
  6  7  1  0  0  0
  7 23  1  0  0  0
 23 24  1  0  0  0
 24 25  1  0  0  0
 25 26  2  0  0  0
 25 27  1  0  0  0
 27 28  1  0  0  0
 28 29  1  0  0  0
 29 30  2  0  0  0
  7  8  2  0  0  0
  8  9  1  0  0  0
  9 10  2  0  0  0
 10  1  1  0  0  0
 17 11  1  0  0  0
  9  4  1  0  0  0
 29 24  1  0  0  0
 18 21  1  0  0  0
 18 22  1  0  0  0
M  END
> <minimizedAffinity>
56.77687

> <CNNscore>
0.2933470309

> <CNNaffinity>
5.4607286453

> <CNN_VS>
1.6018885374

> <CNNaffinity_variance>
0.7120167017

$$$$
[H]c1c([H])c(-c2c([H])c(C(=O)N([H])[H])nc3c([H])c(C([H])([H])N4C([H])([H])C([H])([H])OC([H])([H])C4([H])[H])c([H])c([H])c23)c([H])c([H])c1F


 29 32  0  0  0  0  0  0  0  0999 V2000
   21.7923    6.9438   53.6400 C   0  0  0  0  0  0  0  0  0  0  0  0
   23.1072    7.0749   54.0258 C   0  0  0  0  0  0  0  0  0  0  0  0
   23.7039    8.3388   54.1805 C   0  0  0  0  0  0  0  0  0  0  0  0
   22.9144    9.4315   53.9308 C   0  0  0  0  0  0  0  0  0  0  0  0
   23.4210   10.7071   54.0763 C   0  0  0  0  0  0  0  0  0  0  0  0
   22.6004   11.7722   53.8293 C   0  0  0  0  0  0  0  0  0  0  0  0
   21.2745   11.6513   53.4379 C   0  0  0  0  0  0  0  0  0  0  0  0
   20.7803   10.3981   53.2976 C   0  0  0  0  0  0  0  0  0  0  0  0
   21.5749    9.2981   53.5374 C   0  0  0  0  0  0  0  0  0  0  0  0
   21.0694    8.0523   53.4081 N   0  0  0  0  0  0  0  0  0  0  0  0
   25.1063    8.4247   54.5417 C   0  0  0  0  0  0  0  0  0  0  0  0
   26.0869    8.0301   53.6601 C   0  0  0  0  0  0  0  0  0  0  0  0
   27.4139    8.1038   53.9831 C   0  0  0  0  0  0  0  0  0  0  0  0
   27.7986    8.5753   55.2002 C   0  0  0  0  0  0  0  0  0  0  0  0
   29.1207    8.6583   55.5460 F   0  0  0  0  0  0  0  0  0  0  0  0
   26.8280    8.9727   56.0901 C   0  0  0  0  0  0  0  0  0  0  0  0
   25.4860    8.9139   55.8026 C   0  0  0  0  0  0  0  0  0  0  0  0
   19.8491    5.4388   53.1335 N   0  0  0  0  0  0  0  0  0  0  0  0
   21.2098    5.6065   53.4903 C   0  0  0  0  0  0  0  0  0  0  0  0
   21.9325    4.6005   53.6827 O   0  0  0  0  0  0  0  0  0  0  0  0
   19.0921    5.9521   53.6263 H   0  0  0  0  0  0  0  0  0  0  0  0
   19.5736    4.7945   52.3655 H   0  0  0  0  0  0  0  0  0  0  0  0
   20.5478   12.8989   53.2064 C   0  0  0  0  0  0  0  0  0  0  0  0
   21.0722   13.7821   52.2337 N   0  0  0  0  0  0  0  0  0  0  0  0
   22.3550   13.5001   51.7021 C   0  0  0  0  0  0  0  0  0  0  0  0
   22.3868   12.4538   50.6158 C   0  0  0  0  0  0  0  0  0  0  0  0
   21.3577   12.5078   49.7189 O   0  0  0  0  0  0  0  0  0  0  0  0
   20.1193   12.7600   50.2965 C   0  0  0  0  0  0  0  0  0  0  0  0
   20.1420   13.9981   51.1494 C   0  0  0  0  0  0  0  0  0  0  0  0
 18 19  1  0  0  0
 19 20  2  0  0  0
 19  1  1  0  0  0
  1  2  2  0  0  0
  2  3  1  0  0  0
  3 11  1  0  0  0
 11 12  2  0  0  0
 12 13  1  0  0  0
 13 14  2  0  0  0
 14 15  1  0  0  0
 14 16  1  0  0  0
 16 17  2  0  0  0
  3  4  2  0  0  0
  4  5  1  0  0  0
  5  6  2  0  0  0
  6  7  1  0  0  0
  7 23  1  0  0  0
 23 24  1  0  0  0
 24 25  1  0  0  0
 25 26  1  0  0  0
 26 27  1  0  0  0
 27 28  1  0  0  0
 28 29  1  0  0  0
  7  8  2  0  0  0
  8  9  1  0  0  0
  9 10  2  0  0  0
 10  1  1  0  0  0
 17 11  1  0  0  0
  9  4  1  0  0  0
 29 24  1  0  0  0
 18 21  1  0  0  0
 18 22  1  0  0  0
M  END
> <minimizedAffinity>
35.74891

> <CNNscore>
0.4885020256

> <CNNaffinity>
6.3278923035

> <CNN_VS>
3.0911881924

> <CNNaffinity_variance>
0.9366099238

$$$$
[H]c1c([H])c(-c2c([H])c(C(=O)N([H])[H])nc3c([H])c(C([H])([H])N4C([H])([H])C([H])([H])OC([H])([H])C4([H])[H])c([H])c([H])c23)c([H])c([H])c1F


 29 32  0  0  0  0  0  0  0  0999 V2000
   21.5050    9.6479   51.9620 C   0  0  0  0  0  0  0  0  0  0  0  0
   20.7014    8.5716   52.2635 C   0  0  0  0  0  0  0  0  0  0  0  0
   21.1866    7.4781   53.0027 C   0  0  0  0  0  0  0  0  0  0  0  0
   22.4948    7.5363   53.4090 C   0  0  0  0  0  0  0  0  0  0  0  0
   23.0414    6.5101   54.1528 C   0  0  0  0  0  0  0  0  0  0  0  0
   24.3459    6.6087   54.5495 C   0  0  0  0  0  0  0  0  0  0  0  0
   25.1651    7.6879   54.2492 C   0  0  0  0  0  0  0  0  0  0  0  0
   24.6250    8.6937   53.5205 C   0  0  0  0  0  0  0  0  0  0  0  0
   23.3136    8.6326   53.1015 C   0  0  0  0  0  0  0  0  0  0  0  0
   22.7796    9.6466   52.3868 N   0  0  0  0  0  0  0  0  0  0  0  0
   20.3155    6.3455   53.2535 C   0  0  0  0  0  0  0  0  0  0  0  0
   18.9752    6.5295   53.5073 C   0  0  0  0  0  0  0  0  0  0  0  0
   18.1388    5.4741   53.7460 C   0  0  0  0  0  0  0  0  0  0  0  0
   18.6204    4.2014   53.7377 C   0  0  0  0  0  0  0  0  0  0  0  0
   17.8025    3.1292   53.9738 F   0  0  0  0  0  0  0  0  0  0  0  0
   19.9582    4.0044   53.4854 C   0  0  0  0  0  0  0  0  0  0  0  0
   20.8293    5.0382   53.2413 C   0  0  0  0  0  0  0  0  0  0  0  0
   21.4905   12.0737   51.3194 N   0  0  0  0  0  0  0  0  0  0  0  0
   20.9586   10.7673   51.1884 C   0  0  0  0  0  0  0  0  0  0  0  0
   20.0061   10.5580   50.4008 O   0  0  0  0  0  0  0  0  0  0  0  0
   21.6414   12.5066   52.2518 H   0  0  0  0  0  0  0  0  0  0  0  0
   21.7442   12.6340   50.4813 H   0  0  0  0  0  0  0  0  0  0  0  0
   26.5386    7.6205   54.7463 C   0  0  0  0  0  0  0  0  0  0  0  0
   27.2232    8.8458   54.9237 N   0  0  0  0  0  0  0  0  0  0  0  0
   26.8554    9.6598   56.0236 C   0  0  0  0  0  0  0  0  0  0  0  0
   27.4497    9.2574   57.3505 C   0  0  0  0  0  0  0  0  0  0  0  0
   28.7519    8.8462   57.3096 O   0  0  0  0  0  0  0  0  0  0  0  0
   29.0512    8.0290   56.2263 C   0  0  0  0  0  0  0  0  0  0  0  0
   28.6565    8.6637   54.9216 C   0  0  0  0  0  0  0  0  0  0  0  0
 18 19  1  0  0  0
 19 20  2  0  0  0
 19  1  1  0  0  0
  1  2  2  0  0  0
  2  3  1  0  0  0
  3 11  1  0  0  0
 11 12  2  0  0  0
 12 13  1  0  0  0
 13 14  2  0  0  0
 14 15  1  0  0  0
 14 16  1  0  0  0
 16 17  2  0  0  0
  3  4  2  0  0  0
  4  5  1  0  0  0
  5  6  2  0  0  0
  6  7  1  0  0  0
  7 23  1  0  0  0
 23 24  1  0  0  0
 24 25  1  0  0  0
 25 26  1  0  0  0
 26 27  1  0  0  0
 27 28  1  0  0  0
 28 29  1  0  0  0
  7  8  2  0  0  0
  8  9  1  0  0  0
  9 10  2  0  0  0
 10  1  1  0  0  0
 17 11  1  0  0  0
  9  4  1  0  0  0
 29 24  1  0  0  0
 18 21  1  0  0  0
 18 22  1  0  0  0
M  END
> <minimizedAffinity>
23.66203

> <CNNscore>
0.4754782617

> <CNNaffinity>
5.9097671509

> <CNN_VS>
2.8099658489

> <CNNaffinity_variance>
0.2846890390

$$$$
[H]c1c([H])c(-c2c([H])c(C(=O)N([H])[H])nc3c([H])c(C([H])([H])N4C([H])([H])C([H])([H])OC([H])([H])C4([H])[H])c([H])c([H])c23)c([H])c([H])c1F


 29 32  0  0  0  0  0  0  0  0999 V2000
   21.5215    6.3628   53.5006 C   0  0  0  0  0  0  0  0  0  0  0  0
   22.7809    6.6171   53.9950 C   0  0  0  0  0  0  0  0  0  0  0  0
   23.4252    7.8456   53.7645 C   0  0  0  0  0  0  0  0  0  0  0  0
   22.7398    8.7761   53.0269 C   0  0  0  0  0  0  0  0  0  0  0  0
   23.2969   10.0127   52.7709 C   0  0  0  0  0  0  0  0  0  0  0  0
   22.5786   10.9187   52.0415 C   0  0  0  0  0  0  0  0  0  0  0  0
   21.3097   10.6719   51.5366 C   0  0  0  0  0  0  0  0  0  0  0  0
   20.7655    9.4580   51.7911 C   0  0  0  0  0  0  0  0  0  0  0  0
   21.4569    8.5170   52.5229 C   0  0  0  0  0  0  0  0  0  0  0  0
   20.9006    7.3141   52.7832 N   0  0  0  0  0  0  0  0  0  0  0  0
   24.7717    8.0482   54.2650 C   0  0  0  0  0  0  0  0  0  0  0  0
   24.9908    8.7124   55.4505 C   0  0  0  0  0  0  0  0  0  0  0  0
   26.2529    8.9128   55.9378 C   0  0  0  0  0  0  0  0  0  0  0  0
   27.3344    8.4534   55.2515 C   0  0  0  0  0  0  0  0  0  0  0  0
   28.6071    8.6420   55.7194 F   0  0  0  0  0  0  0  0  0  0  0  0
   27.1286    7.7881   54.0653 C   0  0  0  0  0  0  0  0  0  0  0  0
   25.8770    7.5674   53.5437 C   0  0  0  0  0  0  0  0  0  0  0  0
   19.5669    4.7989   53.3240 N   0  0  0  0  0  0  0  0  0  0  0  0
   20.8862    5.0679   53.7644 C   0  0  0  0  0  0  0  0  0  0  0  0
   21.5259    4.1898   54.3898 O   0  0  0  0  0  0  0  0  0  0  0  0
   18.7890    5.4637   53.5042 H   0  0  0  0  0  0  0  0  0  0  0  0
   19.3438    3.9250   52.8070 H   0  0  0  0  0  0  0  0  0  0  0  0
   20.6931   11.7527   50.7687 C   0  0  0  0  0  0  0  0  0  0  0  0
   21.0867   13.0749   51.0819 N   0  0  0  0  0  0  0  0  0  0  0  0
   20.0704   14.0433   51.2746 C   0  0  0  0  0  0  0  0  0  0  0  0
   19.4159   14.0291   52.6337 C   0  0  0  0  0  0  0  0  0  0  0  0
   20.2580   13.8164   53.6882 O   0  0  0  0  0  0  0  0  0  0  0  0
   21.2173   12.8384   53.4551 C   0  0  0  0  0  0  0  0  0  0  0  0
   22.0001   13.1111   52.2007 C   0  0  0  0  0  0  0  0  0  0  0  0
 18 19  1  0  0  0
 19 20  2  0  0  0
 19  1  1  0  0  0
  1  2  2  0  0  0
  2  3  1  0  0  0
  3 11  1  0  0  0
 11 12  2  0  0  0
 12 13  1  0  0  0
 13 14  2  0  0  0
 14 15  1  0  0  0
 14 16  1  0  0  0
 16 17  2  0  0  0
  3  4  2  0  0  0
  4  5  1  0  0  0
  5  6  2  0  0  0
  6  7  1  0  0  0
  7 23  1  0  0  0
 23 24  1  0  0  0
 24 25  1  0  0  0
 25 26  1  0  0  0
 26 27  1  0  0  0
 27 28  1  0  0  0
 28 29  1  0  0  0
  7  8  2  0  0  0
  8  9  1  0  0  0
  9 10  2  0  0  0
 10  1  1  0  0  0
 17 11  1  0  0  0
  9  4  1  0  0  0
 29 24  1  0  0  0
 18 21  1  0  0  0
 18 22  1  0  0  0
M  END
> <minimizedAffinity>
35.90210

> <CNNscore>
0.4604946077

> <CNNaffinity>
6.0602693558

> <CNN_VS>
2.7907214165

> <CNNaffinity_variance>
1.0839483738

$$$$
[H]c1c([H])c(-c2c([H])c(C(=O)N([H])[H])nc3c([H])c(C([H])([H])N4C([H])([H])C([H])([H])OC([H])([H])C4([H])[H])c([H])c([H])c23)c([H])c([H])c1F


 29 32  0  0  0  0  0  0  0  0999 V2000
   21.5604   10.1452   51.9574 C   0  0  0  0  0  0  0  0  0  0  0  0
   22.7792    9.9722   52.5737 C   0  0  0  0  0  0  0  0  0  0  0  0
   23.1107    8.7674   53.2188 C   0  0  0  0  0  0  0  0  0  0  0  0
   22.1646    7.7753   53.2029 C   0  0  0  0  0  0  0  0  0  0  0  0
   22.4197    6.5572   53.7997 C   0  0  0  0  0  0  0  0  0  0  0  0
   21.4565    5.5883   53.7537 C   0  0  0  0  0  0  0  0  0  0  0  0
   20.2241    5.7529   53.1372 C   0  0  0  0  0  0  0  0  0  0  0  0
   19.9777    6.9489   52.5513 C   0  0  0  0  0  0  0  0  0  0  0  0
   20.9228    7.9516   52.5754 C   0  0  0  0  0  0  0  0  0  0  0  0
   20.6734    9.1362   51.9767 N   0  0  0  0  0  0  0  0  0  0  0  0
   24.3884    8.6504   53.8958 C   0  0  0  0  0  0  0  0  0  0  0  0
   25.4912    8.1530   53.2394 C   0  0  0  0  0  0  0  0  0  0  0  0
   26.7036    8.0354   53.8613 C   0  0  0  0  0  0  0  0  0  0  0  0
   26.8478    8.4130   55.1607 C   0  0  0  0  0  0  0  0  0  0  0  0
   28.0513    8.3046   55.8041 F   0  0  0  0  0  0  0  0  0  0  0  0
   25.7530    8.9116   55.8276 C   0  0  0  0  0  0  0  0  0  0  0  0
   24.5196    9.0449   55.2376 C   0  0  0  0  0  0  0  0  0  0  0  0
   21.5930   12.6538   51.9014 N   0  0  0  0  0  0  0  0  0  0  0  0
   21.2556   11.4181   51.2966 C   0  0  0  0  0  0  0  0  0  0  0  0
   20.6874   11.4054   50.1793 O   0  0  0  0  0  0  0  0  0  0  0  0
   21.3486   12.8580   52.8904 H   0  0  0  0  0  0  0  0  0  0  0  0
   22.0963   13.3904   51.3675 H   0  0  0  0  0  0  0  0  0  0  0  0
   19.3103    4.6128   53.1942 C   0  0  0  0  0  0  0  0  0  0  0  0
   18.4685    4.5144   54.3270 N   0  0  0  0  0  0  0  0  0  0  0  0
   17.3570    5.3895   54.4075 C   0  0  0  0  0  0  0  0  0  0  0  0
   16.1492    4.9730   53.6054 C   0  0  0  0  0  0  0  0  0  0  0  0
   15.8697    3.6357   53.6173 O   0  0  0  0  0  0  0  0  0  0  0  0
   16.9924    2.8242   53.5085 C   0  0  0  0  0  0  0  0  0  0  0  0
   18.0257    3.1571   54.5488 C   0  0  0  0  0  0  0  0  0  0  0  0
 18 19  1  0  0  0
 19 20  2  0  0  0
 19  1  1  0  0  0
  1  2  2  0  0  0
  2  3  1  0  0  0
  3 11  1  0  0  0
 11 12  2  0  0  0
 12 13  1  0  0  0
 13 14  2  0  0  0
 14 15  1  0  0  0
 14 16  1  0  0  0
 16 17  2  0  0  0
  3  4  2  0  0  0
  4  5  1  0  0  0
  5  6  2  0  0  0
  6  7  1  0  0  0
  7 23  1  0  0  0
 23 24  1  0  0  0
 24 25  1  0  0  0
 25 26  1  0  0  0
 26 27  1  0  0  0
 27 28  1  0  0  0
 28 29  1  0  0  0
  7  8  2  0  0  0
  8  9  1  0  0  0
  9 10  2  0  0  0
 10  1  1  0  0  0
 17 11  1  0  0  0
  9  4  1  0  0  0
 29 24  1  0  0  0
 18 21  1  0  0  0
 18 22  1  0  0  0
M  END
> <minimizedAffinity>
23.59652

> <CNNscore>
0.4471390545

> <CNNaffinity>
6.1414098740

> <CNN_VS>
2.7460641861

> <CNNaffinity_variance>
0.6036586165

$$$$
[H]c1c([H])c(-c2c([H])c(C(=O)N([H])[H])nc3c([H])c(C([H])([H])N4C([H])([H])C([H])([H])OC([H])([H])C4([H])[H])c([H])c([H])c23)c([H])c([H])c1F


 29 32  0  0  0  0  0  0  0  0999 V2000
   21.2927    9.7350   54.8076 C   0  0  0  0  0  0  0  0  0  0  0  0
   20.6767    8.5328   54.5421 C   0  0  0  0  0  0  0  0  0  0  0  0
   21.4004    7.4291   54.0567 C   0  0  0  0  0  0  0  0  0  0  0  0
   22.7459    7.6071   53.8627 C   0  0  0  0  0  0  0  0  0  0  0  0
   23.5291    6.5671   53.4042 C   0  0  0  0  0  0  0  0  0  0  0  0
   24.8688    6.7791   53.2337 C   0  0  0  0  0  0  0  0  0  0  0  0
   25.4993    7.9872   53.4960 C   0  0  0  0  0  0  0  0  0  0  0  0
   24.7279    9.0050   53.9472 C   0  0  0  0  0  0  0  0  0  0  0  0
   23.3734    8.8319   54.1327 C   0  0  0  0  0  0  0  0  0  0  0  0
   22.6146    9.8486   54.5959 N   0  0  0  0  0  0  0  0  0  0  0  0
   20.6983    6.1983   53.7460 C   0  0  0  0  0  0  0  0  0  0  0  0
   21.3856    5.0178   53.5769 C   0  0  0  0  0  0  0  0  0  0  0  0
   20.7407    3.8479   53.2836 C   0  0  0  0  0  0  0  0  0  0  0  0
   19.3865    3.8254   53.1509 C   0  0  0  0  0  0  0  0  0  0  0  0
   18.7191    2.6666   52.8577 F   0  0  0  0  0  0  0  0  0  0  0  0
   18.6883    4.9988   53.3176 C   0  0  0  0  0  0  0  0  0  0  0  0
   19.2999    6.1930   53.6124 C   0  0  0  0  0  0  0  0  0  0  0  0
   19.6385   10.7053   56.4262 N   0  0  0  0  0  0  0  0  0  0  0  0
   20.5002   10.8606   55.3125 C   0  0  0  0  0  0  0  0  0  0  0  0
   20.5913   11.9747   54.7453 O   0  0  0  0  0  0  0  0  0  0  0  0
   18.9610    9.9196   56.4819 H   0  0  0  0  0  0  0  0  0  0  0  0
   19.6635   11.3772   57.2190 H   0  0  0  0  0  0  0  0  0  0  0  0
   26.9391    8.0377   53.2463 C   0  0  0  0  0  0  0  0  0  0  0  0
   27.7932    7.6422   54.3025 N   0  0  0  0  0  0  0  0  0  0  0  0
   29.0412    8.3008   54.4305 C   0  0  0  0  0  0  0  0  0  0  0  0
   28.9936    9.6451   55.1136 C   0  0  0  0  0  0  0  0  0  0  0  0
   28.1514    9.7287   56.1861 O   0  0  0  0  0  0  0  0  0  0  0  0
   26.9323    9.0894   55.9966 C   0  0  0  0  0  0  0  0  0  0  0  0
   27.1117    7.6569   55.5764 C   0  0  0  0  0  0  0  0  0  0  0  0
 18 19  1  0  0  0
 19 20  2  0  0  0
 19  1  1  0  0  0
  1  2  2  0  0  0
  2  3  1  0  0  0
  3 11  1  0  0  0
 11 12  2  0  0  0
 12 13  1  0  0  0
 13 14  2  0  0  0
 14 15  1  0  0  0
 14 16  1  0  0  0
 16 17  2  0  0  0
  3  4  2  0  0  0
  4  5  1  0  0  0
  5  6  2  0  0  0
  6  7  1  0  0  0
  7 23  1  0  0  0
 23 24  1  0  0  0
 24 25  1  0  0  0
 25 26  1  0  0  0
 26 27  1  0  0  0
 27 28  1  0  0  0
 28 29  1  0  0  0
  7  8  2  0  0  0
  8  9  1  0  0  0
  9 10  2  0  0  0
 10  1  1  0  0  0
 17 11  1  0  0  0
  9  4  1  0  0  0
 29 24  1  0  0  0
 18 21  1  0  0  0
 18 22  1  0  0  0
M  END
> <minimizedAffinity>
26.83282

> <CNNscore>
0.4415877163

> <CNNaffinity>
5.8454298973

> <CNN_VS>
2.5812699795

> <CNNaffinity_variance>
0.3505945802

$$$$
[H]c1c([H])c(-c2c([H])c(C(=O)N([H])[H])nc3c([H])c(C([H])([H])N4C([H])([H])C([H])([H])OC([H])([H])C4([H])[H])c([H])c([H])c23)c([H])c([H])c1F


 29 32  0  0  0  0  0  0  0  0999 V2000
   20.9368    6.4361   53.4141 C   0  0  0  0  0  0  0  0  0  0  0  0
   20.7501    7.7347   52.9972 C   0  0  0  0  0  0  0  0  0  0  0  0
   21.8168    8.6497   52.9471 C   0  0  0  0  0  0  0  0  0  0  0  0
   23.0488    8.1868   53.3310 C   0  0  0  0  0  0  0  0  0  0  0  0
   24.1498    9.0184   53.2944 C   0  0  0  0  0  0  0  0  0  0  0  0
   25.3641    8.5180   53.6739 C   0  0  0  0  0  0  0  0  0  0  0  0
   25.5630    7.2116   54.0978 C   0  0  0  0  0  0  0  0  0  0  0  0
   24.4806    6.3980   54.1309 C   0  0  0  0  0  0  0  0  0  0  0  0
   23.2391    6.8639   53.7561 C   0  0  0  0  0  0  0  0  0  0  0  0
   22.1681    6.0415   53.7794 N   0  0  0  0  0  0  0  0  0  0  0  0
   21.5607   10.0205   52.5472 C   0  0  0  0  0  0  0  0  0  0  0  0
   21.3321   10.3390   51.2278 C   0  0  0  0  0  0  0  0  0  0  0  0
   21.0891   11.6255   50.8321 C   0  0  0  0  0  0  0  0  0  0  0  0
   21.0676   12.6324   51.7473 C   0  0  0  0  0  0  0  0  0  0  0  0
   20.8265   13.9276   51.3751 F   0  0  0  0  0  0  0  0  0  0  0  0
   21.2946   12.3268   53.0691 C   0  0  0  0  0  0  0  0  0  0  0  0
   21.5422   11.0478   53.5050 C   0  0  0  0  0  0  0  0  0  0  0  0
   19.9876    4.1135   53.3698 N   0  0  0  0  0  0  0  0  0  0  0  0
   19.7967    5.5148   53.4514 C   0  0  0  0  0  0  0  0  0  0  0  0
   18.6379    5.9811   53.5572 O   0  0  0  0  0  0  0  0  0  0  0  0
   20.5858    3.6898   52.6336 H   0  0  0  0  0  0  0  0  0  0  0  0
   19.5312    3.4716   54.0484 H   0  0  0  0  0  0  0  0  0  0  0  0
   26.9284    6.8509   54.4765 C   0  0  0  0  0  0  0  0  0  0  0  0
   27.9250    7.8437   54.3266 N   0  0  0  0  0  0  0  0  0  0  0  0
   27.5131    9.1988   54.2866 C   0  0  0  0  0  0  0  0  0  0  0  0
   27.2375    9.8286   55.6295 C   0  0  0  0  0  0  0  0  0  0  0  0
   28.1076    9.4889   56.6265 O   0  0  0  0  0  0  0  0  0  0  0  0
   28.4569    8.1439   56.6358 C   0  0  0  0  0  0  0  0  0  0  0  0
   28.9815    7.6934   55.3006 C   0  0  0  0  0  0  0  0  0  0  0  0
 18 19  1  0  0  0
 19 20  2  0  0  0
 19  1  1  0  0  0
  1  2  2  0  0  0
  2  3  1  0  0  0
  3 11  1  0  0  0
 11 12  2  0  0  0
 12 13  1  0  0  0
 13 14  2  0  0  0
 14 15  1  0  0  0
 14 16  1  0  0  0
 16 17  2  0  0  0
  3  4  2  0  0  0
  4  5  1  0  0  0
  5  6  2  0  0  0
  6  7  1  0  0  0
  7 23  1  0  0  0
 23 24  1  0  0  0
 24 25  1  0  0  0
 25 26  1  0  0  0
 26 27  1  0  0  0
 27 28  1  0  0  0
 28 29  1  0  0  0
  7  8  2  0  0  0
  8  9  1  0  0  0
  9 10  2  0  0  0
 10  1  1  0  0  0
 17 11  1  0  0  0
  9  4  1  0  0  0
 29 24  1  0  0  0
 18 21  1  0  0  0
 18 22  1  0  0  0
M  END
> <minimizedAffinity>
20.17604

> <CNNscore>
0.4365225732

> <CNNaffinity>
5.9927697182

> <CNN_VS>
2.6159791946

> <CNNaffinity_variance>
0.3501861691

$$$$
[H]c1c([H])c(-c2c([H])c(C(=O)N([H])[H])nc3c([H])c(C([H])([H])N4C([H])([H])C([H])([H])OC([H])([H])C4([H])[H])c([H])c([H])c23)c([H])c([H])c1F


 29 32  0  0  0  0  0  0  0  0999 V2000
   21.3928    9.9179   54.7494 C   0  0  0  0  0  0  0  0  0  0  0  0
   22.7641    9.7982   54.7596 C   0  0  0  0  0  0  0  0  0  0  0  0
   23.3992    8.6035   54.3760 C   0  0  0  0  0  0  0  0  0  0  0  0
   22.5887    7.5670   53.9906 C   0  0  0  0  0  0  0  0  0  0  0  0
   23.1356    6.3667   53.5840 C   0  0  0  0  0  0  0  0  0  0  0  0
   22.2961    5.3600   53.1961 C   0  0  0  0  0  0  0  0  0  0  0  0
   20.9127    5.4693   53.1842 C   0  0  0  0  0  0  0  0  0  0  0  0
   20.3796    6.6490   53.5823 C   0  0  0  0  0  0  0  0  0  0  0  0
   21.1916    7.6888   53.9805 C   0  0  0  0  0  0  0  0  0  0  0  0
   20.6514    8.8661   54.3630 N   0  0  0  0  0  0  0  0  0  0  0  0
   24.8450    8.5103   54.4499 C   0  0  0  0  0  0  0  0  0  0  0  0
   25.5141    8.8345   55.6082 C   0  0  0  0  0  0  0  0  0  0  0  0
   26.8765    8.7528   55.6965 C   0  0  0  0  0  0  0  0  0  0  0  0
   27.6101    8.3434   54.6260 C   0  0  0  0  0  0  0  0  0  0  0  0
   28.9747    8.2538   54.6906 F   0  0  0  0  0  0  0  0  0  0  0  0
   26.9530    8.0166   53.4626 C   0  0  0  0  0  0  0  0  0  0  0  0
   25.5870    8.0859   53.3352 C   0  0  0  0  0  0  0  0  0  0  0  0
   19.9721   11.2590   56.3244 N   0  0  0  0  0  0  0  0  0  0  0  0
   20.7716   11.1818   55.1575 C   0  0  0  0  0  0  0  0  0  0  0  0
   20.9548   12.2061   54.4584 O   0  0  0  0  0  0  0  0  0  0  0  0
   19.2126   10.5741   56.5075 H   0  0  0  0  0  0  0  0  0  0  0  0
   20.1269   12.0068   57.0298 H   0  0  0  0  0  0  0  0  0  0  0  0
   20.1700    4.2872   52.7494 C   0  0  0  0  0  0  0  0  0  0  0  0
   19.6166    3.4637   53.7578 N   0  0  0  0  0  0  0  0  0  0  0  0
   18.6281    4.0231   54.6050 C   0  0  0  0  0  0  0  0  0  0  0  0
   17.2354    4.0700   54.0269 C   0  0  0  0  0  0  0  0  0  0  0  0
   16.8631    2.9725   53.3036 O   0  0  0  0  0  0  0  0  0  0  0  0
   17.8607    2.4817   52.4701 C   0  0  0  0  0  0  0  0  0  0  0  0
   19.1345    2.2115   53.2220 C   0  0  0  0  0  0  0  0  0  0  0  0
 18 19  1  0  0  0
 19 20  2  0  0  0
 19  1  1  0  0  0
  1  2  2  0  0  0
  2  3  1  0  0  0
  3 11  1  0  0  0
 11 12  2  0  0  0
 12 13  1  0  0  0
 13 14  2  0  0  0
 14 15  1  0  0  0
 14 16  1  0  0  0
 16 17  2  0  0  0
  3  4  2  0  0  0
  4  5  1  0  0  0
  5  6  2  0  0  0
  6  7  1  0  0  0
  7 23  1  0  0  0
 23 24  1  0  0  0
 24 25  1  0  0  0
 25 26  1  0  0  0
 26 27  1  0  0  0
 27 28  1  0  0  0
 28 29  1  0  0  0
  7  8  2  0  0  0
  8  9  1  0  0  0
  9 10  2  0  0  0
 10  1  1  0  0  0
 17 11  1  0  0  0
  9  4  1  0  0  0
 29 24  1  0  0  0
 18 21  1  0  0  0
 18 22  1  0  0  0
M  END
> <minimizedAffinity>
25.07994

> <CNNscore>
0.4220286608

> <CNNaffinity>
6.1901121140

> <CNN_VS>
2.6124048233

> <CNNaffinity_variance>
0.6770474315

$$$$
[H]c1c([H])c(-c2c([H])c(C(=O)N([H])[H])nc3c([H])c(C([H])([H])N4C([H])([H])C([H])([H])OC([H])([H])C4([H])[H])c([H])c([H])c23)c([H])c([H])c1F


 29 32  0  0  0  0  0  0  0  0999 V2000
   21.0927    6.4428   53.2805 C   0  0  0  0  0  0  0  0  0  0  0  0
   20.8850    7.7235   52.8204 C   0  0  0  0  0  0  0  0  0  0  0  0
   21.8333    8.7408   53.0289 C   0  0  0  0  0  0  0  0  0  0  0  0
   22.9725    8.3960   53.7092 C   0  0  0  0  0  0  0  0  0  0  0  0
   23.9590    9.3334   53.9399 C   0  0  0  0  0  0  0  0  0  0  0  0
   25.0859    8.9496   54.6119 C   0  0  0  0  0  0  0  0  0  0  0  0
   25.3044    7.6623   55.0818 C   0  0  0  0  0  0  0  0  0  0  0  0
   24.3349    6.7446   54.8523 C   0  0  0  0  0  0  0  0  0  0  0  0
   23.1841    7.0913   54.1783 C   0  0  0  0  0  0  0  0  0  0  0  0
   22.2288    6.1661   53.9422 N   0  0  0  0  0  0  0  0  0  0  0  0
   21.5473   10.0861   52.5675 C   0  0  0  0  0  0  0  0  0  0  0  0
   21.5340   11.1450   53.4466 C   0  0  0  0  0  0  0  0  0  0  0  0
   21.2664   12.4200   53.0299 C   0  0  0  0  0  0  0  0  0  0  0  0
   21.0038   12.6724   51.7188 C   0  0  0  0  0  0  0  0  0  0  0  0
   20.7332   13.9401   51.2783 F   0  0  0  0  0  0  0  0  0  0  0  0
   21.0140   11.6224   50.8303 C   0  0  0  0  0  0  0  0  0  0  0  0
   21.2782   10.3290   51.2103 C   0  0  0  0  0  0  0  0  0  0  0  0
   19.8571    4.3732   53.9791 N   0  0  0  0  0  0  0  0  0  0  0  0
   20.0774    5.4122   53.0416 C   0  0  0  0  0  0  0  0  0  0  0  0
   19.3974    5.4571   51.9895 O   0  0  0  0  0  0  0  0  0  0  0  0
   20.6444    3.8173   54.3672 H   0  0  0  0  0  0  0  0  0  0  0  0
   18.8972    4.1405   54.3032 H   0  0  0  0  0  0  0  0  0  0  0  0
   26.5631    7.4325   55.7895 C   0  0  0  0  0  0  0  0  0  0  0  0
   27.6438    8.2925   55.4832 N   0  0  0  0  0  0  0  0  0  0  0  0
   28.8640    7.7048   55.0665 C   0  0  0  0  0  0  0  0  0  0  0  0
   28.9189    7.2927   53.6164 C   0  0  0  0  0  0  0  0  0  0  0  0
   28.3324    8.1590   52.7377 O   0  0  0  0  0  0  0  0  0  0  0  0
   27.1261    8.6845   53.1845 C   0  0  0  0  0  0  0  0  0  0  0  0
   27.2611    9.3189   54.5410 C   0  0  0  0  0  0  0  0  0  0  0  0
 18 19  1  0  0  0
 19 20  2  0  0  0
 19  1  1  0  0  0
  1  2  2  0  0  0
  2  3  1  0  0  0
  3 11  1  0  0  0
 11 12  2  0  0  0
 12 13  1  0  0  0
 13 14  2  0  0  0
 14 15  1  0  0  0
 14 16  1  0  0  0
 16 17  2  0  0  0
  3  4  2  0  0  0
  4  5  1  0  0  0
  5  6  2  0  0  0
  6  7  1  0  0  0
  7 23  1  0  0  0
 23 24  1  0  0  0
 24 25  1  0  0  0
 25 26  1  0  0  0
 26 27  1  0  0  0
 27 28  1  0  0  0
 28 29  1  0  0  0
  7  8  2  0  0  0
  8  9  1  0  0  0
  9 10  2  0  0  0
 10  1  1  0  0  0
 17 11  1  0  0  0
  9  4  1  0  0  0
 29 24  1  0  0  0
 18 21  1  0  0  0
 18 22  1  0  0  0
M  END
> <minimizedAffinity>
29.34638

> <CNNscore>
0.4113813043

> <CNNaffinity>
5.9586248398

> <CNN_VS>
2.4512667656

> <CNNaffinity_variance>
0.5005993247

$$$$
[H]c1c([H])c(-c2c([H])c(C(=O)N([H])[H])nc3c([H])c(C([H])([H])N4C([H])([H])C([H])([H])OC([H])([H])C4([H])[H])c([H])c([H])c23)c([H])c([H])c1F


 29 32  0  0  0  0  0  0  0  0999 V2000
   24.1909    7.4878   53.9603 C   0  0  0  0  0  0  0  0  0  0  0  0
   23.7092    8.7193   53.5778 C   0  0  0  0  0  0  0  0  0  0  0  0
   22.3717    8.8925   53.1796 C   0  0  0  0  0  0  0  0  0  0  0  0
   21.5722    7.7788   53.1922 C   0  0  0  0  0  0  0  0  0  0  0  0
   20.2431    7.8690   52.8310 C   0  0  0  0  0  0  0  0  0  0  0  0
   19.4743    6.7392   52.8668 C   0  0  0  0  0  0  0  0  0  0  0  0
   19.9502    5.4928   53.2485 C   0  0  0  0  0  0  0  0  0  0  0  0
   21.2545    5.4083   53.6038 C   0  0  0  0  0  0  0  0  0  0  0  0
   22.0630    6.5240   53.5815 C   0  0  0  0  0  0  0  0  0  0  0  0
   23.3590    6.4328   53.9505 N   0  0  0  0  0  0  0  0  0  0  0  0
   21.9237   10.2000   52.7389 C   0  0  0  0  0  0  0  0  0  0  0  0
   21.6563   10.4430   51.4107 C   0  0  0  0  0  0  0  0  0  0  0  0
   21.2333   11.6692   50.9768 C   0  0  0  0  0  0  0  0  0  0  0  0
   21.0652   12.6896   51.8613 C   0  0  0  0  0  0  0  0  0  0  0  0
   20.6427   13.9253   51.4505 F   0  0  0  0  0  0  0  0  0  0  0  0
   21.3292   12.4593   53.1914 C   0  0  0  0  0  0  0  0  0  0  0  0
   21.7555   11.2424   53.6654 C   0  0  0  0  0  0  0  0  0  0  0  0
   26.6077    8.1350   53.7657 N   0  0  0  0  0  0  0  0  0  0  0  0
   25.5927    7.3516   54.3681 C   0  0  0  0  0  0  0  0  0  0  0  0
   25.8908    6.5273   55.2643 O   0  0  0  0  0  0  0  0  0  0  0  0
   26.6883    8.2167   52.7330 H   0  0  0  0  0  0  0  0  0  0  0  0
   27.3001    8.6500   54.3453 H   0  0  0  0  0  0  0  0  0  0  0  0
   18.9890    4.3914   53.2171 C   0  0  0  0  0  0  0  0  0  0  0  0
   18.1372    4.2440   54.3370 N   0  0  0  0  0  0  0  0  0  0  0  0
   17.0625    5.1564   54.4797 C   0  0  0  0  0  0  0  0  0  0  0  0
   15.8432    4.8517   53.6454 C   0  0  0  0  0  0  0  0  0  0  0  0
   15.5084    3.5301   53.5564 O   0  0  0  0  0  0  0  0  0  0  0  0
   16.5971    2.6828   53.3903 C   0  0  0  0  0  0  0  0  0  0  0  0
   17.6372    2.8936   54.4555 C   0  0  0  0  0  0  0  0  0  0  0  0
 18 19  1  0  0  0
 19 20  2  0  0  0
 19  1  1  0  0  0
  1  2  2  0  0  0
  2  3  1  0  0  0
  3 11  1  0  0  0
 11 12  2  0  0  0
 12 13  1  0  0  0
 13 14  2  0  0  0
 14 15  1  0  0  0
 14 16  1  0  0  0
 16 17  2  0  0  0
  3  4  2  0  0  0
  4  5  1  0  0  0
  5  6  2  0  0  0
  6  7  1  0  0  0
  7 23  1  0  0  0
 23 24  1  0  0  0
 24 25  1  0  0  0
 25 26  1  0  0  0
 26 27  1  0  0  0
 27 28  1  0  0  0
 28 29  1  0  0  0
  7  8  2  0  0  0
  8  9  1  0  0  0
  9 10  2  0  0  0
 10  1  1  0  0  0
 17 11  1  0  0  0
  9  4  1  0  0  0
 29 24  1  0  0  0
 18 21  1  0  0  0
 18 22  1  0  0  0
M  END
> <minimizedAffinity>
24.20108

> <CNNscore>
0.3668830693

> <CNNaffinity>
5.9162292480

> <CNN_VS>
2.1705644131

> <CNNaffinity_variance>
0.6028157473

$$$$
[H]c1c(C([H])([H])[H])nc(C([H])([H])[H])c([H])c1-c1nc(-c2c([H])c([H])c(C([H])([H])[H])c(OC([H])([H])[H])c2[H])n2c1C([H])([H])C([H])([H])OC([H])([H])C2([H])[H]


 27 30  0  0  0  0  0  0  0  0999 V2000
   22.2422    7.1833   54.2428 C   0  0  0  0  0  0  0  0  0  0  0  0
   23.6027    7.0358   54.3998 N   0  0  0  0  0  0  0  0  0  0  0  0
   24.1275    8.2009   54.7913 C   0  0  0  0  0  0  0  0  0  0  0  0
   23.0704    9.0777   54.8763 C   0  0  0  0  0  0  0  0  0  0  0  0
   23.3051   10.4853   55.2643 C   0  0  0  0  0  0  0  0  0  0  0  0
   22.4129   11.4268   54.4722 C   0  0  0  0  0  0  0  0  0  0  0  0
   21.0845   11.3268   54.7461 O   0  0  0  0  0  0  0  0  0  0  0  0
   20.6773   10.2646   55.4993 C   0  0  0  0  0  0  0  0  0  0  0  0
   20.5935    9.0428   54.5675 C   0  0  0  0  0  0  0  0  0  0  0  0
   21.9050    8.4357   54.5365 N   0  0  0  0  0  0  0  0  0  0  0  0
   25.5304    8.4565   55.0632 C   0  0  0  0  0  0  0  0  0  0  0  0
   26.0194    9.1446   56.1493 C   0  0  0  0  0  0  0  0  0  0  0  0
   27.3746    9.3546   56.3509 C   0  0  0  0  0  0  0  0  0  0  0  0
   27.8627   10.1146   57.5558 C   0  0  0  0  0  0  0  0  0  0  0  0
   28.2163    8.8569   55.4367 N   0  0  0  0  0  0  0  0  0  0  0  0
   27.8219    8.1740   54.3494 C   0  0  0  0  0  0  0  0  0  0  0  0
   28.8666    7.6800   53.4194 C   0  0  0  0  0  0  0  0  0  0  0  0
   26.4661    7.9725   54.1618 C   0  0  0  0  0  0  0  0  0  0  0  0
   19.2496    4.9472   53.5989 C   0  0  0  0  0  0  0  0  0  0  0  0
   20.0385    6.0558   53.9231 C   0  0  0  0  0  0  0  0  0  0  0  0
   21.4045    6.0665   53.8519 C   0  0  0  0  0  0  0  0  0  0  0  0
   22.0395    4.8807   53.4213 C   0  0  0  0  0  0  0  0  0  0  0  0
   21.2682    3.8097   53.1077 C   0  0  0  0  0  0  0  0  0  0  0  0
   19.8905    3.8099   53.1850 C   0  0  0  0  0  0  0  0  0  0  0  0
   19.1485    2.5736   52.8156 C   0  0  0  0  0  0  0  0  0  0  0  0
   17.0864    4.0123   54.3291 C   0  0  0  0  0  0  0  0  0  0  0  0
   17.8839    4.9566   53.6785 O   0  0  0  0  0  0  0  0  0  0  0  0
 26 27  1  0  0  0
 27 19  1  0  0  0
 19 20  2  0  0  0
 20 21  1  0  0  0
 21 22  2  0  0  0
 22 23  1  0  0  0
 23 24  2  0  0  0
 24 25  1  0  0  0
 21  1  1  0  0  0
  1  2  2  0  0  0
  2  3  1  0  0  0
  3  4  2  0  0  0
  4  5  1  0  0  0
  5  6  1  0  0  0
  6  7  1  0  0  0
  7  8  1  0  0  0
  8  9  1  0  0  0
  9 10  1  0  0  0
  3 11  1  0  0  0
 11 12  2  0  0  0
 12 13  1  0  0  0
 13 14  1  0  0  0
 13 15  2  0  0  0
 15 16  1  0  0  0
 16 17  1  0  0  0
 16 18  2  0  0  0
 24 19  1  0  0  0
 10  1  1  0  0  0
 18 11  1  0  0  0
 10  4  1  0  0  0
M  END
> <minimizedAffinity>
27.72948

> <CNNscore>
0.5576277971

> <CNNaffinity>
6.3018860817

> <CNN_VS>
3.5141067505

> <CNNaffinity_variance>
0.2674763501

$$$$
[H]c1c(C([H])([H])[H])nc(C([H])([H])[H])c([H])c1-c1nc(-c2c([H])c([H])c(C([H])([H])[H])c(OC([H])([H])[H])c2[H])n2c1C([H])([H])C([H])([H])OC([H])([H])C2([H])[H]


 27 30  0  0  0  0  0  0  0  0999 V2000
   23.4918    7.5434   53.6497 C   0  0  0  0  0  0  0  0  0  0  0  0
   22.9677    6.2938   53.8968 N   0  0  0  0  0  0  0  0  0  0  0  0
   21.7545    6.2100   53.3427 C   0  0  0  0  0  0  0  0  0  0  0  0
   21.5310    7.4292   52.7451 C   0  0  0  0  0  0  0  0  0  0  0  0
   20.2514    7.6905   52.0513 C   0  0  0  0  0  0  0  0  0  0  0  0
   19.7818    9.1163   52.2890 C   0  0  0  0  0  0  0  0  0  0  0  0
   20.5567   10.0791   51.7214 O   0  0  0  0  0  0  0  0  0  0  0  0
   21.7658    9.6960   51.2187 C   0  0  0  0  0  0  0  0  0  0  0  0
   22.7434    9.5841   52.4019 C   0  0  0  0  0  0  0  0  0  0  0  0
   22.6160    8.2483   52.9392 N   0  0  0  0  0  0  0  0  0  0  0  0
   20.8768    5.0544   53.3812 C   0  0  0  0  0  0  0  0  0  0  0  0
   21.2373    3.7682   53.0525 C   0  0  0  0  0  0  0  0  0  0  0  0
   20.3484    2.7062   53.1107 C   0  0  0  0  0  0  0  0  0  0  0  0
   20.7895    1.3148   52.7408 C   0  0  0  0  0  0  0  0  0  0  0  0
   19.0974    2.9728   53.5058 N   0  0  0  0  0  0  0  0  0  0  0  0
   18.6646    4.1985   53.8440 C   0  0  0  0  0  0  0  0  0  0  0  0
   17.2496    4.3471   54.2637 C   0  0  0  0  0  0  0  0  0  0  0  0
   19.5633    5.2484   53.7808 C   0  0  0  0  0  0  0  0  0  0  0  0
   26.3685    8.9014   55.7114 C   0  0  0  0  0  0  0  0  0  0  0  0
   25.0894    8.5017   55.3108 C   0  0  0  0  0  0  0  0  0  0  0  0
   24.8178    7.9076   54.1089 C   0  0  0  0  0  0  0  0  0  0  0  0
   25.9051    7.6899   53.2341 C   0  0  0  0  0  0  0  0  0  0  0  0
   27.1429    8.0793   53.6294 C   0  0  0  0  0  0  0  0  0  0  0  0
   27.4049    8.6795   54.8439 C   0  0  0  0  0  0  0  0  0  0  0  0
   28.8052    9.0652   55.1693 C   0  0  0  0  0  0  0  0  0  0  0  0
   27.7514    9.3083   57.7135 C   0  0  0  0  0  0  0  0  0  0  0  0
   26.6189    9.4959   56.9178 O   0  0  0  0  0  0  0  0  0  0  0  0
 26 27  1  0  0  0
 27 19  1  0  0  0
 19 20  2  0  0  0
 20 21  1  0  0  0
 21 22  2  0  0  0
 22 23  1  0  0  0
 23 24  2  0  0  0
 24 25  1  0  0  0
 21  1  1  0  0  0
  1  2  2  0  0  0
  2  3  1  0  0  0
  3  4  2  0  0  0
  4  5  1  0  0  0
  5  6  1  0  0  0
  6  7  1  0  0  0
  7  8  1  0  0  0
  8  9  1  0  0  0
  9 10  1  0  0  0
  3 11  1  0  0  0
 11 12  2  0  0  0
 12 13  1  0  0  0
 13 14  1  0  0  0
 13 15  2  0  0  0
 15 16  1  0  0  0
 16 17  1  0  0  0
 16 18  2  0  0  0
 24 19  1  0  0  0
 10  1  1  0  0  0
 18 11  1  0  0  0
 10  4  1  0  0  0
M  END
> <minimizedAffinity>
28.75813

> <CNNscore>
0.5559567809

> <CNNaffinity>
6.3579072952

> <CNN_VS>
3.5347216129

> <CNNaffinity_variance>
0.4271152020

$$$$
[H]c1c(C([H])([H])[H])nc(C([H])([H])[H])c([H])c1-c1nc(-c2c([H])c([H])c(C([H])([H])[H])c(OC([H])([H])[H])c2[H])n2c1C([H])([H])C([H])([H])OC([H])([H])C2([H])[H]


 27 30  0  0  0  0  0  0  0  0999 V2000
   23.3344    7.5018   53.6144 C   0  0  0  0  0  0  0  0  0  0  0  0
   22.7697    6.2812   53.9120 N   0  0  0  0  0  0  0  0  0  0  0  0
   21.5638    6.2054   53.3412 C   0  0  0  0  0  0  0  0  0  0  0  0
   21.3860    7.4000   52.6819 C   0  0  0  0  0  0  0  0  0  0  0  0
   20.1261    7.6639   51.9538 C   0  0  0  0  0  0  0  0  0  0  0  0
   19.6950    9.1124   52.1142 C   0  0  0  0  0  0  0  0  0  0  0  0
   20.5071   10.0239   51.5148 O   0  0  0  0  0  0  0  0  0  0  0  0
   21.7125    9.5823   51.0525 C   0  0  0  0  0  0  0  0  0  0  0  0
   22.6670    9.5001   52.2568 C   0  0  0  0  0  0  0  0  0  0  0  0
   22.4915    8.1961   52.8555 N   0  0  0  0  0  0  0  0  0  0  0  0
   20.6518    5.0787   53.4198 C   0  0  0  0  0  0  0  0  0  0  0  0
   19.3426    5.1404   53.8375 C   0  0  0  0  0  0  0  0  0  0  0  0
   18.5226    4.0240   53.8893 C   0  0  0  0  0  0  0  0  0  0  0  0
   17.0950    4.1411   54.3539 C   0  0  0  0  0  0  0  0  0  0  0  0
   19.0527    2.8541   53.5122 N   0  0  0  0  0  0  0  0  0  0  0  0
   20.3200    2.7074   53.0920 C   0  0  0  0  0  0  0  0  0  0  0  0
   20.7733    1.3491   52.7046 C   0  0  0  0  0  0  0  0  0  0  0  0
   21.1263    3.8307   53.0458 C   0  0  0  0  0  0  0  0  0  0  0  0
   26.2159    8.8797   55.6562 C   0  0  0  0  0  0  0  0  0  0  0  0
   24.9321    8.4980   55.2530 C   0  0  0  0  0  0  0  0  0  0  0  0
   24.6629    7.8496   54.0789 C   0  0  0  0  0  0  0  0  0  0  0  0
   25.7579    7.5535   53.2373 C   0  0  0  0  0  0  0  0  0  0  0  0
   27.0002    7.9257   53.6351 C   0  0  0  0  0  0  0  0  0  0  0  0
   27.2596    8.5812   54.8213 C   0  0  0  0  0  0  0  0  0  0  0  0
   28.6654    8.9411   55.1525 C   0  0  0  0  0  0  0  0  0  0  0  0
   27.5693    9.3403   57.6668 C   0  0  0  0  0  0  0  0  0  0  0  0
   26.4637    9.5292   56.8344 O   0  0  0  0  0  0  0  0  0  0  0  0
 26 27  1  0  0  0
 27 19  1  0  0  0
 19 20  2  0  0  0
 20 21  1  0  0  0
 21 22  2  0  0  0
 22 23  1  0  0  0
 23 24  2  0  0  0
 24 25  1  0  0  0
 21  1  1  0  0  0
  1  2  2  0  0  0
  2  3  1  0  0  0
  3  4  2  0  0  0
  4  5  1  0  0  0
  5  6  1  0  0  0
  6  7  1  0  0  0
  7  8  1  0  0  0
  8  9  1  0  0  0
  9 10  1  0  0  0
  3 11  1  0  0  0
 11 12  2  0  0  0
 12 13  1  0  0  0
 13 14  1  0  0  0
 13 15  2  0  0  0
 15 16  1  0  0  0
 16 17  1  0  0  0
 16 18  2  0  0  0
 24 19  1  0  0  0
 10  1  1  0  0  0
 18 11  1  0  0  0
 10  4  1  0  0  0
M  END
> <minimizedAffinity>
28.91408

> <CNNscore>
0.5556647182

> <CNNaffinity>
6.3700966835

> <CNN_VS>
3.5396380424

> <CNNaffinity_variance>
0.4432469904

$$$$
[H]c1c(C([H])([H])[H])nc(C([H])([H])[H])c([H])c1-c1nc(-c2c([H])c([H])c(C([H])([H])[H])c(OC([H])([H])[H])c2[H])n2c1C([H])([H])C([H])([H])OC([H])([H])C2([H])[H]


 27 30  0  0  0  0  0  0  0  0999 V2000
   22.1920    7.1035   54.1880 C   0  0  0  0  0  0  0  0  0  0  0  0
   23.5562    6.9426   54.2898 N   0  0  0  0  0  0  0  0  0  0  0  0
   24.1055    8.0961   54.6817 C   0  0  0  0  0  0  0  0  0  0  0  0
   23.0600    8.9795   54.8231 C   0  0  0  0  0  0  0  0  0  0  0  0
   23.3213   10.3779   55.2269 C   0  0  0  0  0  0  0  0  0  0  0  0
   22.4075   11.3407   54.4867 C   0  0  0  0  0  0  0  0  0  0  0  0
   21.0898   11.2461   54.8097 O   0  0  0  0  0  0  0  0  0  0  0  0
   20.7027   10.1735   55.5588 C   0  0  0  0  0  0  0  0  0  0  0  0
   20.5728    8.9696   54.6091 C   0  0  0  0  0  0  0  0  0  0  0  0
   21.8769    8.3529   54.5168 N   0  0  0  0  0  0  0  0  0  0  0  0
   25.5199    8.3357   54.9040 C   0  0  0  0  0  0  0  0  0  0  0  0
   26.5405    7.8898   54.0966 C   0  0  0  0  0  0  0  0  0  0  0  0
   27.8743    8.1538   54.3658 C   0  0  0  0  0  0  0  0  0  0  0  0
   28.9573    7.6441   53.4521 C   0  0  0  0  0  0  0  0  0  0  0  0
   28.1497    8.8731   55.4607 N   0  0  0  0  0  0  0  0  0  0  0  0
   27.2140    9.3458   56.3005 C   0  0  0  0  0  0  0  0  0  0  0  0
   27.6646   10.1291   57.4769 C   0  0  0  0  0  0  0  0  0  0  0  0
   25.8871    9.0740   56.0187 C   0  0  0  0  0  0  0  0  0  0  0  0
   19.1541    4.9165   53.5893 C   0  0  0  0  0  0  0  0  0  0  0  0
   19.9657    6.0120   53.9018 C   0  0  0  0  0  0  0  0  0  0  0  0
   21.3304    6.0007   53.8096 C   0  0  0  0  0  0  0  0  0  0  0  0
   21.9395    4.8050   53.3687 C   0  0  0  0  0  0  0  0  0  0  0  0
   21.1462    3.7468   53.0666 C   0  0  0  0  0  0  0  0  0  0  0  0
   19.7701    3.7693   53.1651 C   0  0  0  0  0  0  0  0  0  0  0  0
   19.0026    2.5454   52.8067 C   0  0  0  0  0  0  0  0  0  0  0  0
   16.9942    4.0676   54.4266 C   0  0  0  0  0  0  0  0  0  0  0  0
   17.7901    4.9479   53.6899 O   0  0  0  0  0  0  0  0  0  0  0  0
 26 27  1  0  0  0
 27 19  1  0  0  0
 19 20  2  0  0  0
 20 21  1  0  0  0
 21 22  2  0  0  0
 22 23  1  0  0  0
 23 24  2  0  0  0
 24 25  1  0  0  0
 21  1  1  0  0  0
  1  2  2  0  0  0
  2  3  1  0  0  0
  3  4  2  0  0  0
  4  5  1  0  0  0
  5  6  1  0  0  0
  6  7  1  0  0  0
  7  8  1  0  0  0
  8  9  1  0  0  0
  9 10  1  0  0  0
  3 11  1  0  0  0
 11 12  2  0  0  0
 12 13  1  0  0  0
 13 14  1  0  0  0
 13 15  2  0  0  0
 15 16  1  0  0  0
 16 17  1  0  0  0
 16 18  2  0  0  0
 24 19  1  0  0  0
 10  1  1  0  0  0
 18 11  1  0  0  0
 10  4  1  0  0  0
M  END
> <minimizedAffinity>
27.74393

> <CNNscore>
0.5524408817

> <CNNaffinity>
6.2909765244

> <CNN_VS>
3.4753925800

> <CNNaffinity_variance>
0.2643319964

$$$$
[H]c1c(C([H])([H])[H])nc(C([H])([H])[H])c([H])c1-c1nc(-c2c([H])c([H])c(C([H])([H])[H])c(OC([H])([H])[H])c2[H])n2c1C([H])([H])C([H])([H])OC([H])([H])C2([H])[H]


 27 30  0  0  0  0  0  0  0  0999 V2000
   23.7061    7.9196   54.4396 C   0  0  0  0  0  0  0  0  0  0  0  0
   23.1637    6.6871   54.1494 N   0  0  0  0  0  0  0  0  0  0  0  0
   21.8319    6.7918   54.1144 C   0  0  0  0  0  0  0  0  0  0  0  0
   21.5528    8.1113   54.3874 C   0  0  0  0  0  0  0  0  0  0  0  0
   20.1495    8.5733   54.4533 C   0  0  0  0  0  0  0  0  0  0  0  0
   19.9612    9.5929   55.5644 C   0  0  0  0  0  0  0  0  0  0  0  0
   20.5902   10.7823   55.3662 O   0  0  0  0  0  0  0  0  0  0  0  0
   21.4909   10.8531   54.3438 C   0  0  0  0  0  0  0  0  0  0  0  0
   22.8041   10.2233   54.8407 C   0  0  0  0  0  0  0  0  0  0  0  0
   22.7227    8.8029   54.5850 N   0  0  0  0  0  0  0  0  0  0  0  0
   20.8982    5.7143   53.8412 C   0  0  0  0  0  0  0  0  0  0  0  0
   19.5350    5.7776   54.0145 C   0  0  0  0  0  0  0  0  0  0  0  0
   18.6969    4.7098   53.7341 C   0  0  0  0  0  0  0  0  0  0  0  0
   17.2098    4.8265   53.9400 C   0  0  0  0  0  0  0  0  0  0  0  0
   19.2644    3.5864   53.2781 N   0  0  0  0  0  0  0  0  0  0  0  0
   20.5851    3.4418   53.0808 C   0  0  0  0  0  0  0  0  0  0  0  0
   21.0753    2.1381   52.5704 C   0  0  0  0  0  0  0  0  0  0  0  0
   21.4088    4.5163   53.3653 C   0  0  0  0  0  0  0  0  0  0  0  0
   27.1747    8.9391   55.5796 C   0  0  0  0  0  0  0  0  0  0  0  0
   25.7957    8.7070   55.5549 C   0  0  0  0  0  0  0  0  0  0  0  0
   25.1412    8.1121   54.5113 C   0  0  0  0  0  0  0  0  0  0  0  0
   25.9196    7.7124   53.4026 C   0  0  0  0  0  0  0  0  0  0  0  0
   27.2566    7.9398   53.4337 C   0  0  0  0  0  0  0  0  0  0  0  0
   27.9059    8.5426   54.4916 C   0  0  0  0  0  0  0  0  0  0  0  0
   29.3790    8.7410   54.4135 C   0  0  0  0  0  0  0  0  0  0  0  0
   27.8885    9.0475   57.9387 C   0  0  0  0  0  0  0  0  0  0  0  0
   27.8101    9.5375   56.6330 O   0  0  0  0  0  0  0  0  0  0  0  0
 26 27  1  0  0  0
 27 19  1  0  0  0
 19 20  2  0  0  0
 20 21  1  0  0  0
 21 22  2  0  0  0
 22 23  1  0  0  0
 23 24  2  0  0  0
 24 25  1  0  0  0
 21  1  1  0  0  0
  1  2  2  0  0  0
  2  3  1  0  0  0
  3  4  2  0  0  0
  4  5  1  0  0  0
  5  6  1  0  0  0
  6  7  1  0  0  0
  7  8  1  0  0  0
  8  9  1  0  0  0
  9 10  1  0  0  0
  3 11  1  0  0  0
 11 12  2  0  0  0
 12 13  1  0  0  0
 13 14  1  0  0  0
 13 15  2  0  0  0
 15 16  1  0  0  0
 16 17  1  0  0  0
 16 18  2  0  0  0
 24 19  1  0  0  0
 10  1  1  0  0  0
 18 11  1  0  0  0
 10  4  1  0  0  0
M  END
> <minimizedAffinity>
27.71943

> <CNNscore>
0.5379268527

> <CNNaffinity>
6.2787575722

> <CNN_VS>
3.3775122166

> <CNNaffinity_variance>
0.3627347350

$$$$
[H]c1c(C([H])([H])[H])nc(C([H])([H])[H])c([H])c1-c1nc(-c2c([H])c([H])c(C([H])([H])[H])c(OC([H])([H])[H])c2[H])n2c1C([H])([H])C([H])([H])OC([H])([H])C2([H])[H]


 27 30  0  0  0  0  0  0  0  0999 V2000
   23.7313    7.9313   54.4409 C   0  0  0  0  0  0  0  0  0  0  0  0
   23.2236    6.6896   54.1281 N   0  0  0  0  0  0  0  0  0  0  0  0
   21.8895    6.7588   54.0896 C   0  0  0  0  0  0  0  0  0  0  0  0
   21.5738    8.0654   54.3833 C   0  0  0  0  0  0  0  0  0  0  0  0
   20.1582    8.4881   54.4514 C   0  0  0  0  0  0  0  0  0  0  0  0
   19.9384    9.4835   55.5786 C   0  0  0  0  0  0  0  0  0  0  0  0
   20.5356   10.6927   55.4027 O   0  0  0  0  0  0  0  0  0  0  0  0
   21.4376   10.8050   54.3851 C   0  0  0  0  0  0  0  0  0  0  0  0
   22.7656   10.2027   54.8767 C   0  0  0  0  0  0  0  0  0  0  0  0
   22.7237    8.7851   54.5970 N   0  0  0  0  0  0  0  0  0  0  0  0
   20.9864    5.6611   53.7948 C   0  0  0  0  0  0  0  0  0  0  0  0
   21.3637    4.4171   53.3451 C   0  0  0  0  0  0  0  0  0  0  0  0
   20.4487    3.4098   53.0817 C   0  0  0  0  0  0  0  0  0  0  0  0
   20.9098    2.0631   52.5904 C   0  0  0  0  0  0  0  0  0  0  0  0
   19.1545    3.6873   53.2822 N   0  0  0  0  0  0  0  0  0  0  0  0
   18.7026    4.8743   53.7190 C   0  0  0  0  0  0  0  0  0  0  0  0
   17.2392    5.0410   53.8960 C   0  0  0  0  0  0  0  0  0  0  0  0
   19.6279    5.8698   53.9775 C   0  0  0  0  0  0  0  0  0  0  0  0
   27.1699    9.0028   55.6233 C   0  0  0  0  0  0  0  0  0  0  0  0
   25.7979    8.7330   55.5882 C   0  0  0  0  0  0  0  0  0  0  0  0
   25.1604    8.1614   54.5213 C   0  0  0  0  0  0  0  0  0  0  0  0
   25.9495    7.8280   53.3984 C   0  0  0  0  0  0  0  0  0  0  0  0
   27.2796    8.0918   53.4397 C   0  0  0  0  0  0  0  0  0  0  0  0
   27.9117    8.6705   54.5211 C   0  0  0  0  0  0  0  0  0  0  0  0
   29.3786    8.9135   54.4522 C   0  0  0  0  0  0  0  0  0  0  0  0
   27.9177    9.0195   57.9743 C   0  0  0  0  0  0  0  0  0  0  0  0
   27.7883    9.5769   56.7001 O   0  0  0  0  0  0  0  0  0  0  0  0
 26 27  1  0  0  0
 27 19  1  0  0  0
 19 20  2  0  0  0
 20 21  1  0  0  0
 21 22  2  0  0  0
 22 23  1  0  0  0
 23 24  2  0  0  0
 24 25  1  0  0  0
 21  1  1  0  0  0
  1  2  2  0  0  0
  2  3  1  0  0  0
  3  4  2  0  0  0
  4  5  1  0  0  0
  5  6  1  0  0  0
  6  7  1  0  0  0
  7  8  1  0  0  0
  8  9  1  0  0  0
  9 10  1  0  0  0
  3 11  1  0  0  0
 11 12  2  0  0  0
 12 13  1  0  0  0
 13 14  1  0  0  0
 13 15  2  0  0  0
 15 16  1  0  0  0
 16 17  1  0  0  0
 16 18  2  0  0  0
 24 19  1  0  0  0
 10  1  1  0  0  0
 18 11  1  0  0  0
 10  4  1  0  0  0
M  END
> <minimizedAffinity>
26.83392

> <CNNscore>
0.5327929258

> <CNNaffinity>
6.3065366745

> <CNN_VS>
3.3600780964

> <CNNaffinity_variance>
0.3780245185

$$$$
[H]c1c(C([H])([H])[H])nc(C([H])([H])[H])c([H])c1-c1nc(-c2c([H])c([H])c(C([H])([H])[H])c(OC([H])([H])[H])c2[H])n2c1C([H])([H])C([H])([H])OC([H])([H])C2([H])[H]


 27 30  0  0  0  0  0  0  0  0999 V2000
   25.7477    8.3936   53.2998 C   0  0  0  0  0  0  0  0  0  0  0  0
   25.9615    8.5686   51.9504 N   0  0  0  0  0  0  0  0  0  0  0  0
   27.2016    9.0285   51.7592 C   0  0  0  0  0  0  0  0  0  0  0  0
   27.7580    9.1370   53.0131 C   0  0  0  0  0  0  0  0  0  0  0  0
   29.1364    9.6492   53.1699 C   0  0  0  0  0  0  0  0  0  0  0  0
   29.2534   10.5368   54.3981 C   0  0  0  0  0  0  0  0  0  0  0  0
   29.1053    9.8948   55.5879 O   0  0  0  0  0  0  0  0  0  0  0  0
   28.6439    8.6112   55.5551 C   0  0  0  0  0  0  0  0  0  0  0  0
   27.1163    8.6739   55.3807 C   0  0  0  0  0  0  0  0  0  0  0  0
   26.8485    8.7381   53.9616 N   0  0  0  0  0  0  0  0  0  0  0  0
   27.8080    9.3402   50.4776 C   0  0  0  0  0  0  0  0  0  0  0  0
   28.2921    8.4177   49.5794 C   0  0  0  0  0  0  0  0  0  0  0  0
   28.8611    8.7822   48.3691 C   0  0  0  0  0  0  0  0  0  0  0  0
   29.3777    7.7356   47.4176 C   0  0  0  0  0  0  0  0  0  0  0  0
   28.9284   10.0899   48.0908 N   0  0  0  0  0  0  0  0  0  0  0  0
   28.4797   11.0538   48.9115 C   0  0  0  0  0  0  0  0  0  0  0  0
   28.6196   12.4640   48.4729 C   0  0  0  0  0  0  0  0  0  0  0  0
   27.9144   10.6744   50.1159 C   0  0  0  0  0  0  0  0  0  0  0  0
   22.2201    8.1216   54.6610 C   0  0  0  0  0  0  0  0  0  0  0  0
   23.4031    8.6365   54.1209 C   0  0  0  0  0  0  0  0  0  0  0  0
   24.4914    7.8719   53.8012 C   0  0  0  0  0  0  0  0  0  0  0  0
   24.3969    6.4820   54.0342 C   0  0  0  0  0  0  0  0  0  0  0  0
   23.2463    5.9894   54.5573 C   0  0  0  0  0  0  0  0  0  0  0  0
   22.1551    6.7709   54.8777 C   0  0  0  0  0  0  0  0  0  0  0  0
   20.9448    6.1185   55.4478 C   0  0  0  0  0  0  0  0  0  0  0  0
   21.1352   10.2968   55.0828 C   0  0  0  0  0  0  0  0  0  0  0  0
   21.1430    8.9041   54.9755 O   0  0  0  0  0  0  0  0  0  0  0  0
 26 27  1  0  0  0
 27 19  1  0  0  0
 19 20  2  0  0  0
 20 21  1  0  0  0
 21 22  2  0  0  0
 22 23  1  0  0  0
 23 24  2  0  0  0
 24 25  1  0  0  0
 21  1  1  0  0  0
  1  2  2  0  0  0
  2  3  1  0  0  0
  3  4  2  0  0  0
  4  5  1  0  0  0
  5  6  1  0  0  0
  6  7  1  0  0  0
  7  8  1  0  0  0
  8  9  1  0  0  0
  9 10  1  0  0  0
  3 11  1  0  0  0
 11 12  2  0  0  0
 12 13  1  0  0  0
 13 14  1  0  0  0
 13 15  2  0  0  0
 15 16  1  0  0  0
 16 17  1  0  0  0
 16 18  2  0  0  0
 24 19  1  0  0  0
 10  1  1  0  0  0
 18 11  1  0  0  0
 10  4  1  0  0  0
M  END
> <minimizedAffinity>
30.86545

> <CNNscore>
0.5109602809

> <CNNaffinity>
5.6901078224

> <CNN_VS>
2.9074192047

> <CNNaffinity_variance>
0.0406797528

$$$$
[H]c1c(C([H])([H])[H])nc(C([H])([H])[H])c([H])c1-c1nc(-c2c([H])c([H])c(C([H])([H])[H])c(OC([H])([H])[H])c2[H])n2c1C([H])([H])C([H])([H])OC([H])([H])C2([H])[H]


 27 30  0  0  0  0  0  0  0  0999 V2000
   25.8078    8.4161   53.1942 C   0  0  0  0  0  0  0  0  0  0  0  0
   26.0161    8.6389   51.8509 N   0  0  0  0  0  0  0  0  0  0  0  0
   27.2464    9.1296   51.6737 C   0  0  0  0  0  0  0  0  0  0  0  0
   27.8023    9.2088   52.9300 C   0  0  0  0  0  0  0  0  0  0  0  0
   29.1704    9.7433   53.1022 C   0  0  0  0  0  0  0  0  0  0  0  0
   29.2713   10.5930   54.3583 C   0  0  0  0  0  0  0  0  0  0  0  0
   29.1379    9.9101   55.5269 O   0  0  0  0  0  0  0  0  0  0  0  0
   28.7024    8.6192   55.4531 C   0  0  0  0  0  0  0  0  0  0  0  0
   27.1735    8.6567   55.2819 C   0  0  0  0  0  0  0  0  0  0  0  0
   26.9024    8.7613   53.8659 N   0  0  0  0  0  0  0  0  0  0  0  0
   27.8446    9.4946   50.4024 C   0  0  0  0  0  0  0  0  0  0  0  0
   28.0051   10.7789   49.9364 C   0  0  0  0  0  0  0  0  0  0  0  0
   28.5859   11.0603   48.7097 C   0  0  0  0  0  0  0  0  0  0  0  0
   28.7401   12.4833   48.2418 C   0  0  0  0  0  0  0  0  0  0  0  0
   28.9971   10.0219   47.9717 N   0  0  0  0  0  0  0  0  0  0  0  0
   28.8780    8.7393   48.3525 C   0  0  0  0  0  0  0  0  0  0  0  0
   29.3784    7.6893   47.4318 C   0  0  0  0  0  0  0  0  0  0  0  0
   28.2962    8.4743   49.5794 C   0  0  0  0  0  0  0  0  0  0  0  0
   22.3491    8.0210   54.6947 C   0  0  0  0  0  0  0  0  0  0  0  0
   23.5185    8.5849   54.1744 C   0  0  0  0  0  0  0  0  0  0  0  0
   24.5630    7.8533   53.6795 C   0  0  0  0  0  0  0  0  0  0  0  0
   24.4353    6.4468   53.7003 C   0  0  0  0  0  0  0  0  0  0  0  0
   23.2981    5.9067   54.2055 C   0  0  0  0  0  0  0  0  0  0  0  0
   22.2513    6.6550   54.7039 C   0  0  0  0  0  0  0  0  0  0  0  0
   21.0517    5.9513   55.2342 C   0  0  0  0  0  0  0  0  0  0  0  0
   21.0116   10.0890   54.8392 C   0  0  0  0  0  0  0  0  0  0  0  0
   21.3161    8.7709   55.1867 O   0  0  0  0  0  0  0  0  0  0  0  0
 26 27  1  0  0  0
 27 19  1  0  0  0
 19 20  2  0  0  0
 20 21  1  0  0  0
 21 22  2  0  0  0
 22 23  1  0  0  0
 23 24  2  0  0  0
 24 25  1  0  0  0
 21  1  1  0  0  0
  1  2  2  0  0  0
  2  3  1  0  0  0
  3  4  2  0  0  0
  4  5  1  0  0  0
  5  6  1  0  0  0
  6  7  1  0  0  0
  7  8  1  0  0  0
  8  9  1  0  0  0
  9 10  1  0  0  0
  3 11  1  0  0  0
 11 12  2  0  0  0
 12 13  1  0  0  0
 13 14  1  0  0  0
 13 15  2  0  0  0
 15 16  1  0  0  0
 16 17  1  0  0  0
 16 18  2  0  0  0
 24 19  1  0  0  0
 10  1  1  0  0  0
 18 11  1  0  0  0
 10  4  1  0  0  0
M  END
> <minimizedAffinity>
30.96358

> <CNNscore>
0.5094234347

> <CNNaffinity>
5.6842198372

> <CNN_VS>
2.8956747055

> <CNNaffinity_variance>
0.0353778228

$$$$
[H]c1c(C([H])([H])[H])nc(C([H])([H])[H])c([H])c1-c1nc(-c2c([H])c([H])c(C([H])([H])[H])c(OC([H])([H])[H])c2[H])n2c1C([H])([H])C([H])([H])OC([H])([H])C2([H])[H]


 27 30  0  0  0  0  0  0  0  0999 V2000
   22.7386    9.7114   54.1993 C   0  0  0  0  0  0  0  0  0  0  0  0
   24.0343    9.9492   54.6019 N   0  0  0  0  0  0  0  0  0  0  0  0
   24.6943    8.7888   54.6627 C   0  0  0  0  0  0  0  0  0  0  0  0
   23.7878    7.8227   54.2905 C   0  0  0  0  0  0  0  0  0  0  0  0
   24.1877    6.3991   54.2736 C   0  0  0  0  0  0  0  0  0  0  0  0
   23.0586    5.5081   54.7648 C   0  0  0  0  0  0  0  0  0  0  0  0
   21.9712    5.4556   53.9497 O   0  0  0  0  0  0  0  0  0  0  0  0
   21.9059    6.3615   52.9315 C   0  0  0  0  0  0  0  0  0  0  0  0
   21.4143    7.6922   53.5281 C   0  0  0  0  0  0  0  0  0  0  0  0
   22.5783    8.4060   54.0025 N   0  0  0  0  0  0  0  0  0  0  0  0
   26.0836    8.6164   55.0467 C   0  0  0  0  0  0  0  0  0  0  0  0
   27.0466    7.9863   54.2932 C   0  0  0  0  0  0  0  0  0  0  0  0
   28.3592    7.8548   54.7187 C   0  0  0  0  0  0  0  0  0  0  0  0
   29.3788    7.1563   53.8584 C   0  0  0  0  0  0  0  0  0  0  0  0
   28.6725    8.3710   55.9135 N   0  0  0  0  0  0  0  0  0  0  0  0
   27.7937    9.0008   56.7104 C   0  0  0  0  0  0  0  0  0  0  0  0
   28.2814    9.5237   58.0101 C   0  0  0  0  0  0  0  0  0  0  0  0
   26.4873    9.1241   56.2721 C   0  0  0  0  0  0  0  0  0  0  0  0
   20.9134   12.7323   52.8160 C   0  0  0  0  0  0  0  0  0  0  0  0
   21.7920   11.6518   52.9468 C   0  0  0  0  0  0  0  0  0  0  0  0
   21.7964   10.7977   54.0153 C   0  0  0  0  0  0  0  0  0  0  0  0
   20.8494   11.0336   55.0364 C   0  0  0  0  0  0  0  0  0  0  0  0
   19.9999   12.0827   54.9025 C   0  0  0  0  0  0  0  0  0  0  0  0
   20.0059   12.9390   53.8206 C   0  0  0  0  0  0  0  0  0  0  0  0
   19.0253   14.0582   53.7828 C   0  0  0  0  0  0  0  0  0  0  0  0
   21.8049   13.5204   50.6548 C   0  0  0  0  0  0  0  0  0  0  0  0
   20.9266   13.5762   51.7395 O   0  0  0  0  0  0  0  0  0  0  0  0
 26 27  1  0  0  0
 27 19  1  0  0  0
 19 20  2  0  0  0
 20 21  1  0  0  0
 21 22  2  0  0  0
 22 23  1  0  0  0
 23 24  2  0  0  0
 24 25  1  0  0  0
 21  1  1  0  0  0
  1  2  2  0  0  0
  2  3  1  0  0  0
  3  4  2  0  0  0
  4  5  1  0  0  0
  5  6  1  0  0  0
  6  7  1  0  0  0
  7  8  1  0  0  0
  8  9  1  0  0  0
  9 10  1  0  0  0
  3 11  1  0  0  0
 11 12  2  0  0  0
 12 13  1  0  0  0
 13 14  1  0  0  0
 13 15  2  0  0  0
 15 16  1  0  0  0
 16 17  1  0  0  0
 16 18  2  0  0  0
 24 19  1  0  0  0
 10  1  1  0  0  0
 18 11  1  0  0  0
 10  4  1  0  0  0
M  END
> <minimizedAffinity>
34.00216

> <CNNscore>
0.5047112703

> <CNNaffinity>
5.7299814224

> <CNN_VS>
2.8919861317

> <CNNaffinity_variance>
0.1118627638

$$$$
[H]OC(=O)[C@]1(N([H])[H])C([H])([H])[C@]([H])(N([H])C(=O)c2c([H])c([H])c(OC([H])([H])c3c([H])c([H])c(Cl)c(Cl)c3[H])c([H])c2[H])[C@]2([H])[C@]([H])(C(=O)O[H])[C@]12[H]


 37 40  0  0  0  0  0  0  0  0999 V2000
   20.5449    5.8260   53.8838 N   0  0  0  0  0  0  0  0  0  0  0  0
   21.6749    6.2395   54.6450 C   0  0  0  0  0  0  0  0  0  0  0  0
   21.7620    5.9675   55.8799 O   0  0  0  0  0  0  0  0  0  0  0  0
   20.5120    6.0637   52.8914 H   0  0  0  0  0  0  0  0  0  0  0  0
   16.7381    4.3145   55.4675 N   0  0  0  0  0  0  0  0  0  0  0  0
   17.4403    3.9143   54.2201 C   0  0  0  0  0  0  0  0  0  0  0  0
   18.1614    5.1686   53.7929 C   0  0  0  0  0  0  0  0  0  0  0  0
   19.4866    5.0921   54.5145 C   0  0  0  0  0  0  0  0  0  0  0  0
   19.7527    3.6706   54.8355 C   0  0  0  0  0  0  0  0  0  0  0  0
   19.7040    2.5202   53.9504 C   0  0  0  0  0  0  0  0  0  0  0  0
   18.4480    2.8972   54.5677 C   0  0  0  0  0  0  0  0  0  0  0  0
   17.3219    4.1352   56.2979 H   0  0  0  0  0  0  0  0  0  0  0  0
   15.8968    3.7003   55.5460 H   0  0  0  0  0  0  0  0  0  0  0  0
   20.0796    2.4344   52.5619 C   0  0  0  0  0  0  0  0  0  0  0  0
   21.1775    1.6323   52.1747 O   0  0  0  0  0  0  0  0  0  0  0  0
   19.5209    3.0113   51.6330 O   0  0  0  0  0  0  0  0  0  0  0  0
   21.2592    0.6724   52.4762 H   0  0  0  0  0  0  0  0  0  0  0  0
   16.3971    3.5703   53.2695 C   0  0  0  0  0  0  0  0  0  0  0  0
   16.4891    2.5925   52.2691 O   0  0  0  0  0  0  0  0  0  0  0  0
   15.2805    4.2126   53.3391 O   0  0  0  0  0  0  0  0  0  0  0  0
   16.1414    1.6700   52.5329 H   0  0  0  0  0  0  0  0  0  0  0  0
   22.7541    6.9843   54.0168 C   0  0  0  0  0  0  0  0  0  0  0  0
   24.0094    6.9002   54.5883 C   0  0  0  0  0  0  0  0  0  0  0  0
   25.1088    7.5691   54.0739 C   0  0  0  0  0  0  0  0  0  0  0  0
   24.9834    8.3575   52.9502 C   0  0  0  0  0  0  0  0  0  0  0  0
   23.7110    8.4304   52.3882 C   0  0  0  0  0  0  0  0  0  0  0  0
   22.6320    7.7656   52.9047 C   0  0  0  0  0  0  0  0  0  0  0  0
   26.0405    9.0376   52.4028 O   0  0  0  0  0  0  0  0  0  0  0  0
   27.3061    8.5656   52.1025 C   0  0  0  0  0  0  0  0  0  0  0  0
   27.7910    8.8637   50.7400 C   0  0  0  0  0  0  0  0  0  0  0  0
   28.3024    7.9094   49.8960 C   0  0  0  0  0  0  0  0  0  0  0  0
   28.7611    8.2046   48.6298 C   0  0  0  0  0  0  0  0  0  0  0  0
   28.7191    9.5000   48.1609 C   0  0  0  0  0  0  0  0  0  0  0  0
   29.2897    9.9383   46.5545 Cl  0  0  0  0  0  0  0  0  0  0  0  0
   28.2062   10.4846   48.9956 C   0  0  0  0  0  0  0  0  0  0  0  0
   28.1484   12.1392   48.4067 Cl  0  0  0  0  0  0  0  0  0  0  0  0
   27.7566   10.1735   50.2462 C   0  0  0  0  0  0  0  0  0  0  0  0
  5  6  1  0  0  0
  6  7  1  0  0  0
  7  8  1  0  0  0
  8  1  1  0  0  0
  1  2  1  0  0  0
  2  3  2  0  0  0
  2 22  1  0  0  0
 22 23  2  0  0  0
 23 24  1  0  0  0
 24 25  2  0  0  0
 25 28  1  0  0  0
 28 29  1  0  0  0
 29 30  1  0  0  0
 30 31  2  0  0  0
 31 32  1  0  0  0
 32 33  2  0  0  0
 33 34  1  0  0  0
 33 35  1  0  0  0
 35 36  1  0  0  0
 35 37  2  0  0  0
 25 26  1  0  0  0
 26 27  2  0  0  0
  8  9  1  0  0  0
  9 10  1  0  0  0
 10 11  1  0  0  0
 10 14  1  0  0  0
 14 15  1  0  0  0
 14 16  2  0  0  0
  6 18  1  0  0  0
 18 19  1  0  0  0
 18 20  2  0  0  0
 11  6  1  0  0  0
 27 22  1  0  0  0
 11  9  1  0  0  0
 37 30  1  0  0  0
  5 12  1  0  0  0
  5 13  1  0  0  0
  1  4  1  0  0  0
 15 17  1  0  0  0
 19 21  1  0  0  0
M  END
> <minimizedAffinity>
48.48497

> <CNNscore>
0.5168464780

> <CNNaffinity>
5.9270315170

> <CNN_VS>
3.0633654594

> <CNNaffinity_variance>
0.7205535769

$$$$
[H]OC(=O)[C@]1(N([H])[H])C([H])([H])[C@]([H])(N([H])C(=O)c2c([H])c([H])c(OC([H])([H])c3c([H])c([H])c(Cl)c(Cl)c3[H])c([H])c2[H])[C@]2([H])[C@]([H])(C(=O)O[H])[C@]12[H]


 37 40  0  0  0  0  0  0  0  0999 V2000
   19.6554    5.0552   53.8569 N   0  0  0  0  0  0  0  0  0  0  0  0
   20.3339    6.2511   53.4871 C   0  0  0  0  0  0  0  0  0  0  0  0
   19.7578    7.1353   52.7852 O   0  0  0  0  0  0  0  0  0  0  0  0
   20.1534    4.3673   54.4236 H   0  0  0  0  0  0  0  0  0  0  0  0
   15.9388    3.8433   51.8563 N   0  0  0  0  0  0  0  0  0  0  0  0
   16.5678    3.2530   53.0668 C   0  0  0  0  0  0  0  0  0  0  0  0
   18.0446    3.4704   52.8493 C   0  0  0  0  0  0  0  0  0  0  0  0
   18.3024    4.8397   53.4335 C   0  0  0  0  0  0  0  0  0  0  0  0
   17.2355    5.1254   54.4209 C   0  0  0  0  0  0  0  0  0  0  0  0
   16.7749    4.2941   55.5191 C   0  0  0  0  0  0  0  0  0  0  0  0
   16.1502    4.0486   54.2344 C   0  0  0  0  0  0  0  0  0  0  0  0
   15.7068    4.8369   52.0036 H   0  0  0  0  0  0  0  0  0  0  0  0
   15.0370    3.3363   51.7117 H   0  0  0  0  0  0  0  0  0  0  0  0
   17.5411    3.4221   56.3728 C   0  0  0  0  0  0  0  0  0  0  0  0
   18.8523    3.0443   56.0032 O   0  0  0  0  0  0  0  0  0  0  0  0
   17.1587    2.9486   57.4393 O   0  0  0  0  0  0  0  0  0  0  0  0
   19.5398    3.7311   55.7300 H   0  0  0  0  0  0  0  0  0  0  0  0
   16.2446    1.8371   53.0323 C   0  0  0  0  0  0  0  0  0  0  0  0
   17.0210    0.8330   52.4372 O   0  0  0  0  0  0  0  0  0  0  0  0
   15.1491    1.4536   53.5953 O   0  0  0  0  0  0  0  0  0  0  0  0
   17.6766    0.3648   53.0637 H   0  0  0  0  0  0  0  0  0  0  0  0
   21.7060    6.4808   53.9101 C   0  0  0  0  0  0  0  0  0  0  0  0
   22.3721    7.5631   53.3674 C   0  0  0  0  0  0  0  0  0  0  0  0
   23.6815    7.8745   53.6981 C   0  0  0  0  0  0  0  0  0  0  0  0
   24.3776    7.0978   54.5994 C   0  0  0  0  0  0  0  0  0  0  0  0
   23.6902    6.0115   55.1356 C   0  0  0  0  0  0  0  0  0  0  0  0
   22.3969    5.7130   54.8017 C   0  0  0  0  0  0  0  0  0  0  0  0
   25.6730    7.3652   54.9596 O   0  0  0  0  0  0  0  0  0  0  0  0
   26.4199    8.5027   54.7085 C   0  0  0  0  0  0  0  0  0  0  0  0
   27.0600    9.1185   55.8881 C   0  0  0  0  0  0  0  0  0  0  0  0
   27.2001   10.4747   56.0481 C   0  0  0  0  0  0  0  0  0  0  0  0
   27.8095   11.0350   57.1505 C   0  0  0  0  0  0  0  0  0  0  0  0
   28.3095   10.2297   58.1512 C   0  0  0  0  0  0  0  0  0  0  0  0
   29.0974   10.8861   59.5819 Cl  0  0  0  0  0  0  0  0  0  0  0  0
   28.1804    8.8536   58.0134 C   0  0  0  0  0  0  0  0  0  0  0  0
   28.8146    7.8187   59.2841 Cl  0  0  0  0  0  0  0  0  0  0  0  0
   27.5740    8.3170   56.9147 C   0  0  0  0  0  0  0  0  0  0  0  0
  5  6  1  0  0  0
  6  7  1  0  0  0
  7  8  1  0  0  0
  8  1  1  0  0  0
  1  2  1  0  0  0
  2  3  2  0  0  0
  2 22  1  0  0  0
 22 23  2  0  0  0
 23 24  1  0  0  0
 24 25  2  0  0  0
 25 28  1  0  0  0
 28 29  1  0  0  0
 29 30  1  0  0  0
 30 31  2  0  0  0
 31 32  1  0  0  0
 32 33  2  0  0  0
 33 34  1  0  0  0
 33 35  1  0  0  0
 35 36  1  0  0  0
 35 37  2  0  0  0
 25 26  1  0  0  0
 26 27  2  0  0  0
  8  9  1  0  0  0
  9 10  1  0  0  0
 10 11  1  0  0  0
 10 14  1  0  0  0
 14 15  1  0  0  0
 14 16  2  0  0  0
  6 18  1  0  0  0
 18 19  1  0  0  0
 18 20  2  0  0  0
 11  6  1  0  0  0
 27 22  1  0  0  0
 11  9  1  0  0  0
 37 30  1  0  0  0
  5 12  1  0  0  0
  5 13  1  0  0  0
  1  4  1  0  0  0
 15 17  1  0  0  0
 19 21  1  0  0  0
M  END
> <minimizedAffinity>
38.66273

> <CNNscore>
0.4993520081

> <CNNaffinity>
6.0498809814

> <CNN_VS>
3.0210201740

> <CNNaffinity_variance>
0.2965696454

$$$$
[H]OC(=O)[C@]1(N([H])[H])C([H])([H])[C@]([H])(N([H])C(=O)c2c([H])c([H])c(OC([H])([H])c3c([H])c([H])c(Cl)c(Cl)c3[H])c([H])c2[H])[C@]2([H])[C@]([H])(C(=O)O[H])[C@]12[H]


 37 40  0  0  0  0  0  0  0  0999 V2000
   27.3036    9.2352   51.2144 N   0  0  0  0  0  0  0  0  0  0  0  0
   27.3505    8.4808   52.4211 C   0  0  0  0  0  0  0  0  0  0  0  0
   28.3143    7.6928   52.6584 O   0  0  0  0  0  0  0  0  0  0  0  0
   26.5108    9.8598   51.0603 H   0  0  0  0  0  0  0  0  0  0  0  0
   30.0664    7.9955   48.0340 N   0  0  0  0  0  0  0  0  0  0  0  0
   28.9248    8.9433   47.9445 C   0  0  0  0  0  0  0  0  0  0  0  0
   27.9435    8.4246   48.9660 C   0  0  0  0  0  0  0  0  0  0  0  0
   28.3562    9.1075   50.2490 C   0  0  0  0  0  0  0  0  0  0  0  0
   29.0966   10.3408   49.8946 C   0  0  0  0  0  0  0  0  0  0  0  0
   28.7052   11.3975   48.9784 C   0  0  0  0  0  0  0  0  0  0  0  0
   29.3939   10.2686   48.3851 C   0  0  0  0  0  0  0  0  0  0  0  0
   30.7674    8.3197   48.7168 H   0  0  0  0  0  0  0  0  0  0  0  0
   30.5282    7.9959   47.0971 H   0  0  0  0  0  0  0  0  0  0  0  0
   27.3911   11.9331   48.7282 C   0  0  0  0  0  0  0  0  0  0  0  0
   27.2347   13.3003   48.4042 O   0  0  0  0  0  0  0  0  0  0  0  0
   26.3407   11.2983   48.7681 O   0  0  0  0  0  0  0  0  0  0  0  0
   27.7826   13.7335   47.6754 H   0  0  0  0  0  0  0  0  0  0  0  0
   28.3935    8.7998   46.6000 C   0  0  0  0  0  0  0  0  0  0  0  0
   29.1518    8.6680   45.4284 O   0  0  0  0  0  0  0  0  0  0  0  0
   27.1118    8.7907   46.4547 O   0  0  0  0  0  0  0  0  0  0  0  0
   29.3365    7.7070   45.1386 H   0  0  0  0  0  0  0  0  0  0  0  0
   26.2889    8.6016   53.4073 C   0  0  0  0  0  0  0  0  0  0  0  0
   26.6288    9.0714   54.6617 C   0  0  0  0  0  0  0  0  0  0  0  0
   25.6984    9.2246   55.6773 C   0  0  0  0  0  0  0  0  0  0  0  0
   24.3741    8.9068   55.4649 C   0  0  0  0  0  0  0  0  0  0  0  0
   24.0504    8.4348   54.1950 C   0  0  0  0  0  0  0  0  0  0  0  0
   24.9776    8.2872   53.1991 C   0  0  0  0  0  0  0  0  0  0  0  0
   23.4165    9.0422   56.4365 O   0  0  0  0  0  0  0  0  0  0  0  0
   22.0448    9.1450   56.2860 C   0  0  0  0  0  0  0  0  0  0  0  0
   21.5318    8.8899   54.9250 C   0  0  0  0  0  0  0  0  0  0  0  0
   20.9603    7.7009   54.5451 C   0  0  0  0  0  0  0  0  0  0  0  0
   20.4951    7.4737   53.2673 C   0  0  0  0  0  0  0  0  0  0  0  0
   20.5920    8.4586   52.3080 C   0  0  0  0  0  0  0  0  0  0  0  0
   20.0161    8.2278   50.6609 Cl  0  0  0  0  0  0  0  0  0  0  0  0
   21.1664    9.6712   52.6670 C   0  0  0  0  0  0  0  0  0  0  0  0
   21.2943   10.9332   51.4509 Cl  0  0  0  0  0  0  0  0  0  0  0  0
   21.6216    9.8781   53.9370 C   0  0  0  0  0  0  0  0  0  0  0  0
  5  6  1  0  0  0
  6  7  1  0  0  0
  7  8  1  0  0  0
  8  1  1  0  0  0
  1  2  1  0  0  0
  2  3  2  0  0  0
  2 22  1  0  0  0
 22 23  2  0  0  0
 23 24  1  0  0  0
 24 25  2  0  0  0
 25 28  1  0  0  0
 28 29  1  0  0  0
 29 30  1  0  0  0
 30 31  2  0  0  0
 31 32  1  0  0  0
 32 33  2  0  0  0
 33 34  1  0  0  0
 33 35  1  0  0  0
 35 36  1  0  0  0
 35 37  2  0  0  0
 25 26  1  0  0  0
 26 27  2  0  0  0
  8  9  1  0  0  0
  9 10  1  0  0  0
 10 11  1  0  0  0
 10 14  1  0  0  0
 14 15  1  0  0  0
 14 16  2  0  0  0
  6 18  1  0  0  0
 18 19  1  0  0  0
 18 20  2  0  0  0
 11  6  1  0  0  0
 27 22  1  0  0  0
 11  9  1  0  0  0
 37 30  1  0  0  0
  5 12  1  0  0  0
  5 13  1  0  0  0
  1  4  1  0  0  0
 15 17  1  0  0  0
 19 21  1  0  0  0
M  END
> <minimizedAffinity>
30.17435

> <CNNscore>
0.4951772094

> <CNNaffinity>
6.2912883759

> <CNN_VS>
3.1153025627

> <CNNaffinity_variance>
0.3531690836

$$$$
[H]OC(=O)[C@]1(N([H])[H])C([H])([H])[C@]([H])(N([H])C(=O)c2c([H])c([H])c(OC([H])([H])c3c([H])c([H])c(Cl)c(Cl)c3[H])c([H])c2[H])[C@]2([H])[C@]([H])(C(=O)O[H])[C@]12[H]


 37 40  0  0  0  0  0  0  0  0999 V2000
   25.3897    9.3088   56.4357 N   0  0  0  0  0  0  0  0  0  0  0  0
   25.3056    8.7646   55.1227 C   0  0  0  0  0  0  0  0  0  0  0  0
   26.1141    9.1258   54.2160 O   0  0  0  0  0  0  0  0  0  0  0  0
   24.7206    8.9918   57.1388 H   0  0  0  0  0  0  0  0  0  0  0  0
   28.1377   12.1776   58.3074 N   0  0  0  0  0  0  0  0  0  0  0  0
   28.3879   10.7537   57.9617 C   0  0  0  0  0  0  0  0  0  0  0  0
   27.0342   10.1038   58.1047 C   0  0  0  0  0  0  0  0  0  0  0  0
   26.3990   10.2793   56.7451 C   0  0  0  0  0  0  0  0  0  0  0  0
   27.4834   10.4613   55.7523 C   0  0  0  0  0  0  0  0  0  0  0  0
   28.6664    9.6443   55.5468 C   0  0  0  0  0  0  0  0  0  0  0  0
   28.7846   10.6892   56.5443 C   0  0  0  0  0  0  0  0  0  0  0  0
   27.9017   12.7288   57.4689 H   0  0  0  0  0  0  0  0  0  0  0  0
   29.0372   12.5563   58.6799 H   0  0  0  0  0  0  0  0  0  0  0  0
   28.8063    8.2148   55.6630 C   0  0  0  0  0  0  0  0  0  0  0  0
   28.4340    7.3782   54.5859 O   0  0  0  0  0  0  0  0  0  0  0  0
   29.2354    7.6158   56.6453 O   0  0  0  0  0  0  0  0  0  0  0  0
   28.7678    7.5484   53.6486 H   0  0  0  0  0  0  0  0  0  0  0  0
   29.3079   10.2557   58.9698 C   0  0  0  0  0  0  0  0  0  0  0  0
   29.3156    8.9598   59.5043 O   0  0  0  0  0  0  0  0  0  0  0  0
   30.2035   11.0658   59.4233 O   0  0  0  0  0  0  0  0  0  0  0  0
   29.9399    8.3025   59.0357 H   0  0  0  0  0  0  0  0  0  0  0  0
   24.2864    7.7801   54.7969 C   0  0  0  0  0  0  0  0  0  0  0  0
   23.0163    7.9796   55.3037 C   0  0  0  0  0  0  0  0  0  0  0  0
   21.9700    7.1046   55.0578 C   0  0  0  0  0  0  0  0  0  0  0  0
   22.1661    5.9820   54.2824 C   0  0  0  0  0  0  0  0  0  0  0  0
   23.4524    5.7975   53.7806 C   0  0  0  0  0  0  0  0  0  0  0  0
   24.4786    6.6681   54.0299 C   0  0  0  0  0  0  0  0  0  0  0  0
   21.1634    5.0878   54.0096 O   0  0  0  0  0  0  0  0  0  0  0  0
   20.4817    4.8938   52.8211 C   0  0  0  0  0  0  0  0  0  0  0  0
   19.2470    4.0899   52.9183 C   0  0  0  0  0  0  0  0  0  0  0  0
   18.9437    3.0663   52.0553 C   0  0  0  0  0  0  0  0  0  0  0  0
   17.7815    2.3309   52.1521 C   0  0  0  0  0  0  0  0  0  0  0  0
   16.8654    2.6083   53.1438 C   0  0  0  0  0  0  0  0  0  0  0  0
   15.3649    1.7048   53.3181 Cl  0  0  0  0  0  0  0  0  0  0  0  0
   17.1485    3.6396   54.0302 C   0  0  0  0  0  0  0  0  0  0  0  0
   15.9866    4.0006   55.2980 Cl  0  0  0  0  0  0  0  0  0  0  0  0
   18.3043    4.3568   53.9187 C   0  0  0  0  0  0  0  0  0  0  0  0
  5  6  1  0  0  0
  6  7  1  0  0  0
  7  8  1  0  0  0
  8  1  1  0  0  0
  1  2  1  0  0  0
  2  3  2  0  0  0
  2 22  1  0  0  0
 22 23  2  0  0  0
 23 24  1  0  0  0
 24 25  2  0  0  0
 25 28  1  0  0  0
 28 29  1  0  0  0
 29 30  1  0  0  0
 30 31  2  0  0  0
 31 32  1  0  0  0
 32 33  2  0  0  0
 33 34  1  0  0  0
 33 35  1  0  0  0
 35 36  1  0  0  0
 35 37  2  0  0  0
 25 26  1  0  0  0
 26 27  2  0  0  0
  8  9  1  0  0  0
  9 10  1  0  0  0
 10 11  1  0  0  0
 10 14  1  0  0  0
 14 15  1  0  0  0
 14 16  2  0  0  0
  6 18  1  0  0  0
 18 19  1  0  0  0
 18 20  2  0  0  0
 11  6  1  0  0  0
 27 22  1  0  0  0
 11  9  1  0  0  0
 37 30  1  0  0  0
  5 12  1  0  0  0
  5 13  1  0  0  0
  1  4  1  0  0  0
 15 17  1  0  0  0
 19 21  1  0  0  0
M  END
> <minimizedAffinity>
38.80186

> <CNNscore>
0.4130544662

> <CNNaffinity>
5.5016942024

> <CNN_VS>
2.2724993229

> <CNNaffinity_variance>
0.0844027475

$$$$
[H]OC(=O)[C@]1(N([H])[H])C([H])([H])[C@]([H])(N([H])C(=O)c2c([H])c([H])c(OC([H])([H])c3c([H])c([H])c(Cl)c(Cl)c3[H])c([H])c2[H])[C@]2([H])[C@]([H])(C(=O)O[H])[C@]12[H]


 37 40  0  0  0  0  0  0  0  0999 V2000
   19.3014    4.9279   53.3278 N   0  0  0  0  0  0  0  0  0  0  0  0
   19.7573    6.2332   53.6678 C   0  0  0  0  0  0  0  0  0  0  0  0
   18.9350    7.1676   53.9066 O   0  0  0  0  0  0  0  0  0  0  0  0
   19.9950    4.2018   53.1432 H   0  0  0  0  0  0  0  0  0  0  0  0
   15.2548    3.5638   52.3038 N   0  0  0  0  0  0  0  0  0  0  0  0
   16.1866    3.0034   53.3172 C   0  0  0  0  0  0  0  0  0  0  0  0
   17.5538    3.2774   52.7418 C   0  0  0  0  0  0  0  0  0  0  0  0
   17.8951    4.6580   53.2517 C   0  0  0  0  0  0  0  0  0  0  0  0
   17.0959    4.9059   54.4743 C   0  0  0  0  0  0  0  0  0  0  0  0
   16.9545    4.0618   55.6476 C   0  0  0  0  0  0  0  0  0  0  0  0
   16.0409    3.7869   54.5564 C   0  0  0  0  0  0  0  0  0  0  0  0
   15.0282    4.5481   52.5097 H   0  0  0  0  0  0  0  0  0  0  0  0
   14.3657    3.0214   52.3842 H   0  0  0  0  0  0  0  0  0  0  0  0
   17.9416    3.2238   56.2798 C   0  0  0  0  0  0  0  0  0  0  0  0
   19.1820    2.9893   55.6434 O   0  0  0  0  0  0  0  0  0  0  0  0
   17.8150    2.6640   57.3653 O   0  0  0  0  0  0  0  0  0  0  0  0
   19.7441    3.7502   55.2912 H   0  0  0  0  0  0  0  0  0  0  0  0
   15.9201    1.5759   53.3558 C   0  0  0  0  0  0  0  0  0  0  0  0
   16.5730    0.5988   52.5914 O   0  0  0  0  0  0  0  0  0  0  0  0
   15.0043    1.1537   54.1602 O   0  0  0  0  0  0  0  0  0  0  0  0
   17.3757    0.1605   53.0441 H   0  0  0  0  0  0  0  0  0  0  0  0
   21.1807    6.5191   53.7478 C   0  0  0  0  0  0  0  0  0  0  0  0
   21.7564    7.2099   52.6985 C   0  0  0  0  0  0  0  0  0  0  0  0
   23.1035    7.5342   52.6698 C   0  0  0  0  0  0  0  0  0  0  0  0
   23.9316    7.1707   53.7101 C   0  0  0  0  0  0  0  0  0  0  0  0
   23.3338    6.4751   54.7584 C   0  0  0  0  0  0  0  0  0  0  0  0
   22.0021    6.1598   54.7764 C   0  0  0  0  0  0  0  0  0  0  0  0
   25.2695    7.4693   53.7288 O   0  0  0  0  0  0  0  0  0  0  0  0
   26.1842    7.2628   54.7464 C   0  0  0  0  0  0  0  0  0  0  0  0
   27.0930    8.3926   55.0257 C   0  0  0  0  0  0  0  0  0  0  0  0
   27.1620    9.0214   56.2441 C   0  0  0  0  0  0  0  0  0  0  0  0
   28.0085   10.0822   56.4871 C   0  0  0  0  0  0  0  0  0  0  0  0
   28.8322   10.5557   55.4885 C   0  0  0  0  0  0  0  0  0  0  0  0
   29.9336   11.9058   55.7384 Cl  0  0  0  0  0  0  0  0  0  0  0  0
   28.7815    9.9366   54.2462 C   0  0  0  0  0  0  0  0  0  0  0  0
   29.8280   10.5330   52.9668 Cl  0  0  0  0  0  0  0  0  0  0  0  0
   27.9370    8.8876   54.0241 C   0  0  0  0  0  0  0  0  0  0  0  0
  5  6  1  0  0  0
  6  7  1  0  0  0
  7  8  1  0  0  0
  8  1  1  0  0  0
  1  2  1  0  0  0
  2  3  2  0  0  0
  2 22  1  0  0  0
 22 23  2  0  0  0
 23 24  1  0  0  0
 24 25  2  0  0  0
 25 28  1  0  0  0
 28 29  1  0  0  0
 29 30  1  0  0  0
 30 31  2  0  0  0
 31 32  1  0  0  0
 32 33  2  0  0  0
 33 34  1  0  0  0
 33 35  1  0  0  0
 35 36  1  0  0  0
 35 37  2  0  0  0
 25 26  1  0  0  0
 26 27  2  0  0  0
  8  9  1  0  0  0
  9 10  1  0  0  0
 10 11  1  0  0  0
 10 14  1  0  0  0
 14 15  1  0  0  0
 14 16  2  0  0  0
  6 18  1  0  0  0
 18 19  1  0  0  0
 18 20  2  0  0  0
 11  6  1  0  0  0
 27 22  1  0  0  0
 11  9  1  0  0  0
 37 30  1  0  0  0
  5 12  1  0  0  0
  5 13  1  0  0  0
  1  4  1  0  0  0
 15 17  1  0  0  0
 19 21  1  0  0  0
M  END
> <minimizedAffinity>
46.89190

> <CNNscore>
0.4096870422

> <CNNaffinity>
5.7896990776

> <CNN_VS>
2.3719646931

> <CNNaffinity_variance>
0.2750615478

$$$$
[H]OC(=O)[C@]1(N([H])[H])C([H])([H])[C@]([H])(N([H])C(=O)c2c([H])c([H])c(OC([H])([H])c3c([H])c([H])c(Cl)c(Cl)c3[H])c([H])c2[H])[C@]2([H])[C@]([H])(C(=O)O[H])[C@]12[H]


 37 40  0  0  0  0  0  0  0  0999 V2000
   23.5280    6.5528   53.7428 N   0  0  0  0  0  0  0  0  0  0  0  0
   24.1319    7.8381   53.6401 C   0  0  0  0  0  0  0  0  0  0  0  0
   23.6599    8.7180   52.8596 O   0  0  0  0  0  0  0  0  0  0  0  0
   23.9374    5.8714   54.3835 H   0  0  0  0  0  0  0  0  0  0  0  0
   20.0576    4.7148   51.7776 N   0  0  0  0  0  0  0  0  0  0  0  0
   20.0772    5.6070   52.9662 C   0  0  0  0  0  0  0  0  0  0  0  0
   21.3978    5.2996   53.6272 C   0  0  0  0  0  0  0  0  0  0  0  0
   22.3704    6.2409   52.9559 C   0  0  0  0  0  0  0  0  0  0  0  0
   21.6008    7.3831   52.4102 C   0  0  0  0  0  0  0  0  0  0  0  0
   20.6247    8.2198   53.0857 C   0  0  0  0  0  0  0  0  0  0  0  0
   20.1109    7.0015   52.4919 C   0  0  0  0  0  0  0  0  0  0  0  0
   20.4596    5.1841   50.9525 H   0  0  0  0  0  0  0  0  0  0  0  0
   19.0528    4.5259   51.5633 H   0  0  0  0  0  0  0  0  0  0  0  0
   20.6182    8.6730   54.4535 C   0  0  0  0  0  0  0  0  0  0  0  0
   19.8707    7.9717   55.4272 O   0  0  0  0  0  0  0  0  0  0  0  0
   21.2221    9.6511   54.8856 O   0  0  0  0  0  0  0  0  0  0  0  0
   19.9563    6.9718   55.5356 H   0  0  0  0  0  0  0  0  0  0  0  0
   18.9697    5.1786   53.8031 C   0  0  0  0  0  0  0  0  0  0  0  0
   17.6729    5.7107   53.7829 O   0  0  0  0  0  0  0  0  0  0  0  0
   19.1824    4.2244   54.6448 O   0  0  0  0  0  0  0  0  0  0  0  0
   17.0146    5.2224   53.1749 H   0  0  0  0  0  0  0  0  0  0  0  0
   25.3061    8.1660   54.4326 C   0  0  0  0  0  0  0  0  0  0  0  0
   25.1171    8.9078   55.5831 C   0  0  0  0  0  0  0  0  0  0  0  0
   26.1647    9.2777   56.4117 C   0  0  0  0  0  0  0  0  0  0  0  0
   27.4579    8.9093   56.1090 C   0  0  0  0  0  0  0  0  0  0  0  0
   27.6290    8.1623   54.9459 C   0  0  0  0  0  0  0  0  0  0  0  0
   26.5871    7.8026   54.1345 C   0  0  0  0  0  0  0  0  0  0  0  0
   28.5270    9.2493   56.8971 O   0  0  0  0  0  0  0  0  0  0  0  0
   28.6160    9.2428   58.2780 C   0  0  0  0  0  0  0  0  0  0  0  0
   28.7690   10.5670   58.9133 C   0  0  0  0  0  0  0  0  0  0  0  0
   29.2631   10.7420   60.1821 C   0  0  0  0  0  0  0  0  0  0  0  0
   29.3905   11.9844   60.7662 C   0  0  0  0  0  0  0  0  0  0  0  0
   29.0163   13.1173   60.0762 C   0  0  0  0  0  0  0  0  0  0  0  0
   29.1555   14.7297   60.7685 Cl  0  0  0  0  0  0  0  0  0  0  0  0
   28.5132   12.9674   58.7902 C   0  0  0  0  0  0  0  0  0  0  0  0
   28.0335   14.4060   57.9025 Cl  0  0  0  0  0  0  0  0  0  0  0  0
   28.3942   11.7293   58.2283 C   0  0  0  0  0  0  0  0  0  0  0  0
  5  6  1  0  0  0
  6  7  1  0  0  0
  7  8  1  0  0  0
  8  1  1  0  0  0
  1  2  1  0  0  0
  2  3  2  0  0  0
  2 22  1  0  0  0
 22 23  2  0  0  0
 23 24  1  0  0  0
 24 25  2  0  0  0
 25 28  1  0  0  0
 28 29  1  0  0  0
 29 30  1  0  0  0
 30 31  2  0  0  0
 31 32  1  0  0  0
 32 33  2  0  0  0
 33 34  1  0  0  0
 33 35  1  0  0  0
 35 36  1  0  0  0
 35 37  2  0  0  0
 25 26  1  0  0  0
 26 27  2  0  0  0
  8  9  1  0  0  0
  9 10  1  0  0  0
 10 11  1  0  0  0
 10 14  1  0  0  0
 14 15  1  0  0  0
 14 16  2  0  0  0
  6 18  1  0  0  0
 18 19  1  0  0  0
 18 20  2  0  0  0
 11  6  1  0  0  0
 27 22  1  0  0  0
 11  9  1  0  0  0
 37 30  1  0  0  0
  5 12  1  0  0  0
  5 13  1  0  0  0
  1  4  1  0  0  0
 15 17  1  0  0  0
 19 21  1  0  0  0
M  END
> <minimizedAffinity>
18.14096

> <CNNscore>
0.3376757503

> <CNNaffinity>
5.9039697647

> <CNN_VS>
1.9936274290

> <CNNaffinity_variance>
0.1789301634

$$$$
[H]OC(=O)[C@]1(N([H])[H])C([H])([H])[C@]([H])(N([H])C(=O)c2c([H])c([H])c(OC([H])([H])c3c([H])c([H])c(Cl)c(Cl)c3[H])c([H])c2[H])[C@]2([H])[C@]([H])(C(=O)O[H])[C@]12[H]


 37 40  0  0  0  0  0  0  0  0999 V2000
   19.4673    5.7732   53.7484 N   0  0  0  0  0  0  0  0  0  0  0  0
   20.0313    6.8869   53.0636 C   0  0  0  0  0  0  0  0  0  0  0  0
   19.8412    7.0508   51.8213 O   0  0  0  0  0  0  0  0  0  0  0  0
   19.6427    5.6764   54.7495 H   0  0  0  0  0  0  0  0  0  0  0  0
   17.9079    2.5772   51.1719 N   0  0  0  0  0  0  0  0  0  0  0  0
   18.2234    2.5186   52.6233 C   0  0  0  0  0  0  0  0  0  0  0  0
   19.3604    3.4965   52.7858 C   0  0  0  0  0  0  0  0  0  0  0  0
   18.6727    4.8192   53.0308 C   0  0  0  0  0  0  0  0  0  0  0  0
   17.3171    4.5404   53.5591 C   0  0  0  0  0  0  0  0  0  0  0  0
   16.9375    3.6739   54.6611 C   0  0  0  0  0  0  0  0  0  0  0  0
   17.0602    3.0341   53.3662 C   0  0  0  0  0  0  0  0  0  0  0  0
   17.1862    3.2866   50.9757 H   0  0  0  0  0  0  0  0  0  0  0  0
   17.5021    1.6489   50.9175 H   0  0  0  0  0  0  0  0  0  0  0  0
   17.6348    3.4309   55.8984 C   0  0  0  0  0  0  0  0  0  0  0  0
   16.9222    3.4103   57.1193 O   0  0  0  0  0  0  0  0  0  0  0  0
   18.8408    3.2297   56.0121 O   0  0  0  0  0  0  0  0  0  0  0  0
   16.0891    2.8516   57.2321 H   0  0  0  0  0  0  0  0  0  0  0  0
   18.6712    1.1603   52.8782 C   0  0  0  0  0  0  0  0  0  0  0  0
   19.9611    0.7834   53.2772 O   0  0  0  0  0  0  0  0  0  0  0  0
   17.8177    0.2046   52.7287 O   0  0  0  0  0  0  0  0  0  0  0  0
   20.0949    0.7006   54.2856 H   0  0  0  0  0  0  0  0  0  0  0  0
   20.8389    7.8606   53.7803 C   0  0  0  0  0  0  0  0  0  0  0  0
   21.2859    7.5191   55.0425 C   0  0  0  0  0  0  0  0  0  0  0  0
   22.0604    8.3705   55.8145 C   0  0  0  0  0  0  0  0  0  0  0  0
   22.4185    9.6134   55.3380 C   0  0  0  0  0  0  0  0  0  0  0  0
   21.9588    9.9402   54.0644 C   0  0  0  0  0  0  0  0  0  0  0  0
   21.1942    9.0915   53.3106 C   0  0  0  0  0  0  0  0  0  0  0  0
   23.1838   10.4903   56.0624 O   0  0  0  0  0  0  0  0  0  0  0  0
   24.4228   10.2782   56.6408 C   0  0  0  0  0  0  0  0  0  0  0  0
   25.3594    9.4492   55.8559 C   0  0  0  0  0  0  0  0  0  0  0  0
   26.7235    9.5144   55.9959 C   0  0  0  0  0  0  0  0  0  0  0  0
   27.5861    8.7412   55.2484 C   0  0  0  0  0  0  0  0  0  0  0  0
   27.0924    7.8565   54.3139 C   0  0  0  0  0  0  0  0  0  0  0  0
   28.1431    6.8432   53.3303 Cl  0  0  0  0  0  0  0  0  0  0  0  0
   25.7154    7.7713   54.1527 C   0  0  0  0  0  0  0  0  0  0  0  0
   25.0765    6.6462   52.9638 Cl  0  0  0  0  0  0  0  0  0  0  0  0
   24.8768    8.5450   54.9018 C   0  0  0  0  0  0  0  0  0  0  0  0
  5  6  1  0  0  0
  6  7  1  0  0  0
  7  8  1  0  0  0
  8  1  1  0  0  0
  1  2  1  0  0  0
  2  3  2  0  0  0
  2 22  1  0  0  0
 22 23  2  0  0  0
 23 24  1  0  0  0
 24 25  2  0  0  0
 25 28  1  0  0  0
 28 29  1  0  0  0
 29 30  1  0  0  0
 30 31  2  0  0  0
 31 32  1  0  0  0
 32 33  2  0  0  0
 33 34  1  0  0  0
 33 35  1  0  0  0
 35 36  1  0  0  0
 35 37  2  0  0  0
 25 26  1  0  0  0
 26 27  2  0  0  0
  8  9  1  0  0  0
  9 10  1  0  0  0
 10 11  1  0  0  0
 10 14  1  0  0  0
 14 15  1  0  0  0
 14 16  2  0  0  0
  6 18  1  0  0  0
 18 19  1  0  0  0
 18 20  2  0  0  0
 11  6  1  0  0  0
 27 22  1  0  0  0
 11  9  1  0  0  0
 37 30  1  0  0  0
  5 12  1  0  0  0
  5 13  1  0  0  0
  1  4  1  0  0  0
 15 17  1  0  0  0
 19 21  1  0  0  0
M  END
> <minimizedAffinity>
45.11265

> <CNNscore>
0.3246323168

> <CNNaffinity>
6.3068599701

> <CNN_VS>
2.0474104881

> <CNNaffinity_variance>
0.3549768031

$$$$
[H]OC(=O)[C@]1(N([H])[H])C([H])([H])[C@]([H])(N([H])C(=O)c2c([H])c([H])c(OC([H])([H])c3c([H])c([H])c(Cl)c(Cl)c3[H])c([H])c2[H])[C@]2([H])[C@]([H])(C(=O)O[H])[C@]12[H]


 37 40  0  0  0  0  0  0  0  0999 V2000
   26.1486    9.6398   56.4223 N   0  0  0  0  0  0  0  0  0  0  0  0
   26.0900    8.9612   55.1719 C   0  0  0  0  0  0  0  0  0  0  0  0
   27.0582    9.0165   54.3559 O   0  0  0  0  0  0  0  0  0  0  0  0
   25.3485    9.5704   57.0528 H   0  0  0  0  0  0  0  0  0  0  0  0
   29.0554   12.6577   57.7366 N   0  0  0  0  0  0  0  0  0  0  0  0
   28.5187   11.5015   58.5013 C   0  0  0  0  0  0  0  0  0  0  0  0
   27.1253   11.3208   57.9526 C   0  0  0  0  0  0  0  0  0  0  0  0
   27.3144   10.3986   56.7710 C   0  0  0  0  0  0  0  0  0  0  0  0
   28.5720    9.6428   56.9757 C   0  0  0  0  0  0  0  0  0  0  0  0
   28.9970    8.8965   58.1469 C   0  0  0  0  0  0  0  0  0  0  0  0
   29.3124   10.3112   58.1493 C   0  0  0  0  0  0  0  0  0  0  0  0
   29.5451   12.3462   56.8847 H   0  0  0  0  0  0  0  0  0  0  0  0
   29.7671   13.1155   58.3490 H   0  0  0  0  0  0  0  0  0  0  0  0
   28.1992    8.1106   59.0536 C   0  0  0  0  0  0  0  0  0  0  0  0
   28.8163    7.1505   59.8880 O   0  0  0  0  0  0  0  0  0  0  0  0
   26.9809    8.1892   59.1862 O   0  0  0  0  0  0  0  0  0  0  0  0
   29.6154    7.3859   60.4581 H   0  0  0  0  0  0  0  0  0  0  0  0
   28.4750   11.9287   59.8891 C   0  0  0  0  0  0  0  0  0  0  0  0
   28.8477   13.1914   60.3706 O   0  0  0  0  0  0  0  0  0  0  0  0
   28.0582   11.0823   60.7689 O   0  0  0  0  0  0  0  0  0  0  0  0
   28.0864   13.8666   60.4482 H   0  0  0  0  0  0  0  0  0  0  0  0
   24.9132    8.1890   54.8071 C   0  0  0  0  0  0  0  0  0  0  0  0
   25.1015    6.8743   54.4254 C   0  0  0  0  0  0  0  0  0  0  0  0
   24.0519    6.0479   54.0564 C   0  0  0  0  0  0  0  0  0  0  0  0
   22.7571    6.5205   54.0583 C   0  0  0  0  0  0  0  0  0  0  0  0
   22.5868    7.8477   54.4455 C   0  0  0  0  0  0  0  0  0  0  0  0
   23.6308    8.6551   54.8080 C   0  0  0  0  0  0  0  0  0  0  0  0
   21.6857    5.7425   53.7031 O   0  0  0  0  0  0  0  0  0  0  0  0
   20.3397    6.0615   53.7387 C   0  0  0  0  0  0  0  0  0  0  0  0
   19.4110    4.9314   53.5366 C   0  0  0  0  0  0  0  0  0  0  0  0
   19.7729    3.7586   52.9217 C   0  0  0  0  0  0  0  0  0  0  0  0
   18.8917    2.7157   52.7307 C   0  0  0  0  0  0  0  0  0  0  0  0
   17.5871    2.8216   53.1626 C   0  0  0  0  0  0  0  0  0  0  0  0
   16.4164    1.5248   52.9475 Cl  0  0  0  0  0  0  0  0  0  0  0  0
   17.1954    3.9983   53.7881 C   0  0  0  0  0  0  0  0  0  0  0  0
   15.5342    4.1427   54.3424 Cl  0  0  0  0  0  0  0  0  0  0  0  0
   18.0820    5.0203   53.9683 C   0  0  0  0  0  0  0  0  0  0  0  0
  5  6  1  0  0  0
  6  7  1  0  0  0
  7  8  1  0  0  0
  8  1  1  0  0  0
  1  2  1  0  0  0
  2  3  2  0  0  0
  2 22  1  0  0  0
 22 23  2  0  0  0
 23 24  1  0  0  0
 24 25  2  0  0  0
 25 28  1  0  0  0
 28 29  1  0  0  0
 29 30  1  0  0  0
 30 31  2  0  0  0
 31 32  1  0  0  0
 32 33  2  0  0  0
 33 34  1  0  0  0
 33 35  1  0  0  0
 35 36  1  0  0  0
 35 37  2  0  0  0
 25 26  1  0  0  0
 26 27  2  0  0  0
  8  9  1  0  0  0
  9 10  1  0  0  0
 10 11  1  0  0  0
 10 14  1  0  0  0
 14 15  1  0  0  0
 14 16  2  0  0  0
  6 18  1  0  0  0
 18 19  1  0  0  0
 18 20  2  0  0  0
 11  6  1  0  0  0
 27 22  1  0  0  0
 11  9  1  0  0  0
 37 30  1  0  0  0
  5 12  1  0  0  0
  5 13  1  0  0  0
  1  4  1  0  0  0
 15 17  1  0  0  0
 19 21  1  0  0  0
M  END
> <minimizedAffinity>
31.65694

> <CNNscore>
0.2794582248

> <CNNaffinity>
5.3172521591

> <CNN_VS>
1.4859498739

> <CNNaffinity_variance>
0.1213468537

$$$$
[H]OC(=O)[C@]1(N([H])[H])C([H])([H])[C@]([H])(N([H])C(=O)c2c([H])c([H])c(OC([H])([H])c3c([H])c([H])c(Cl)c(Cl)c3[H])c([H])c2[H])[C@]2([H])[C@]([H])(C(=O)O[H])[C@]12[H]


 37 40  0  0  0  0  0  0  0  0999 V2000
   19.2236    4.3145   53.5199 N   0  0  0  0  0  0  0  0  0  0  0  0
   19.8727    5.4070   52.8776 C   0  0  0  0  0  0  0  0  0  0  0  0
   19.2457    6.1478   52.0625 O   0  0  0  0  0  0  0  0  0  0  0  0
   19.7626    3.7414   54.1707 H   0  0  0  0  0  0  0  0  0  0  0  0
   15.3679    2.7992   52.0633 N   0  0  0  0  0  0  0  0  0  0  0  0
   16.0879    2.4358   53.3119 C   0  0  0  0  0  0  0  0  0  0  0  0
   17.5435    2.5906   52.9479 C   0  0  0  0  0  0  0  0  0  0  0  0
   17.8427    4.0411   53.2465 C   0  0  0  0  0  0  0  0  0  0  0  0
   16.8534    4.5183   54.2405 C   0  0  0  0  0  0  0  0  0  0  0  0
   16.4787    3.9110   55.5055 C   0  0  0  0  0  0  0  0  0  0  0  0
   15.7588    3.4393   54.3392 C   0  0  0  0  0  0  0  0  0  0  0  0
   15.1461    3.8057   52.0403 H   0  0  0  0  0  0  0  0  0  0  0  0
   14.4586    2.2855   52.0834 H   0  0  0  0  0  0  0  0  0  0  0  0
   17.3089    3.2029   56.4466 C   0  0  0  0  0  0  0  0  0  0  0  0
   16.8332    2.9416   57.7520 O   0  0  0  0  0  0  0  0  0  0  0  0
   18.4408    2.7812   56.2257 O   0  0  0  0  0  0  0  0  0  0  0  0
   15.9293    2.5198   57.9073 H   0  0  0  0  0  0  0  0  0  0  0  0
   15.7653    1.0422   53.5655 C   0  0  0  0  0  0  0  0  0  0  0  0
   16.4776   -0.0651   53.0843 O   0  0  0  0  0  0  0  0  0  0  0  0
   14.7346    0.7841   54.2971 O   0  0  0  0  0  0  0  0  0  0  0  0
   17.1954   -0.4247   53.7144 H   0  0  0  0  0  0  0  0  0  0  0  0
   21.2725    5.6939   53.1466 C   0  0  0  0  0  0  0  0  0  0  0  0
   21.9310    6.5455   52.2801 C   0  0  0  0  0  0  0  0  0  0  0  0
   23.2647    6.8864   52.4403 C   0  0  0  0  0  0  0  0  0  0  0  0
   23.9943    6.3761   53.4926 C   0  0  0  0  0  0  0  0  0  0  0  0
   23.3141    5.5197   54.3551 C   0  0  0  0  0  0  0  0  0  0  0  0
   21.9965    5.1896   54.1874 C   0  0  0  0  0  0  0  0  0  0  0  0
   25.3148    6.6841   53.6944 O   0  0  0  0  0  0  0  0  0  0  0  0
   25.8545    7.7837   54.3381 C   0  0  0  0  0  0  0  0  0  0  0  0
   24.8768    8.7400   54.8948 C   0  0  0  0  0  0  0  0  0  0  0  0
   25.1714    9.6134   55.9121 C   0  0  0  0  0  0  0  0  0  0  0  0
   24.2447   10.4938   56.4288 C   0  0  0  0  0  0  0  0  0  0  0  0
   22.9615   10.5245   55.9267 C   0  0  0  0  0  0  0  0  0  0  0  0
   21.7353   11.6257   56.5449 Cl  0  0  0  0  0  0  0  0  0  0  0  0
   22.6377    9.6507   54.8968 C   0  0  0  0  0  0  0  0  0  0  0  0
   21.0042    9.6825   54.2500 Cl  0  0  0  0  0  0  0  0  0  0  0  0
   23.5684    8.7859   54.3979 C   0  0  0  0  0  0  0  0  0  0  0  0
  5  6  1  0  0  0
  6  7  1  0  0  0
  7  8  1  0  0  0
  8  1  1  0  0  0
  1  2  1  0  0  0
  2  3  2  0  0  0
  2 22  1  0  0  0
 22 23  2  0  0  0
 23 24  1  0  0  0
 24 25  2  0  0  0
 25 28  1  0  0  0
 28 29  1  0  0  0
 29 30  1  0  0  0
 30 31  2  0  0  0
 31 32  1  0  0  0
 32 33  2  0  0  0
 33 34  1  0  0  0
 33 35  1  0  0  0
 35 36  1  0  0  0
 35 37  2  0  0  0
 25 26  1  0  0  0
 26 27  2  0  0  0
  8  9  1  0  0  0
  9 10  1  0  0  0
 10 11  1  0  0  0
 10 14  1  0  0  0
 14 15  1  0  0  0
 14 16  2  0  0  0
  6 18  1  0  0  0
 18 19  1  0  0  0
 18 20  2  0  0  0
 11  6  1  0  0  0
 27 22  1  0  0  0
 11  9  1  0  0  0
 37 30  1  0  0  0
  5 12  1  0  0  0
  5 13  1  0  0  0
  1  4  1  0  0  0
 15 17  1  0  0  0
 19 21  1  0  0  0
M  END
> <minimizedAffinity>
48.74764

> <CNNscore>
0.2679506540

> <CNNaffinity>
6.0687384605

> <CNN_VS>
1.6261224747

> <CNNaffinity_variance>
0.7169736624

$$$$
[H]c1nc(Oc2c([H])c([H])c([H])c(C([H])([H])OC([H])([H])[H])c2[H])c([H])c(-c2nn(C([H])([H])C(F)(F)F)c([H])c2[H])c1[H]


 26 28  0  0  0  0  0  0  0  0999 V2000
   27.4981    9.1731   55.3867 C   0  0  0  0  0  0  0  0  0  0  0  0
   26.1421    9.3818   55.3962 C   0  0  0  0  0  0  0  0  0  0  0  0
   25.2702    8.5107   54.7803 C   0  0  0  0  0  0  0  0  0  0  0  0
   25.8109    7.4125   54.1486 C   0  0  0  0  0  0  0  0  0  0  0  0
   27.1901    7.1878   54.1313 C   0  0  0  0  0  0  0  0  0  0  0  0
   27.9781    8.0854   54.7562 N   0  0  0  0  0  0  0  0  0  0  0  0
   23.8266    8.7063   54.7738 C   0  0  0  0  0  0  0  0  0  0  0  0
   23.0748    9.5003   55.6167 C   0  0  0  0  0  0  0  0  0  0  0  0
   21.7337    9.3761   55.2367 C   0  0  0  0  0  0  0  0  0  0  0  0
   21.7234    8.5257   54.1951 N   0  0  0  0  0  0  0  0  0  0  0  0
   22.9507    8.1464   53.9402 N   0  0  0  0  0  0  0  0  0  0  0  0
   20.5593    8.0829   53.4554 C   0  0  0  0  0  0  0  0  0  0  0  0
   20.8244    8.0576   51.9623 C   0  0  0  0  0  0  0  0  0  0  0  0
   19.7119    7.6810   51.2560 F   0  0  0  0  0  0  0  0  0  0  0  0
   21.1385    9.3654   51.5937 F   0  0  0  0  0  0  0  0  0  0  0  0
   21.8823    7.2304   51.6657 F   0  0  0  0  0  0  0  0  0  0  0  0
   28.3484   10.0865   56.0269 O   0  0  0  0  0  0  0  0  0  0  0  0
   28.6995   11.1193   59.5769 C   0  0  0  0  0  0  0  0  0  0  0  0
   28.6780    9.8561   60.1492 C   0  0  0  0  0  0  0  0  0  0  0  0
   28.5530    8.7012   59.4043 C   0  0  0  0  0  0  0  0  0  0  0  0
   28.4435    8.7904   58.0263 C   0  0  0  0  0  0  0  0  0  0  0  0
   28.4607   10.0337   57.4154 C   0  0  0  0  0  0  0  0  0  0  0  0
   28.5869   11.1706   58.1858 C   0  0  0  0  0  0  0  0  0  0  0  0
   28.8375   12.3494   60.3938 C   0  0  0  0  0  0  0  0  0  0  0  0
   29.2467   14.6202   60.2890 C   0  0  0  0  0  0  0  0  0  0  0  0
   28.6644   13.5191   59.7027 O   0  0  0  0  0  0  0  0  0  0  0  0
 25 26  1  0  0  0
 26 24  1  0  0  0
 24 18  1  0  0  0
 18 19  2  0  0  0
 19 20  1  0  0  0
 20 21  2  0  0  0
 21 22  1  0  0  0
 22 17  1  0  0  0
 17  1  1  0  0  0
  1  2  2  0  0  0
  2  3  1  0  0  0
  3  4  2  0  0  0
  4  5  1  0  0  0
  5  6  2  0  0  0
  3  7  1  0  0  0
  7  8  1  0  0  0
  8  9  2  0  0  0
  9 10  1  0  0  0
 10 12  1  0  0  0
 12 13  1  0  0  0
 13 14  1  0  0  0
 13 15  1  0  0  0
 13 16  1  0  0  0
 10 11  1  0  0  0
 22 23  2  0  0  0
 23 18  1  0  0  0
  6  1  1  0  0  0
 11  7  2  0  0  0
M  END
> <minimizedAffinity>
2.92401

> <CNNscore>
0.5791539550

> <CNNaffinity>
5.6109952927

> <CNN_VS>
3.2496302128

> <CNNaffinity_variance>
0.0577219315

$$$$
[H]c1nc(Oc2c([H])c([H])c([H])c(C([H])([H])OC([H])([H])[H])c2[H])c([H])c(-c2nn(C([H])([H])C(F)(F)F)c([H])c2[H])c1[H]


 26 28  0  0  0  0  0  0  0  0999 V2000
   23.3933    7.1096   54.1129 C   0  0  0  0  0  0  0  0  0  0  0  0
   23.1591    8.4351   53.8475 C   0  0  0  0  0  0  0  0  0  0  0  0
   22.0101    8.8556   53.2139 C   0  0  0  0  0  0  0  0  0  0  0  0
   21.0956    7.8911   52.8524 C   0  0  0  0  0  0  0  0  0  0  0  0
   21.3214    6.5375   53.1166 C   0  0  0  0  0  0  0  0  0  0  0  0
   22.4694    6.2050   53.7401 N   0  0  0  0  0  0  0  0  0  0  0  0
   21.7343   10.2554   52.9190 C   0  0  0  0  0  0  0  0  0  0  0  0
   21.5243   11.2851   53.8144 C   0  0  0  0  0  0  0  0  0  0  0  0
   21.2975   12.4525   53.0768 C   0  0  0  0  0  0  0  0  0  0  0  0
   21.3772   12.0924   51.7837 N   0  0  0  0  0  0  0  0  0  0  0  0
   21.6321   10.8098   51.7116 N   0  0  0  0  0  0  0  0  0  0  0  0
   21.2126   12.9601   50.6355 C   0  0  0  0  0  0  0  0  0  0  0  0
   20.7844   14.3552   51.0484 C   0  0  0  0  0  0  0  0  0  0  0  0
   20.0729   14.3417   52.2197 F   0  0  0  0  0  0  0  0  0  0  0  0
   21.9554   15.0790   51.2715 F   0  0  0  0  0  0  0  0  0  0  0  0
   20.0542   14.9595   50.0517 F   0  0  0  0  0  0  0  0  0  0  0  0
   24.5772    6.7270   54.7603 O   0  0  0  0  0  0  0  0  0  0  0  0
   27.2849    9.0889   55.6993 C   0  0  0  0  0  0  0  0  0  0  0  0
   27.8722    9.2172   54.4493 C   0  0  0  0  0  0  0  0  0  0  0  0
   27.4029    8.5560   53.3328 C   0  0  0  0  0  0  0  0  0  0  0  0
   26.3002    7.7257   53.4486 C   0  0  0  0  0  0  0  0  0  0  0  0
   25.6845    7.5701   54.6799 C   0  0  0  0  0  0  0  0  0  0  0  0
   26.1759    8.2439   55.7783 C   0  0  0  0  0  0  0  0  0  0  0  0
   27.8019    9.8101   56.8877 C   0  0  0  0  0  0  0  0  0  0  0  0
   28.5770    9.6524   59.0578 C   0  0  0  0  0  0  0  0  0  0  0  0
   28.3017    9.0034   57.8753 O   0  0  0  0  0  0  0  0  0  0  0  0
 25 26  1  0  0  0
 26 24  1  0  0  0
 24 18  1  0  0  0
 18 19  2  0  0  0
 19 20  1  0  0  0
 20 21  2  0  0  0
 21 22  1  0  0  0
 22 17  1  0  0  0
 17  1  1  0  0  0
  1  2  2  0  0  0
  2  3  1  0  0  0
  3  4  2  0  0  0
  4  5  1  0  0  0
  5  6  2  0  0  0
  3  7  1  0  0  0
  7  8  1  0  0  0
  8  9  2  0  0  0
  9 10  1  0  0  0
 10 12  1  0  0  0
 12 13  1  0  0  0
 13 14  1  0  0  0
 13 15  1  0  0  0
 13 16  1  0  0  0
 10 11  1  0  0  0
 22 23  2  0  0  0
 23 18  1  0  0  0
  6  1  1  0  0  0
 11  7  2  0  0  0
M  END
> <minimizedAffinity>
8.36485

> <CNNscore>
0.5767677426

> <CNNaffinity>
5.8182673454

> <CNN_VS>
3.3557889462

> <CNNaffinity_variance>
0.0328457579

$$$$
[H]c1nc(Oc2c([H])c([H])c([H])c(C([H])([H])OC([H])([H])[H])c2[H])c([H])c(-c2nn(C([H])([H])C(F)(F)F)c([H])c2[H])c1[H]


 26 28  0  0  0  0  0  0  0  0999 V2000
   27.9241    9.0893   52.9365 C   0  0  0  0  0  0  0  0  0  0  0  0
   26.5625    8.9417   52.8545 C   0  0  0  0  0  0  0  0  0  0  0  0
   25.8969    7.9565   53.5506 C   0  0  0  0  0  0  0  0  0  0  0  0
   26.6516    7.1164   54.3394 C   0  0  0  0  0  0  0  0  0  0  0  0
   28.0390    7.2556   54.4321 C   0  0  0  0  0  0  0  0  0  0  0  0
   28.6176    8.2437   53.7208 N   0  0  0  0  0  0  0  0  0  0  0  0
   24.4528    7.7757   53.4830 C   0  0  0  0  0  0  0  0  0  0  0  0
   23.7548    6.6099   53.2387 C   0  0  0  0  0  0  0  0  0  0  0  0
   22.3895    6.9156   53.2682 C   0  0  0  0  0  0  0  0  0  0  0  0
   22.3128    8.2333   53.5252 N   0  0  0  0  0  0  0  0  0  0  0  0
   23.5238    8.7168   53.6470 N   0  0  0  0  0  0  0  0  0  0  0  0
   21.1015    9.0176   53.6522 C   0  0  0  0  0  0  0  0  0  0  0  0
   21.3010   10.2055   54.5737 C   0  0  0  0  0  0  0  0  0  0  0  0
   20.3637   10.2353   55.5731 F   0  0  0  0  0  0  0  0  0  0  0  0
   22.5511   10.0392   55.1692 F   0  0  0  0  0  0  0  0  0  0  0  0
   21.2832   11.3843   53.8655 F   0  0  0  0  0  0  0  0  0  0  0  0
   28.5599   10.1067   52.2102 O   0  0  0  0  0  0  0  0  0  0  0  0
   28.0166   11.3072   48.7380 C   0  0  0  0  0  0  0  0  0  0  0  0
   28.1513   10.0891   48.0886 C   0  0  0  0  0  0  0  0  0  0  0  0
   28.4111    8.9109   48.7583 C   0  0  0  0  0  0  0  0  0  0  0  0
   28.5458    8.9288   50.1368 C   0  0  0  0  0  0  0  0  0  0  0  0
   28.4185   10.1253   50.8234 C   0  0  0  0  0  0  0  0  0  0  0  0
   28.1587   11.2871   50.1272 C   0  0  0  0  0  0  0  0  0  0  0  0
   27.7345   12.5631   48.0012 C   0  0  0  0  0  0  0  0  0  0  0  0
   26.0439   14.1363   47.9562 C   0  0  0  0  0  0  0  0  0  0  0  0
   27.0024   13.4857   48.7002 O   0  0  0  0  0  0  0  0  0  0  0  0
 25 26  1  0  0  0
 26 24  1  0  0  0
 24 18  1  0  0  0
 18 19  2  0  0  0
 19 20  1  0  0  0
 20 21  2  0  0  0
 21 22  1  0  0  0
 22 17  1  0  0  0
 17  1  1  0  0  0
  1  2  2  0  0  0
  2  3  1  0  0  0
  3  4  2  0  0  0
  4  5  1  0  0  0
  5  6  2  0  0  0
  3  7  1  0  0  0
  7  8  1  0  0  0
  8  9  2  0  0  0
  9 10  1  0  0  0
 10 12  1  0  0  0
 12 13  1  0  0  0
 13 14  1  0  0  0
 13 15  1  0  0  0
 13 16  1  0  0  0
 10 11  1  0  0  0
 22 23  2  0  0  0
 23 18  1  0  0  0
  6  1  1  0  0  0
 11  7  2  0  0  0
M  END
> <minimizedAffinity>
19.18649

> <CNNscore>
0.5461694598

> <CNNaffinity>
5.6921129227

> <CNN_VS>
3.1088583469

> <CNNaffinity_variance>
0.1109849215

$$$$
[H]c1nc(Oc2c([H])c([H])c([H])c(C([H])([H])OC([H])([H])[H])c2[H])c([H])c(-c2nn(C([H])([H])C(F)(F)F)c([H])c2[H])c1[H]


 26 28  0  0  0  0  0  0  0  0999 V2000
   23.0729    9.8217   55.4935 C   0  0  0  0  0  0  0  0  0  0  0  0
   22.6073    8.5750   55.1598 C   0  0  0  0  0  0  0  0  0  0  0  0
   21.6619    8.3943   54.1739 C   0  0  0  0  0  0  0  0  0  0  0  0
   21.1954    9.5181   53.5283 C   0  0  0  0  0  0  0  0  0  0  0  0
   21.6611   10.7937   53.8581 C   0  0  0  0  0  0  0  0  0  0  0  0
   22.5864   10.8889   54.8338 N   0  0  0  0  0  0  0  0  0  0  0  0
   21.1489    7.0835   53.7983 C   0  0  0  0  0  0  0  0  0  0  0  0
   21.8625    5.9178   53.6032 C   0  0  0  0  0  0  0  0  0  0  0  0
   20.9525    4.9136   53.2540 C   0  0  0  0  0  0  0  0  0  0  0  0
   19.7418    5.4988   53.2506 N   0  0  0  0  0  0  0  0  0  0  0  0
   19.8761    6.7618   53.5697 N   0  0  0  0  0  0  0  0  0  0  0  0
   18.4770    4.8610   52.9473 C   0  0  0  0  0  0  0  0  0  0  0  0
   18.2217    3.6714   53.8526 C   0  0  0  0  0  0  0  0  0  0  0  0
   19.1437    3.5964   54.8639 F   0  0  0  0  0  0  0  0  0  0  0  0
   16.9706    3.8771   54.4333 F   0  0  0  0  0  0  0  0  0  0  0  0
   18.2060    2.5004   53.1314 F   0  0  0  0  0  0  0  0  0  0  0  0
   24.0360    9.9586   56.5039 O   0  0  0  0  0  0  0  0  0  0  0  0
   27.0327    8.5910   54.7888 C   0  0  0  0  0  0  0  0  0  0  0  0
   27.9865    9.0020   55.7081 C   0  0  0  0  0  0  0  0  0  0  0  0
   27.6665    9.7033   56.8527 C   0  0  0  0  0  0  0  0  0  0  0  0
   26.3419   10.0177   57.1085 C   0  0  0  0  0  0  0  0  0  0  0  0
   25.3585    9.6255   56.2151 C   0  0  0  0  0  0  0  0  0  0  0  0
   25.7083    8.9255   55.0794 C   0  0  0  0  0  0  0  0  0  0  0  0
   27.3956    7.8354   53.5652 C   0  0  0  0  0  0  0  0  0  0  0  0
   29.5802    7.6433   54.2901 C   0  0  0  0  0  0  0  0  0  0  0  0
   28.4997    7.0349   53.6920 O   0  0  0  0  0  0  0  0  0  0  0  0
 25 26  1  0  0  0
 26 24  1  0  0  0
 24 18  1  0  0  0
 18 19  2  0  0  0
 19 20  1  0  0  0
 20 21  2  0  0  0
 21 22  1  0  0  0
 22 17  1  0  0  0
 17  1  1  0  0  0
  1  2  2  0  0  0
  2  3  1  0  0  0
  3  4  2  0  0  0
  4  5  1  0  0  0
  5  6  2  0  0  0
  3  7  1  0  0  0
  7  8  1  0  0  0
  8  9  2  0  0  0
  9 10  1  0  0  0
 10 12  1  0  0  0
 12 13  1  0  0  0
 13 14  1  0  0  0
 13 15  1  0  0  0
 13 16  1  0  0  0
 10 11  1  0  0  0
 22 23  2  0  0  0
 23 18  1  0  0  0
  6  1  1  0  0  0
 11  7  2  0  0  0
M  END
> <minimizedAffinity>
17.75916

> <CNNscore>
0.5268313885

> <CNNaffinity>
5.9446754456

> <CNN_VS>
3.1318416595

> <CNNaffinity_variance>
0.1791318059

$$$$
[H]c1nc(Oc2c([H])c([H])c([H])c(C([H])([H])OC([H])([H])[H])c2[H])c([H])c(-c2nn(C([H])([H])C(F)(F)F)c([H])c2[H])c1[H]


 26 28  0  0  0  0  0  0  0  0999 V2000
   21.8892    8.4557   53.8306 C   0  0  0  0  0  0  0  0  0  0  0  0
   21.2285    7.2796   54.0810 C   0  0  0  0  0  0  0  0  0  0  0  0
   20.3642    6.7241   53.1630 C   0  0  0  0  0  0  0  0  0  0  0  0
   20.1838    7.3956   51.9740 C   0  0  0  0  0  0  0  0  0  0  0  0
   20.8503    8.5943   51.7060 C   0  0  0  0  0  0  0  0  0  0  0  0
   21.6798    9.0743   52.6540 N   0  0  0  0  0  0  0  0  0  0  0  0
   19.6491    5.4773   53.4010 C   0  0  0  0  0  0  0  0  0  0  0  0
   20.1011    4.1886   53.1984 C   0  0  0  0  0  0  0  0  0  0  0  0
   19.0724    3.3130   53.5638 C   0  0  0  0  0  0  0  0  0  0  0  0
   18.0527    4.0911   53.9674 N   0  0  0  0  0  0  0  0  0  0  0  0
   18.4068    5.3478   53.8656 N   0  0  0  0  0  0  0  0  0  0  0  0
   16.7606    3.6406   54.4428 C   0  0  0  0  0  0  0  0  0  0  0  0
   15.9425    3.0184   53.3276 C   0  0  0  0  0  0  0  0  0  0  0  0
   16.7271    2.6583   52.2632 F   0  0  0  0  0  0  0  0  0  0  0  0
   15.3784    1.8557   53.8517 F   0  0  0  0  0  0  0  0  0  0  0  0
   14.9426    3.8698   52.9189 F   0  0  0  0  0  0  0  0  0  0  0  0
   22.7601    8.9847   54.7943 O   0  0  0  0  0  0  0  0  0  0  0  0
   26.4017    8.8584   55.5123 C   0  0  0  0  0  0  0  0  0  0  0  0
   26.8065    8.2208   54.3490 C   0  0  0  0  0  0  0  0  0  0  0  0
   25.9228    7.8423   53.3590 C   0  0  0  0  0  0  0  0  0  0  0  0
   24.5718    8.1029   53.5187 C   0  0  0  0  0  0  0  0  0  0  0  0
   24.1263    8.7381   54.6665 C   0  0  0  0  0  0  0  0  0  0  0  0
   25.0329    9.1047   55.6390 C   0  0  0  0  0  0  0  0  0  0  0  0
   27.3668    9.2603   56.5643 C   0  0  0  0  0  0  0  0  0  0  0  0
   28.8823    9.2519   54.8213 C   0  0  0  0  0  0  0  0  0  0  0  0
   28.5843    9.6779   56.0960 O   0  0  0  0  0  0  0  0  0  0  0  0
 25 26  1  0  0  0
 26 24  1  0  0  0
 24 18  1  0  0  0
 18 19  2  0  0  0
 19 20  1  0  0  0
 20 21  2  0  0  0
 21 22  1  0  0  0
 22 17  1  0  0  0
 17  1  1  0  0  0
  1  2  2  0  0  0
  2  3  1  0  0  0
  3  4  2  0  0  0
  4  5  1  0  0  0
  5  6  2  0  0  0
  3  7  1  0  0  0
  7  8  1  0  0  0
  8  9  2  0  0  0
  9 10  1  0  0  0
 10 12  1  0  0  0
 12 13  1  0  0  0
 13 14  1  0  0  0
 13 15  1  0  0  0
 13 16  1  0  0  0
 10 11  1  0  0  0
 22 23  2  0  0  0
 23 18  1  0  0  0
  6  1  1  0  0  0
 11  7  2  0  0  0
M  END
> <minimizedAffinity>
11.73800

> <CNNscore>
0.5267723799

> <CNNaffinity>
6.0229058266

> <CNN_VS>
3.1727004051

> <CNNaffinity_variance>
0.1673472822

$$$$
[H]c1nc(Oc2c([H])c([H])c([H])c(C([H])([H])OC([H])([H])[H])c2[H])c([H])c(-c2nn(C([H])([H])C(F)(F)F)c([H])c2[H])c1[H]


 26 28  0  0  0  0  0  0  0  0999 V2000
   24.9069    6.9210   54.1266 C   0  0  0  0  0  0  0  0  0  0  0  0
   24.1289    7.6636   53.2748 C   0  0  0  0  0  0  0  0  0  0  0  0
   22.7577    7.7107   53.4006 C   0  0  0  0  0  0  0  0  0  0  0  0
   22.1885    6.9801   54.4203 C   0  0  0  0  0  0  0  0  0  0  0  0
   22.9691    6.2195   55.2950 C   0  0  0  0  0  0  0  0  0  0  0  0
   24.3040    6.2242   55.1073 N   0  0  0  0  0  0  0  0  0  0  0  0
   21.9063    8.4898   52.5115 C   0  0  0  0  0  0  0  0  0  0  0  0
   20.7988    8.0614   51.8073 C   0  0  0  0  0  0  0  0  0  0  0  0
   20.3014    9.1538   51.0879 C   0  0  0  0  0  0  0  0  0  0  0  0
   21.1127   10.1861   51.3785 N   0  0  0  0  0  0  0  0  0  0  0  0
   22.0409    9.7805   52.2085 N   0  0  0  0  0  0  0  0  0  0  0  0
   21.0024   11.5384   50.8710 C   0  0  0  0  0  0  0  0  0  0  0  0
   21.5454   12.5510   51.8608 C   0  0  0  0  0  0  0  0  0  0  0  0
   22.8092   12.9613   51.5251 F   0  0  0  0  0  0  0  0  0  0  0  0
   20.7059   13.6624   51.7909 F   0  0  0  0  0  0  0  0  0  0  0  0
   21.5304   12.0442   53.1393 F   0  0  0  0  0  0  0  0  0  0  0  0
   26.2995    6.9024   53.9611 O   0  0  0  0  0  0  0  0  0  0  0  0
   27.7408    9.3273   56.3767 C   0  0  0  0  0  0  0  0  0  0  0  0
   28.5565   10.0190   55.4935 C   0  0  0  0  0  0  0  0  0  0  0  0
   28.6368    9.7075   54.1516 C   0  0  0  0  0  0  0  0  0  0  0  0
   27.8774    8.6631   53.6502 C   0  0  0  0  0  0  0  0  0  0  0  0
   27.0497    7.9469   54.4994 C   0  0  0  0  0  0  0  0  0  0  0  0
   26.9900    8.2812   55.8360 C   0  0  0  0  0  0  0  0  0  0  0  0
   27.6655    9.6786   57.8156 C   0  0  0  0  0  0  0  0  0  0  0  0
   29.0510   10.5605   59.4397 C   0  0  0  0  0  0  0  0  0  0  0  0
   28.4790   10.7124   58.1967 O   0  0  0  0  0  0  0  0  0  0  0  0
 25 26  1  0  0  0
 26 24  1  0  0  0
 24 18  1  0  0  0
 18 19  2  0  0  0
 19 20  1  0  0  0
 20 21  2  0  0  0
 21 22  1  0  0  0
 22 17  1  0  0  0
 17  1  1  0  0  0
  1  2  2  0  0  0
  2  3  1  0  0  0
  3  4  2  0  0  0
  4  5  1  0  0  0
  5  6  2  0  0  0
  3  7  1  0  0  0
  7  8  1  0  0  0
  8  9  2  0  0  0
  9 10  1  0  0  0
 10 12  1  0  0  0
 12 13  1  0  0  0
 13 14  1  0  0  0
 13 15  1  0  0  0
 13 16  1  0  0  0
 10 11  1  0  0  0
 22 23  2  0  0  0
 23 18  1  0  0  0
  6  1  1  0  0  0
 11  7  2  0  0  0
M  END
> <minimizedAffinity>
7.86541

> <CNNscore>
0.5183873773

> <CNNaffinity>
5.8983902931

> <CNN_VS>
3.0576510429

> <CNNaffinity_variance>
0.2241195440

$$$$
[H]c1nc(Oc2c([H])c([H])c([H])c(C([H])([H])OC([H])([H])[H])c2[H])c([H])c(-c2nn(C([H])([H])C(F)(F)F)c([H])c2[H])c1[H]


 26 28  0  0  0  0  0  0  0  0999 V2000
   25.8326    8.0938   54.7456 C   0  0  0  0  0  0  0  0  0  0  0  0
   26.2860    8.4637   55.9866 C   0  0  0  0  0  0  0  0  0  0  0  0
   27.5348    9.0172   56.1668 C   0  0  0  0  0  0  0  0  0  0  0  0
   28.3204    9.1885   55.0483 C   0  0  0  0  0  0  0  0  0  0  0  0
   27.8710    8.8163   53.7785 C   0  0  0  0  0  0  0  0  0  0  0  0
   26.6373    8.2814   53.6835 N   0  0  0  0  0  0  0  0  0  0  0  0
   28.0430    9.4193   57.4716 C   0  0  0  0  0  0  0  0  0  0  0  0
   28.1672    8.6455   58.6083 C   0  0  0  0  0  0  0  0  0  0  0  0
   28.7013    9.4535   59.6184 C   0  0  0  0  0  0  0  0  0  0  0  0
   28.8778   10.6663   59.0650 N   0  0  0  0  0  0  0  0  0  0  0  0
   28.4889   10.6271   57.8151 N   0  0  0  0  0  0  0  0  0  0  0  0
   29.4095   11.8436   59.7204 C   0  0  0  0  0  0  0  0  0  0  0  0
   28.4271   12.9981   59.6751 C   0  0  0  0  0  0  0  0  0  0  0  0
   28.0257   13.2725   58.3937 F   0  0  0  0  0  0  0  0  0  0  0  0
   27.3036   12.5904   60.3937 F   0  0  0  0  0  0  0  0  0  0  0  0
   28.9630   14.1217   60.2598 F   0  0  0  0  0  0  0  0  0  0  0  0
   24.5539    7.5340   54.6091 O   0  0  0  0  0  0  0  0  0  0  0  0
   21.7038    9.1355   52.8472 C   0  0  0  0  0  0  0  0  0  0  0  0
   21.3817   10.0758   53.8145 C   0  0  0  0  0  0  0  0  0  0  0  0
   22.0700   10.1874   55.0054 C   0  0  0  0  0  0  0  0  0  0  0  0
   23.1292    9.3320   55.2603 C   0  0  0  0  0  0  0  0  0  0  0  0
   23.4830    8.3783   54.3197 C   0  0  0  0  0  0  0  0  0  0  0  0
   22.7767    8.2903   53.1384 C   0  0  0  0  0  0  0  0  0  0  0  0
   20.9540    9.0325   51.5717 C   0  0  0  0  0  0  0  0  0  0  0  0
   20.0910    7.0974   52.4913 C   0  0  0  0  0  0  0  0  0  0  0  0
   20.3650    7.8161   51.3495 O   0  0  0  0  0  0  0  0  0  0  0  0
 25 26  1  0  0  0
 26 24  1  0  0  0
 24 18  1  0  0  0
 18 19  2  0  0  0
 19 20  1  0  0  0
 20 21  2  0  0  0
 21 22  1  0  0  0
 22 17  1  0  0  0
 17  1  1  0  0  0
  1  2  2  0  0  0
  2  3  1  0  0  0
  3  4  2  0  0  0
  4  5  1  0  0  0
  5  6  2  0  0  0
  3  7  1  0  0  0
  7  8  1  0  0  0
  8  9  2  0  0  0
  9 10  1  0  0  0
 10 12  1  0  0  0
 12 13  1  0  0  0
 13 14  1  0  0  0
 13 15  1  0  0  0
 13 16  1  0  0  0
 10 11  1  0  0  0
 22 23  2  0  0  0
 23 18  1  0  0  0
  6  1  1  0  0  0
 11  7  2  0  0  0
M  END
> <minimizedAffinity>
-2.01989

> <CNNscore>
0.5056160092

> <CNNaffinity>
5.8373098373

> <CNN_VS>
2.9514372349

> <CNNaffinity_variance>
0.0667058676

$$$$
[H]c1nc(Oc2c([H])c([H])c([H])c(C([H])([H])OC([H])([H])[H])c2[H])c([H])c(-c2nn(C([H])([H])C(F)(F)F)c([H])c2[H])c1[H]


 26 28  0  0  0  0  0  0  0  0999 V2000
   27.7020    9.0695   53.0242 C   0  0  0  0  0  0  0  0  0  0  0  0
   26.3372    9.1480   53.1398 C   0  0  0  0  0  0  0  0  0  0  0  0
   25.6096    8.1860   53.8059 C   0  0  0  0  0  0  0  0  0  0  0  0
   26.3052    7.1326   54.3570 C   0  0  0  0  0  0  0  0  0  0  0  0
   27.6953    7.0403   54.2468 C   0  0  0  0  0  0  0  0  0  0  0  0
   28.3363    8.0208   53.5799 N   0  0  0  0  0  0  0  0  0  0  0  0
   24.1604    8.2427   53.9446 C   0  0  0  0  0  0  0  0  0  0  0  0
   23.4271    8.8677   54.9333 C   0  0  0  0  0  0  0  0  0  0  0  0
   22.0715    8.6572   54.6571 C   0  0  0  0  0  0  0  0  0  0  0  0
   22.0349    7.9246   53.5300 N   0  0  0  0  0  0  0  0  0  0  0  0
   23.2602    7.6931   53.1301 N   0  0  0  0  0  0  0  0  0  0  0  0
   20.8478    7.4536   52.8464 C   0  0  0  0  0  0  0  0  0  0  0  0
   20.6510    8.1616   51.5197 C   0  0  0  0  0  0  0  0  0  0  0  0
   20.9652    9.4930   51.6038 F   0  0  0  0  0  0  0  0  0  0  0  0
   21.5391    7.5719   50.6207 F   0  0  0  0  0  0  0  0  0  0  0  0
   19.3631    8.0015   51.0644 F   0  0  0  0  0  0  0  0  0  0  0  0
   28.4021   10.0720   52.3372 O   0  0  0  0  0  0  0  0  0  0  0  0
   28.5676    8.9583   48.7982 C   0  0  0  0  0  0  0  0  0  0  0  0
   28.2577   10.1702   48.1990 C   0  0  0  0  0  0  0  0  0  0  0  0
   28.0022   11.3169   48.9229 C   0  0  0  0  0  0  0  0  0  0  0  0
   28.0533   11.2723   50.3064 C   0  0  0  0  0  0  0  0  0  0  0  0
   28.3593   10.0809   50.9438 C   0  0  0  0  0  0  0  0  0  0  0  0
   28.6101    8.9509   50.1941 C   0  0  0  0  0  0  0  0  0  0  0  0
   28.8422    7.7366   48.0033 C   0  0  0  0  0  0  0  0  0  0  0  0
   28.9266    8.1561   45.7335 C   0  0  0  0  0  0  0  0  0  0  0  0
   29.6266    7.9359   46.8984 O   0  0  0  0  0  0  0  0  0  0  0  0
 25 26  1  0  0  0
 26 24  1  0  0  0
 24 18  1  0  0  0
 18 19  2  0  0  0
 19 20  1  0  0  0
 20 21  2  0  0  0
 21 22  1  0  0  0
 22 17  1  0  0  0
 17  1  1  0  0  0
  1  2  2  0  0  0
  2  3  1  0  0  0
  3  4  2  0  0  0
  4  5  1  0  0  0
  5  6  2  0  0  0
  3  7  1  0  0  0
  7  8  1  0  0  0
  8  9  2  0  0  0
  9 10  1  0  0  0
 10 12  1  0  0  0
 12 13  1  0  0  0
 13 14  1  0  0  0
 13 15  1  0  0  0
 13 16  1  0  0  0
 10 11  1  0  0  0
 22 23  2  0  0  0
 23 18  1  0  0  0
  6  1  1  0  0  0
 11  7  2  0  0  0
M  END
> <minimizedAffinity>
19.80572

> <CNNscore>
0.4978526831

> <CNNaffinity>
5.6758079529

> <CNN_VS>
2.8257162571

> <CNNaffinity_variance>
0.2054682523

$$$$
[H]c1nc(Oc2c([H])c([H])c([H])c(C([H])([H])OC([H])([H])[H])c2[H])c([H])c(-c2nn(C([H])([H])C(F)(F)F)c([H])c2[H])c1[H]


 26 28  0  0  0  0  0  0  0  0999 V2000
   26.4935    8.2621   54.7683 C   0  0  0  0  0  0  0  0  0  0  0  0
   25.3578    9.0309   54.8062 C   0  0  0  0  0  0  0  0  0  0  0  0
   24.1170    8.5059   54.5177 C   0  0  0  0  0  0  0  0  0  0  0  0
   24.0544    7.1702   54.1866 C   0  0  0  0  0  0  0  0  0  0  0  0
   25.2033    6.3757   54.1443 C   0  0  0  0  0  0  0  0  0  0  0  0
   26.3807    6.9621   54.4394 N   0  0  0  0  0  0  0  0  0  0  0  0
   22.8943    9.2974   54.5496 C   0  0  0  0  0  0  0  0  0  0  0  0
   21.8164    9.1585   55.4010 C   0  0  0  0  0  0  0  0  0  0  0  0
   20.8756   10.1373   55.0617 C   0  0  0  0  0  0  0  0  0  0  0  0
   21.4099   10.8213   54.0346 N   0  0  0  0  0  0  0  0  0  0  0  0
   22.5851   10.3180   53.7505 N   0  0  0  0  0  0  0  0  0  0  0  0
   20.8070   11.9379   53.3360 C   0  0  0  0  0  0  0  0  0  0  0  0
   21.5070   12.2151   52.0195 C   0  0  0  0  0  0  0  0  0  0  0  0
   21.4282   11.1441   51.1679 F   0  0  0  0  0  0  0  0  0  0  0  0
   20.8283   13.2794   51.4267 F   0  0  0  0  0  0  0  0  0  0  0  0
   22.8204   12.5664   52.2266 F   0  0  0  0  0  0  0  0  0  0  0  0
   27.7360    8.8388   55.0696 O   0  0  0  0  0  0  0  0  0  0  0  0
   28.1481   11.0763   58.0049 C   0  0  0  0  0  0  0  0  0  0  0  0
   28.4297   10.1032   58.9522 C   0  0  0  0  0  0  0  0  0  0  0  0
   28.4844    8.7585   58.6475 C   0  0  0  0  0  0  0  0  0  0  0  0
   28.2507    8.3472   57.3456 C   0  0  0  0  0  0  0  0  0  0  0  0
   27.9659    9.2878   56.3692 C   0  0  0  0  0  0  0  0  0  0  0  0
   27.9180   10.6250   56.7035 C   0  0  0  0  0  0  0  0  0  0  0  0
   28.0965   12.5176   58.3509 C   0  0  0  0  0  0  0  0  0  0  0  0
   29.1803   12.4118   60.3878 C   0  0  0  0  0  0  0  0  0  0  0  0
   28.0511   12.7836   59.6936 O   0  0  0  0  0  0  0  0  0  0  0  0
 25 26  1  0  0  0
 26 24  1  0  0  0
 24 18  1  0  0  0
 18 19  2  0  0  0
 19 20  1  0  0  0
 20 21  2  0  0  0
 21 22  1  0  0  0
 22 17  1  0  0  0
 17  1  1  0  0  0
  1  2  2  0  0  0
  2  3  1  0  0  0
  3  4  2  0  0  0
  4  5  1  0  0  0
  5  6  2  0  0  0
  3  7  1  0  0  0
  7  8  1  0  0  0
  8  9  2  0  0  0
  9 10  1  0  0  0
 10 12  1  0  0  0
 12 13  1  0  0  0
 13 14  1  0  0  0
 13 15  1  0  0  0
 13 16  1  0  0  0
 10 11  1  0  0  0
 22 23  2  0  0  0
 23 18  1  0  0  0
  6  1  1  0  0  0
 11  7  2  0  0  0
M  END
> <minimizedAffinity>
12.63309

> <CNNscore>
0.4904640019

> <CNNaffinity>
5.4669494629

> <CNN_VS>
2.6813418865

> <CNNaffinity_variance>
0.0224472340

$$$$
[H]c1nc([H])n(C([H])([H])c2c([H])c([H])c3c(-c4c([H])c([H])c(F)c([H])c4[H])c([H])c(C(=O)N([H])[H])nc3c2[H])c1[H]


 28 31  0  0  0  0  0  0  0  0999 V2000
   21.6252    9.6959   52.1845 C   0  0  0  0  0  0  0  0  0  0  0  0
   22.8678    9.6698   52.7796 C   0  0  0  0  0  0  0  0  0  0  0  0
   23.3568    8.5271   53.4257 C   0  0  0  0  0  0  0  0  0  0  0  0
   22.5305    7.4280   53.4342 C   0  0  0  0  0  0  0  0  0  0  0  0
   22.8953    6.2527   54.0170 C   0  0  0  0  0  0  0  0  0  0  0  0
   22.0852    5.1377   54.0274 C   0  0  0  0  0  0  0  0  0  0  0  0
   20.8428    5.1561   53.4374 C   0  0  0  0  0  0  0  0  0  0  0  0
   20.4682    6.3352   52.8470 C   0  0  0  0  0  0  0  0  0  0  0  0
   21.2733    7.4616   52.8299 C   0  0  0  0  0  0  0  0  0  0  0  0
   20.8734    8.5830   52.2347 N   0  0  0  0  0  0  0  0  0  0  0  0
   24.6557    8.5482   54.0789 C   0  0  0  0  0  0  0  0  0  0  0  0
   24.8826    8.9288   55.3820 C   0  0  0  0  0  0  0  0  0  0  0  0
   26.1195    8.9402   55.9825 C   0  0  0  0  0  0  0  0  0  0  0  0
   27.2336    8.5526   55.2693 C   0  0  0  0  0  0  0  0  0  0  0  0
   28.4779    8.5542   55.8419 F   0  0  0  0  0  0  0  0  0  0  0  0
   27.0476    8.1651   53.9626 C   0  0  0  0  0  0  0  0  0  0  0  0
   25.8078    8.1589   53.3773 C   0  0  0  0  0  0  0  0  0  0  0  0
   21.5478   12.1817   51.9555 N   0  0  0  0  0  0  0  0  0  0  0  0
   21.1518   10.9037   51.5224 C   0  0  0  0  0  0  0  0  0  0  0  0
   20.3756   10.7891   50.5472 O   0  0  0  0  0  0  0  0  0  0  0  0
   22.1688   12.7513   51.3601 H   0  0  0  0  0  0  0  0  0  0  0  0
   21.2221   12.5512   52.8618 H   0  0  0  0  0  0  0  0  0  0  0  0
   19.9980    3.9458   53.4658 C   0  0  0  0  0  0  0  0  0  0  0  0
   18.6361    4.3622   53.7889 N   0  0  0  0  0  0  0  0  0  0  0  0
   17.6198    3.6013   54.1707 C   0  0  0  0  0  0  0  0  0  0  0  0
   16.5273    4.4121   54.3662 C   0  0  0  0  0  0  0  0  0  0  0  0
   16.9383    5.6569   54.0880 N   0  0  0  0  0  0  0  0  0  0  0  0
   18.2290    5.6376   53.7331 C   0  0  0  0  0  0  0  0  0  0  0  0
 18 19  1  0  0  0
 19 20  2  0  0  0
 19  1  1  0  0  0
  1  2  2  0  0  0
  2  3  1  0  0  0
  3 11  1  0  0  0
 11 12  2  0  0  0
 12 13  1  0  0  0
 13 14  2  0  0  0
 14 15  1  0  0  0
 14 16  1  0  0  0
 16 17  2  0  0  0
  3  4  2  0  0  0
  4  5  1  0  0  0
  5  6  2  0  0  0
  6  7  1  0  0  0
  7 23  1  0  0  0
 23 24  1  0  0  0
 24 25  1  0  0  0
 25 26  2  0  0  0
 26 27  1  0  0  0
 27 28  2  0  0  0
  7  8  2  0  0  0
  8  9  1  0  0  0
  9 10  2  0  0  0
 10  1  1  0  0  0
 17 11  1  0  0  0
  9  4  1  0  0  0
 28 24  1  0  0  0
 18 21  1  0  0  0
 18 22  1  0  0  0
M  END
> <minimizedAffinity>
18.27639

> <CNNscore>
0.6346150637

> <CNNaffinity>
6.4914603233

> <CNN_VS>
4.1195783615

> <CNNaffinity_variance>
0.6606512666

$$$$
[H]c1nc([H])n(C([H])([H])c2c([H])c([H])c3c(-c4c([H])c([H])c(F)c([H])c4[H])c([H])c(C(=O)N([H])[H])nc3c2[H])c1[H]


 28 31  0  0  0  0  0  0  0  0999 V2000
   20.9644    6.1295   53.6787 C   0  0  0  0  0  0  0  0  0  0  0  0
   20.7330    7.3956   53.1866 C   0  0  0  0  0  0  0  0  0  0  0  0
   21.7634    8.3328   53.0369 C   0  0  0  0  0  0  0  0  0  0  0  0
   23.0227    7.9222   53.4063 C   0  0  0  0  0  0  0  0  0  0  0  0
   24.1102    8.7342   53.2961 C   0  0  0  0  0  0  0  0  0  0  0  0
   25.3812    8.3376   53.6521 C   0  0  0  0  0  0  0  0  0  0  0  0
   25.6202    7.0763   54.1458 C   0  0  0  0  0  0  0  0  0  0  0  0
   24.5310    6.2517   54.2587 C   0  0  0  0  0  0  0  0  0  0  0  0
   23.2496    6.6387   53.9043 C   0  0  0  0  0  0  0  0  0  0  0  0
   22.2220    5.8007   54.0201 N   0  0  0  0  0  0  0  0  0  0  0  0
   21.4762    9.6737   52.5533 C   0  0  0  0  0  0  0  0  0  0  0  0
   20.8246    9.9708   51.3778 C   0  0  0  0  0  0  0  0  0  0  0  0
   20.5609   11.2467   50.9384 C   0  0  0  0  0  0  0  0  0  0  0  0
   20.9574   12.3296   51.6934 C   0  0  0  0  0  0  0  0  0  0  0  0
   20.7080   13.6115   51.2801 F   0  0  0  0  0  0  0  0  0  0  0  0
   21.6123   12.0735   52.8757 C   0  0  0  0  0  0  0  0  0  0  0  0
   21.8682   10.7955   53.3010 C   0  0  0  0  0  0  0  0  0  0  0  0
   18.5290    5.5777   53.6377 N   0  0  0  0  0  0  0  0  0  0  0  0
   19.8663    5.1831   53.8198 C   0  0  0  0  0  0  0  0  0  0  0  0
   20.1314    3.9947   54.1098 O   0  0  0  0  0  0  0  0  0  0  0  0
   18.0033    5.2328   52.8196 H   0  0  0  0  0  0  0  0  0  0  0  0
   18.0725    6.2078   54.3150 H   0  0  0  0  0  0  0  0  0  0  0  0
   26.9929    6.6813   54.5190 C   0  0  0  0  0  0  0  0  0  0  0  0
   27.6614    7.8596   55.0642 N   0  0  0  0  0  0  0  0  0  0  0  0
   27.1230    8.8577   55.7511 C   0  0  0  0  0  0  0  0  0  0  0  0
   28.1206    9.7504   56.0628 C   0  0  0  0  0  0  0  0  0  0  0  0
   29.2452    9.2431   55.5394 N   0  0  0  0  0  0  0  0  0  0  0  0
   28.9749    8.0847   54.9253 C   0  0  0  0  0  0  0  0  0  0  0  0
 18 19  1  0  0  0
 19 20  2  0  0  0
 19  1  1  0  0  0
  1  2  2  0  0  0
  2  3  1  0  0  0
  3 11  1  0  0  0
 11 12  2  0  0  0
 12 13  1  0  0  0
 13 14  2  0  0  0
 14 15  1  0  0  0
 14 16  1  0  0  0
 16 17  2  0  0  0
  3  4  2  0  0  0
  4  5  1  0  0  0
  5  6  2  0  0  0
  6  7  1  0  0  0
  7 23  1  0  0  0
 23 24  1  0  0  0
 24 25  1  0  0  0
 25 26  2  0  0  0
 26 27  1  0  0  0
 27 28  2  0  0  0
  7  8  2  0  0  0
  8  9  1  0  0  0
  9 10  2  0  0  0
 10  1  1  0  0  0
 17 11  1  0  0  0
  9  4  1  0  0  0
 28 24  1  0  0  0
 18 21  1  0  0  0
 18 22  1  0  0  0
M  END
> <minimizedAffinity>
20.43422

> <CNNscore>
0.5786328316

> <CNNaffinity>
6.2115888596

> <CNN_VS>
3.5942292213

> <CNNaffinity_variance>
0.5961352587

$$$$
[H]c1nc([H])n(C([H])([H])c2c([H])c([H])c3c(-c4c([H])c([H])c(F)c([H])c4[H])c([H])c(C(=O)N([H])[H])nc3c2[H])c1[H]


 28 31  0  0  0  0  0  0  0  0999 V2000
   21.6653    9.6610   52.1617 C   0  0  0  0  0  0  0  0  0  0  0  0
   20.7788    8.6459   52.4488 C   0  0  0  0  0  0  0  0  0  0  0  0
   21.1909    7.4494   53.0497 C   0  0  0  0  0  0  0  0  0  0  0  0
   22.5303    7.3402   53.3408 C   0  0  0  0  0  0  0  0  0  0  0  0
   23.0535    6.2339   53.9378 C   0  0  0  0  0  0  0  0  0  0  0  0
   24.3911    6.1098   54.2459 C   0  0  0  0  0  0  0  0  0  0  0  0
   25.2827    7.1176   53.9609 C   0  0  0  0  0  0  0  0  0  0  0  0
   24.7641    8.2358   53.3610 C   0  0  0  0  0  0  0  0  0  0  0  0
   23.4224    8.3720   53.0469 C   0  0  0  0  0  0  0  0  0  0  0  0
   22.9599    9.4811   52.4743 N   0  0  0  0  0  0  0  0  0  0  0  0
   20.2350    6.3828   53.3006 C   0  0  0  0  0  0  0  0  0  0  0  0
   20.5341    5.0396   53.3296 C   0  0  0  0  0  0  0  0  0  0  0  0
   19.6153    4.0454   53.5706 C   0  0  0  0  0  0  0  0  0  0  0  0
   18.2961    4.3702   53.8035 C   0  0  0  0  0  0  0  0  0  0  0  0
   17.3595    3.4007   54.0463 F   0  0  0  0  0  0  0  0  0  0  0  0
   17.9574    5.7033   53.7826 C   0  0  0  0  0  0  0  0  0  0  0  0
   18.8848    6.6836   53.5410 C   0  0  0  0  0  0  0  0  0  0  0  0
   21.5929   12.1531   52.0134 N   0  0  0  0  0  0  0  0  0  0  0  0
   21.1982   10.8906   51.5361 C   0  0  0  0  0  0  0  0  0  0  0  0
   20.4286   10.8091   50.5524 O   0  0  0  0  0  0  0  0  0  0  0  0
   22.2188   12.7408   51.4412 H   0  0  0  0  0  0  0  0  0  0  0  0
   21.2615   12.4934   52.9290 H   0  0  0  0  0  0  0  0  0  0  0  0
   26.7096    6.9546   54.3027 C   0  0  0  0  0  0  0  0  0  0  0  0
   27.1218    8.1320   55.0618 N   0  0  0  0  0  0  0  0  0  0  0  0
   26.4449    8.7720   56.0050 C   0  0  0  0  0  0  0  0  0  0  0  0
   27.2132    9.8232   56.4455 C   0  0  0  0  0  0  0  0  0  0  0  0
   28.3478    9.7732   55.7340 N   0  0  0  0  0  0  0  0  0  0  0  0
   28.3021    8.7406   54.8831 C   0  0  0  0  0  0  0  0  0  0  0  0
 18 19  1  0  0  0
 19 20  2  0  0  0
 19  1  1  0  0  0
  1  2  2  0  0  0
  2  3  1  0  0  0
  3 11  1  0  0  0
 11 12  2  0  0  0
 12 13  1  0  0  0
 13 14  2  0  0  0
 14 15  1  0  0  0
 14 16  1  0  0  0
 16 17  2  0  0  0
  3  4  2  0  0  0
  4  5  1  0  0  0
  5  6  2  0  0  0
  6  7  1  0  0  0
  7 23  1  0  0  0
 23 24  1  0  0  0
 24 25  1  0  0  0
 25 26  2  0  0  0
 26 27  1  0  0  0
 27 28  2  0  0  0
  7  8  2  0  0  0
  8  9  1  0  0  0
  9 10  2  0  0  0
 10  1  1  0  0  0
 17 11  1  0  0  0
  9  4  1  0  0  0
 28 24  1  0  0  0
 18 21  1  0  0  0
 18 22  1  0  0  0
M  END
> <minimizedAffinity>
18.88802

> <CNNscore>
0.5651479959

> <CNNaffinity>
6.1625862122

> <CNN_VS>
3.4827733040

> <CNNaffinity_variance>
0.2441529483

$$$$
[H]c1nc([H])n(C([H])([H])c2c([H])c([H])c3c(-c4c([H])c([H])c(F)c([H])c4[H])c([H])c(C(=O)N([H])[H])nc3c2[H])c1[H]


 28 31  0  0  0  0  0  0  0  0999 V2000
   22.4924    6.2702   53.7102 C   0  0  0  0  0  0  0  0  0  0  0  0
   21.9949    7.5056   53.3566 C   0  0  0  0  0  0  0  0  0  0  0  0
   22.7520    8.6764   53.4922 C   0  0  0  0  0  0  0  0  0  0  0  0
   24.0226    8.5287   53.9967 C   0  0  0  0  0  0  0  0  0  0  0  0
   24.8628    9.5872   54.1636 C   0  0  0  0  0  0  0  0  0  0  0  0
   26.1425    9.4580   54.6586 C   0  0  0  0  0  0  0  0  0  0  0  0
   26.6459    8.2287   55.0155 C   0  0  0  0  0  0  0  0  0  0  0  0
   25.8071    7.1574   54.8494 C   0  0  0  0  0  0  0  0  0  0  0  0
   24.5197    7.2747   54.3530 C   0  0  0  0  0  0  0  0  0  0  0  0
   23.7431    6.2048   54.1976 N   0  0  0  0  0  0  0  0  0  0  0  0
   22.1803    9.9683   53.1480 C   0  0  0  0  0  0  0  0  0  0  0  0
   21.7071   10.8929   54.0512 C   0  0  0  0  0  0  0  0  0  0  0  0
   21.1711   12.1110   53.7055 C   0  0  0  0  0  0  0  0  0  0  0  0
   21.0824   12.4712   52.3780 C   0  0  0  0  0  0  0  0  0  0  0  0
   20.5531   13.6781   52.0047 F   0  0  0  0  0  0  0  0  0  0  0  0
   21.5451   11.5731   51.4443 C   0  0  0  0  0  0  0  0  0  0  0  0
   22.0772   10.3619   51.8043 C   0  0  0  0  0  0  0  0  0  0  0  0
   20.2770    5.1556   53.4151 N   0  0  0  0  0  0  0  0  0  0  0  0
   21.6740    5.0755   53.5545 C   0  0  0  0  0  0  0  0  0  0  0  0
   22.2379    3.9581   53.5460 O   0  0  0  0  0  0  0  0  0  0  0  0
   19.8406    4.9124   52.5123 H   0  0  0  0  0  0  0  0  0  0  0  0
   19.6884    5.4552   54.2075 H   0  0  0  0  0  0  0  0  0  0  0  0
   28.0206    8.1229   55.5434 C   0  0  0  0  0  0  0  0  0  0  0  0
   28.1281    9.0255   56.6863 N   0  0  0  0  0  0  0  0  0  0  0  0
   28.1402    8.7120   57.9745 C   0  0  0  0  0  0  0  0  0  0  0  0
   28.2557    9.8752   58.6975 C   0  0  0  0  0  0  0  0  0  0  0  0
   28.3099   10.8651   57.7958 N   0  0  0  0  0  0  0  0  0  0  0  0
   28.2325   10.3554   56.5603 C   0  0  0  0  0  0  0  0  0  0  0  0
 18 19  1  0  0  0
 19 20  2  0  0  0
 19  1  1  0  0  0
  1  2  2  0  0  0
  2  3  1  0  0  0
  3 11  1  0  0  0
 11 12  2  0  0  0
 12 13  1  0  0  0
 13 14  2  0  0  0
 14 15  1  0  0  0
 14 16  1  0  0  0
 16 17  2  0  0  0
  3  4  2  0  0  0
  4  5  1  0  0  0
  5  6  2  0  0  0
  6  7  1  0  0  0
  7 23  1  0  0  0
 23 24  1  0  0  0
 24 25  1  0  0  0
 25 26  2  0  0  0
 26 27  1  0  0  0
 27 28  2  0  0  0
  7  8  2  0  0  0
  8  9  1  0  0  0
  9 10  2  0  0  0
 10  1  1  0  0  0
 17 11  1  0  0  0
  9  4  1  0  0  0
 28 24  1  0  0  0
 18 21  1  0  0  0
 18 22  1  0  0  0
M  END
> <minimizedAffinity>
22.11659

> <CNNscore>
0.5572119951

> <CNNaffinity>
5.9891748428

> <CNN_VS>
3.3372399807

> <CNNaffinity_variance>
0.5197708607

$$$$
[H]c1nc([H])n(C([H])([H])c2c([H])c([H])c3c(-c4c([H])c([H])c(F)c([H])c4[H])c([H])c(C(=O)N([H])[H])nc3c2[H])c1[H]


 28 31  0  0  0  0  0  0  0  0999 V2000
   21.3468    5.4853   53.8832 C   0  0  0  0  0  0  0  0  0  0  0  0
   22.6117    5.8529   54.2880 C   0  0  0  0  0  0  0  0  0  0  0  0
   23.1758    7.0845   53.9311 C   0  0  0  0  0  0  0  0  0  0  0  0
   22.3989    7.9115   53.1544 C   0  0  0  0  0  0  0  0  0  0  0  0
   22.8270    9.1401   52.7529 C   0  0  0  0  0  0  0  0  0  0  0  0
   22.0595    9.9868   51.9825 C   0  0  0  0  0  0  0  0  0  0  0  0
   20.7968    9.6266   51.5728 C   0  0  0  0  0  0  0  0  0  0  0  0
   20.3573    8.3917   51.9738 C   0  0  0  0  0  0  0  0  0  0  0  0
   21.1191    7.5325   52.7479 C   0  0  0  0  0  0  0  0  0  0  0  0
   20.6475    6.3460   53.1241 N   0  0  0  0  0  0  0  0  0  0  0  0
   24.5292    7.4223   54.3415 C   0  0  0  0  0  0  0  0  0  0  0  0
   24.8578    8.3272   55.3252 C   0  0  0  0  0  0  0  0  0  0  0  0
   26.1450    8.6319   55.7002 C   0  0  0  0  0  0  0  0  0  0  0  0
   27.2074    8.0140   55.0761 C   0  0  0  0  0  0  0  0  0  0  0  0
   28.5000    8.2981   55.4291 F   0  0  0  0  0  0  0  0  0  0  0  0
   26.9197    7.1025   54.0867 C   0  0  0  0  0  0  0  0  0  0  0  0
   25.6306    6.8089   53.7236 C   0  0  0  0  0  0  0  0  0  0  0  0
   20.3579    3.2627   53.3175 N   0  0  0  0  0  0  0  0  0  0  0  0
   20.7949    4.1955   54.2748 C   0  0  0  0  0  0  0  0  0  0  0  0
   20.7128    3.9225   55.4936 O   0  0  0  0  0  0  0  0  0  0  0  0
   20.8846    2.3856   53.1839 H   0  0  0  0  0  0  0  0  0  0  0  0
   19.5169    3.4500   52.7503 H   0  0  0  0  0  0  0  0  0  0  0  0
   19.9993   10.5553   50.7476 C   0  0  0  0  0  0  0  0  0  0  0  0
   20.7181   11.8250   50.6872 N   0  0  0  0  0  0  0  0  0  0  0  0
   20.9399   12.5866   49.6249 C   0  0  0  0  0  0  0  0  0  0  0  0
   21.6574   13.6871   50.0290 C   0  0  0  0  0  0  0  0  0  0  0  0
   21.8434   13.5412   51.3481 N   0  0  0  0  0  0  0  0  0  0  0  0
   21.2718   12.4034   51.7616 C   0  0  0  0  0  0  0  0  0  0  0  0
 18 19  1  0  0  0
 19 20  2  0  0  0
 19  1  1  0  0  0
  1  2  2  0  0  0
  2  3  1  0  0  0
  3 11  1  0  0  0
 11 12  2  0  0  0
 12 13  1  0  0  0
 13 14  2  0  0  0
 14 15  1  0  0  0
 14 16  1  0  0  0
 16 17  2  0  0  0
  3  4  2  0  0  0
  4  5  1  0  0  0
  5  6  2  0  0  0
  6  7  1  0  0  0
  7 23  1  0  0  0
 23 24  1  0  0  0
 24 25  1  0  0  0
 25 26  2  0  0  0
 26 27  1  0  0  0
 27 28  2  0  0  0
  7  8  2  0  0  0
  8  9  1  0  0  0
  9 10  2  0  0  0
 10  1  1  0  0  0
 17 11  1  0  0  0
  9  4  1  0  0  0
 28 24  1  0  0  0
 18 21  1  0  0  0
 18 22  1  0  0  0
M  END
> <minimizedAffinity>
39.70410

> <CNNscore>
0.4989748299

> <CNNaffinity>
6.0132803917

> <CNN_VS>
3.0004756451

> <CNNaffinity_variance>
0.7793929577

$$$$
[H]c1nc([H])n(C([H])([H])c2c([H])c([H])c3c(-c4c([H])c([H])c(F)c([H])c4[H])c([H])c(C(=O)N([H])[H])nc3c2[H])c1[H]


 28 31  0  0  0  0  0  0  0  0999 V2000
   24.7041    7.6812   54.1920 C   0  0  0  0  0  0  0  0  0  0  0  0
   24.0764    8.8515   53.8246 C   0  0  0  0  0  0  0  0  0  0  0  0
   22.7364    8.8780   53.4171 C   0  0  0  0  0  0  0  0  0  0  0  0
   22.0767    7.6716   53.4041 C   0  0  0  0  0  0  0  0  0  0  0  0
   20.7685    7.5659   53.0414 C   0  0  0  0  0  0  0  0  0  0  0  0
   20.0877    6.3675   53.0312 C   0  0  0  0  0  0  0  0  0  0  0  0
   20.7075    5.1947   53.3947 C   0  0  0  0  0  0  0  0  0  0  0  0
   22.0244    5.2923   53.7627 C   0  0  0  0  0  0  0  0  0  0  0  0
   22.7187    6.4903   53.7771 C   0  0  0  0  0  0  0  0  0  0  0  0
   23.9947    6.5404   54.1526 N   0  0  0  0  0  0  0  0  0  0  0  0
   22.1179   10.1250   52.9966 C   0  0  0  0  0  0  0  0  0  0  0  0
   21.7702   11.1604   53.8341 C   0  0  0  0  0  0  0  0  0  0  0  0
   21.1872   12.3335   53.4164 C   0  0  0  0  0  0  0  0  0  0  0  0
   20.9150   12.5278   52.0792 C   0  0  0  0  0  0  0  0  0  0  0  0
   20.3348   13.6863   51.6348 F   0  0  0  0  0  0  0  0  0  0  0  0
   21.2480   11.5151   51.2098 C   0  0  0  0  0  0  0  0  0  0  0  0
   21.8291   10.3507   51.6413 C   0  0  0  0  0  0  0  0  0  0  0  0
   26.6099    8.7149   55.4317 N   0  0  0  0  0  0  0  0  0  0  0  0
   26.0994    7.6945   54.6098 C   0  0  0  0  0  0  0  0  0  0  0  0
   26.8511    6.7718   54.2223 O   0  0  0  0  0  0  0  0  0  0  0  0
   26.8866    8.4970   56.4015 H   0  0  0  0  0  0  0  0  0  0  0  0
   26.7089    9.6765   55.0716 H   0  0  0  0  0  0  0  0  0  0  0  0
   19.9515    3.9268   53.3728 C   0  0  0  0  0  0  0  0  0  0  0  0
   18.5810    4.2198   53.7829 N   0  0  0  0  0  0  0  0  0  0  0  0
   17.6780    3.3793   54.2687 C   0  0  0  0  0  0  0  0  0  0  0  0
   16.5251    4.0854   54.5166 C   0  0  0  0  0  0  0  0  0  0  0  0
   16.7854    5.3513   54.1623 N   0  0  0  0  0  0  0  0  0  0  0  0
   18.0425    5.4446   53.7113 C   0  0  0  0  0  0  0  0  0  0  0  0
 18 19  1  0  0  0
 19 20  2  0  0  0
 19  1  1  0  0  0
  1  2  2  0  0  0
  2  3  1  0  0  0
  3 11  1  0  0  0
 11 12  2  0  0  0
 12 13  1  0  0  0
 13 14  2  0  0  0
 14 15  1  0  0  0
 14 16  1  0  0  0
 16 17  2  0  0  0
  3  4  2  0  0  0
  4  5  1  0  0  0
  5  6  2  0  0  0
  6  7  1  0  0  0
  7 23  1  0  0  0
 23 24  1  0  0  0
 24 25  1  0  0  0
 25 26  2  0  0  0
 26 27  1  0  0  0
 27 28  2  0  0  0
  7  8  2  0  0  0
  8  9  1  0  0  0
  9 10  2  0  0  0
 10  1  1  0  0  0
 17 11  1  0  0  0
  9  4  1  0  0  0
 28 24  1  0  0  0
 18 21  1  0  0  0
 18 22  1  0  0  0
M  END
> <minimizedAffinity>
20.23308

> <CNNscore>
0.4385142326

> <CNNaffinity>
6.2465319633

> <CNN_VS>
2.7391932011

> <CNNaffinity_variance>
0.5277447104

$$$$
[H]c1nc([H])n(C([H])([H])c2c([H])c([H])c3c(-c4c([H])c([H])c(F)c([H])c4[H])c([H])c(C(=O)N([H])[H])nc3c2[H])c1[H]


 28 31  0  0  0  0  0  0  0  0999 V2000
   20.3390    6.2996   53.5059 C   0  0  0  0  0  0  0  0  0  0  0  0
   20.2676    7.5349   52.8995 C   0  0  0  0  0  0  0  0  0  0  0  0
   21.3611    8.4100   52.8682 C   0  0  0  0  0  0  0  0  0  0  0  0
   22.5142    7.9706   53.4748 C   0  0  0  0  0  0  0  0  0  0  0  0
   23.6500    8.7212   53.5003 C   0  0  0  0  0  0  0  0  0  0  0  0
   24.8178    8.2942   54.0947 C   0  0  0  0  0  0  0  0  0  0  0  0
   24.8968    7.0634   54.7037 C   0  0  0  0  0  0  0  0  0  0  0  0
   23.7581    6.3005   54.6814 C   0  0  0  0  0  0  0  0  0  0  0  0
   22.5793    6.7186   54.0873 C   0  0  0  0  0  0  0  0  0  0  0  0
   21.5000    5.9396   54.0793 N   0  0  0  0  0  0  0  0  0  0  0  0
   21.2376    9.7230   52.2557 C   0  0  0  0  0  0  0  0  0  0  0  0
   21.5128   10.9187   52.8793 C   0  0  0  0  0  0  0  0  0  0  0  0
   21.3914   12.1511   52.2817 C   0  0  0  0  0  0  0  0  0  0  0  0
   20.9692   12.2417   50.9726 C   0  0  0  0  0  0  0  0  0  0  0  0
   20.8391   13.4559   50.3521 F   0  0  0  0  0  0  0  0  0  0  0  0
   20.6840   11.0677   50.3149 C   0  0  0  0  0  0  0  0  0  0  0  0
   20.8100    9.8460   50.9241 C   0  0  0  0  0  0  0  0  0  0  0  0
   19.3214    4.0189   53.4963 N   0  0  0  0  0  0  0  0  0  0  0  0
   19.1799    5.4178   53.5177 C   0  0  0  0  0  0  0  0  0  0  0  0
   18.0374    5.9281   53.5477 O   0  0  0  0  0  0  0  0  0  0  0  0
   19.0684    3.4687   54.3317 H   0  0  0  0  0  0  0  0  0  0  0  0
   19.6754    3.5416   52.6531 H   0  0  0  0  0  0  0  0  0  0  0  0
   26.1618    6.6346   55.3325 C   0  0  0  0  0  0  0  0  0  0  0  0
   27.1385    7.7028   55.1386 N   0  0  0  0  0  0  0  0  0  0  0  0
   27.2705    8.8232   55.8350 C   0  0  0  0  0  0  0  0  0  0  0  0
   28.3188    9.5365   55.3045 C   0  0  0  0  0  0  0  0  0  0  0  0
   28.7870    8.8007   54.2870 N   0  0  0  0  0  0  0  0  0  0  0  0
   28.0708    7.6751   54.1766 C   0  0  0  0  0  0  0  0  0  0  0  0
 18 19  1  0  0  0
 19 20  2  0  0  0
 19  1  1  0  0  0
  1  2  2  0  0  0
  2  3  1  0  0  0
  3 11  1  0  0  0
 11 12  2  0  0  0
 12 13  1  0  0  0
 13 14  2  0  0  0
 14 15  1  0  0  0
 14 16  1  0  0  0
 16 17  2  0  0  0
  3  4  2  0  0  0
  4  5  1  0  0  0
  5  6  2  0  0  0
  6  7  1  0  0  0
  7 23  1  0  0  0
 23 24  1  0  0  0
 24 25  1  0  0  0
 25 26  2  0  0  0
 26 27  1  0  0  0
 27 28  2  0  0  0
  7  8  2  0  0  0
  8  9  1  0  0  0
  9 10  2  0  0  0
 10  1  1  0  0  0
 17 11  1  0  0  0
  9  4  1  0  0  0
 28 24  1  0  0  0
 18 21  1  0  0  0
 18 22  1  0  0  0
M  END
> <minimizedAffinity>
22.04446

> <CNNscore>
0.4180410504

> <CNNaffinity>
6.0131950378

> <CNN_VS>
2.5137624741

> <CNNaffinity_variance>
0.3955332637

$$$$
[H]c1nc([H])n(C([H])([H])c2c([H])c([H])c3c(-c4c([H])c([H])c(F)c([H])c4[H])c([H])c(C(=O)N([H])[H])nc3c2[H])c1[H]


 28 31  0  0  0  0  0  0  0  0999 V2000
   22.3449    6.2577   55.2247 C   0  0  0  0  0  0  0  0  0  0  0  0
   21.8131    7.1253   54.2956 C   0  0  0  0  0  0  0  0  0  0  0  0
   22.5941    8.0962   53.6555 C   0  0  0  0  0  0  0  0  0  0  0  0
   23.9241    8.1381   54.0022 C   0  0  0  0  0  0  0  0  0  0  0  0
   24.7907    9.0261   53.4413 C   0  0  0  0  0  0  0  0  0  0  0  0
   26.1285    9.0771   53.7687 C   0  0  0  0  0  0  0  0  0  0  0  0
   26.6667    8.2158   54.6964 C   0  0  0  0  0  0  0  0  0  0  0  0
   25.8014    7.3175   55.2650 C   0  0  0  0  0  0  0  0  0  0  0  0
   24.4557    7.2566   54.9441 C   0  0  0  0  0  0  0  0  0  0  0  0
   23.6535    6.3598   55.5132 N   0  0  0  0  0  0  0  0  0  0  0  0
   21.9910    9.0226   52.7108 C   0  0  0  0  0  0  0  0  0  0  0  0
   21.2672    8.6614   51.5972 C   0  0  0  0  0  0  0  0  0  0  0  0
   20.7029    9.5533   50.7160 C   0  0  0  0  0  0  0  0  0  0  0  0
   20.8467   10.9085   50.9230 C   0  0  0  0  0  0  0  0  0  0  0  0
   20.2954   11.8197   50.0616 F   0  0  0  0  0  0  0  0  0  0  0  0
   21.5642   11.3096   52.0260 C   0  0  0  0  0  0  0  0  0  0  0  0
   22.1211   10.4081   52.8960 C   0  0  0  0  0  0  0  0  0  0  0  0
   20.5519    4.5211   55.1409 N   0  0  0  0  0  0  0  0  0  0  0  0
   21.5000    5.2615   55.8691 C   0  0  0  0  0  0  0  0  0  0  0  0
   21.6298    5.0690   57.0990 O   0  0  0  0  0  0  0  0  0  0  0  0
   20.6987    3.5104   54.9942 H   0  0  0  0  0  0  0  0  0  0  0  0
   19.7136    4.9813   54.7539 H   0  0  0  0  0  0  0  0  0  0  0  0
   28.1034    8.2956   55.0263 C   0  0  0  0  0  0  0  0  0  0  0  0
   28.2275    8.9881   56.3060 N   0  0  0  0  0  0  0  0  0  0  0  0
   28.3985    8.4555   57.5080 C   0  0  0  0  0  0  0  0  0  0  0  0
   28.4621    9.4778   58.4245 C   0  0  0  0  0  0  0  0  0  0  0  0
   28.3237   10.6108   57.7223 N   0  0  0  0  0  0  0  0  0  0  0  0
   28.1793   10.3220   56.4230 C   0  0  0  0  0  0  0  0  0  0  0  0
 18 19  1  0  0  0
 19 20  2  0  0  0
 19  1  1  0  0  0
  1  2  2  0  0  0
  2  3  1  0  0  0
  3 11  1  0  0  0
 11 12  2  0  0  0
 12 13  1  0  0  0
 13 14  2  0  0  0
 14 15  1  0  0  0
 14 16  1  0  0  0
 16 17  2  0  0  0
  3  4  2  0  0  0
  4  5  1  0  0  0
  5  6  2  0  0  0
  6  7  1  0  0  0
  7 23  1  0  0  0
 23 24  1  0  0  0
 24 25  1  0  0  0
 25 26  2  0  0  0
 26 27  1  0  0  0
 27 28  2  0  0  0
  7  8  2  0  0  0
  8  9  1  0  0  0
  9 10  2  0  0  0
 10  1  1  0  0  0
 17 11  1  0  0  0
  9  4  1  0  0  0
 28 24  1  0  0  0
 18 21  1  0  0  0
 18 22  1  0  0  0
M  END
> <minimizedAffinity>
25.70572

> <CNNscore>
0.3312349319

> <CNNaffinity>
5.8345518112

> <CNN_VS>
1.9326074123

> <CNNaffinity_variance>
0.6387135386

$$$$
[H]c1nc([H])n(C([H])([H])c2c([H])c([H])c3c(-c4c([H])c([H])c(F)c([H])c4[H])c([H])c(C(=O)N([H])[H])nc3c2[H])c1[H]


 28 31  0  0  0  0  0  0  0  0999 V2000
   21.9829    6.3505   53.8761 C   0  0  0  0  0  0  0  0  0  0  0  0
   23.3201    6.6477   54.0252 C   0  0  0  0  0  0  0  0  0  0  0  0
   23.7577    7.9186   54.4197 C   0  0  0  0  0  0  0  0  0  0  0  0
   22.7805    8.8574   54.6531 C   0  0  0  0  0  0  0  0  0  0  0  0
   23.0752   10.1246   55.0548 C   0  0  0  0  0  0  0  0  0  0  0  0
   22.1097   11.0763   55.3027 C   0  0  0  0  0  0  0  0  0  0  0  0
   20.7729   10.7881   55.1545 C   0  0  0  0  0  0  0  0  0  0  0  0
   20.4672    9.5141   54.7516 C   0  0  0  0  0  0  0  0  0  0  0  0
   21.4283    8.5495   54.4998 C   0  0  0  0  0  0  0  0  0  0  0  0
   21.0854    7.3204   54.1209 N   0  0  0  0  0  0  0  0  0  0  0  0
   25.1785    8.2090   54.5269 C   0  0  0  0  0  0  0  0  0  0  0  0
   25.8159    8.6438   55.6667 C   0  0  0  0  0  0  0  0  0  0  0  0
   27.1621    8.9115   55.7483 C   0  0  0  0  0  0  0  0  0  0  0  0
   27.9642    8.7474   54.6394 C   0  0  0  0  0  0  0  0  0  0  0  0
   29.3081    9.0066   54.6918 F   0  0  0  0  0  0  0  0  0  0  0  0
   27.3636    8.3140   53.4801 C   0  0  0  0  0  0  0  0  0  0  0  0
   26.0197    8.0509   53.4140 C   0  0  0  0  0  0  0  0  0  0  0  0
   20.2153    4.7087   53.2297 N   0  0  0  0  0  0  0  0  0  0  0  0
   21.5672    5.0168   53.4638 C   0  0  0  0  0  0  0  0  0  0  0  0
   22.4419    4.1335   53.3180 O   0  0  0  0  0  0  0  0  0  0  0  0
   19.8966    4.5143   52.2678 H   0  0  0  0  0  0  0  0  0  0  0  0
   19.5430    4.6762   54.0114 H   0  0  0  0  0  0  0  0  0  0  0  0
   19.7623   11.8293   55.4270 C   0  0  0  0  0  0  0  0  0  0  0  0
   19.0173   11.4247   56.6160 N   0  0  0  0  0  0  0  0  0  0  0  0
   19.4957   11.1305   57.8170 C   0  0  0  0  0  0  0  0  0  0  0  0
   18.4380   10.8015   58.6308 C   0  0  0  0  0  0  0  0  0  0  0  0
   17.3401   10.9132   57.8705 N   0  0  0  0  0  0  0  0  0  0  0  0
   17.6839   11.2944   56.6341 C   0  0  0  0  0  0  0  0  0  0  0  0
 18 19  1  0  0  0
 19 20  2  0  0  0
 19  1  1  0  0  0
  1  2  2  0  0  0
  2  3  1  0  0  0
  3 11  1  0  0  0
 11 12  2  0  0  0
 12 13  1  0  0  0
 13 14  2  0  0  0
 14 15  1  0  0  0
 14 16  1  0  0  0
 16 17  2  0  0  0
  3  4  2  0  0  0
  4  5  1  0  0  0
  5  6  2  0  0  0
  6  7  1  0  0  0
  7 23  1  0  0  0
 23 24  1  0  0  0
 24 25  1  0  0  0
 25 26  2  0  0  0
 26 27  1  0  0  0
 27 28  2  0  0  0
  7  8  2  0  0  0
  8  9  1  0  0  0
  9 10  2  0  0  0
 10  1  1  0  0  0
 17 11  1  0  0  0
  9  4  1  0  0  0
 28 24  1  0  0  0
 18 21  1  0  0  0
 18 22  1  0  0  0
M  END
> <minimizedAffinity>
44.13148

> <CNNscore>
0.3235966563

> <CNNaffinity>
5.8338332176

> <CNN_VS>
1.8878089190

> <CNNaffinity_variance>
1.3849732876

$$$$
[H]OC(=O)[C@@]1(N([H])[H])[C@]([H])(OC([H])([H])c2c([H])c([H])c([H])c([H])c2C(F)(F)F)C([H])([H])[C@@]2([H])[C@](F)(C(=O)O[H])[C@@]12[H]


 30 32  0  0  0  0  0  0  0  0999 V2000
   24.3621    9.2010   53.6694 N   0  0  0  0  0  0  0  0  0  0  0  0
   23.0422    8.6146   54.0994 C   0  0  0  0  0  0  0  0  0  0  0  0
   22.3860    8.2254   52.8322 C   0  0  0  0  0  0  0  0  0  0  0  0
   22.1084    6.7644   52.8696 C   0  0  0  0  0  0  0  0  0  0  0  0
   22.5520    6.2492   54.2102 C   0  0  0  0  0  0  0  0  0  0  0  0
   23.3317    7.3477   54.8852 C   0  0  0  0  0  0  0  0  0  0  0  0
   20.9889    7.7467   52.7965 C   0  0  0  0  0  0  0  0  0  0  0  0
   20.0914    7.8413   53.8067 F   0  0  0  0  0  0  0  0  0  0  0  0
   24.8003    9.5455   54.5464 H   0  0  0  0  0  0  0  0  0  0  0  0
   24.0868    9.9827   53.0373 H   0  0  0  0  0  0  0  0  0  0  0  0
   20.3623    7.8414   51.4311 C   0  0  0  0  0  0  0  0  0  0  0  0
   19.0059    8.0163   51.2347 O   0  0  0  0  0  0  0  0  0  0  0  0
   21.1109    7.7571   50.4386 O   0  0  0  0  0  0  0  0  0  0  0  0
   18.5442    8.8180   51.6655 H   0  0  0  0  0  0  0  0  0  0  0  0
   22.4145    9.6368   54.9145 C   0  0  0  0  0  0  0  0  0  0  0  0
   21.4523   10.5074   54.4619 O   0  0  0  0  0  0  0  0  0  0  0  0
   22.7438    9.7707   56.1371 O   0  0  0  0  0  0  0  0  0  0  0  0
   20.8522   11.0526   55.0524 H   0  0  0  0  0  0  0  0  0  0  0  0
   24.6895    7.1316   54.8529 O   0  0  0  0  0  0  0  0  0  0  0  0
   25.4321    8.1803   54.3098 C   0  0  0  0  0  0  0  0  0  0  0  0
   26.3291    8.6744   55.3662 C   0  0  0  0  0  0  0  0  0  0  0  0
   25.8495    9.0118   56.6135 C   0  0  0  0  0  0  0  0  0  0  0  0
   26.6573    9.4807   57.6169 C   0  0  0  0  0  0  0  0  0  0  0  0
   27.9910    9.6299   57.4021 C   0  0  0  0  0  0  0  0  0  0  0  0
   28.5072    9.2976   56.1529 C   0  0  0  0  0  0  0  0  0  0  0  0
   27.6689    8.8181   55.1335 C   0  0  0  0  0  0  0  0  0  0  0  0
   28.2054    8.4611   53.8016 C   0  0  0  0  0  0  0  0  0  0  0  0
   29.3754    9.2256   53.6244 F   0  0  0  0  0  0  0  0  0  0  0  0
   28.6174    7.1576   53.7003 F   0  0  0  0  0  0  0  0  0  0  0  0
   27.3831    8.8529   52.7588 F   0  0  0  0  0  0  0  0  0  0  0  0
  1  2  1  0  0  0
  2  3  1  0  0  0
  3  4  1  0  0  0
  4  5  1  0  0  0
  5  6  1  0  0  0
  6 19  1  0  0  0
 19 20  1  0  0  0
 20 21  1  0  0  0
 21 22  2  0  0  0
 22 23  1  0  0  0
 23 24  2  0  0  0
 24 25  1  0  0  0
 25 26  2  0  0  0
 26 27  1  0  0  0
 27 28  1  0  0  0
 27 29  1  0  0  0
 27 30  1  0  0  0
  4  7  1  0  0  0
  7  8  1  0  0  0
  7 11  1  0  0  0
 11 12  1  0  0  0
 11 13  2  0  0  0
  2 15  1  0  0  0
 15 16  1  0  0  0
 15 17  2  0  0  0
  6  2  1  0  0  0
 26 21  1  0  0  0
  7  3  1  0  0  0
  1  9  1  0  0  0
  1 10  1  0  0  0
 12 14  1  0  0  0
 16 18  1  0  0  0
M  END
> <minimizedAffinity>
5.99688

> <CNNscore>
0.6037842035

> <CNNaffinity>
5.8855066299

> <CNN_VS>
3.5535759926

> <CNNaffinity_variance>
0.2797816396

$$$$
[H]OC(=O)[C@@]1(N([H])[H])[C@]([H])(OC([H])([H])c2c([H])c([H])c([H])c([H])c2C(F)(F)F)C([H])([H])[C@@]2([H])[C@](F)(C(=O)O[H])[C@@]12[H]


 30 32  0  0  0  0  0  0  0  0999 V2000
   23.8184    8.6303   52.6659 N   0  0  0  0  0  0  0  0  0  0  0  0
   22.4214    8.6453   53.2312 C   0  0  0  0  0  0  0  0  0  0  0  0
   22.0840    7.2160   53.4074 C   0  0  0  0  0  0  0  0  0  0  0  0
   21.7749    6.9738   54.8422 C   0  0  0  0  0  0  0  0  0  0  0  0
   21.8692    8.2918   55.5587 C   0  0  0  0  0  0  0  0  0  0  0  0
   22.4849    9.2846   54.6073 C   0  0  0  0  0  0  0  0  0  0  0  0
   20.7275    6.7810   53.7985 C   0  0  0  0  0  0  0  0  0  0  0  0
   19.6140    7.5524   53.7924 F   0  0  0  0  0  0  0  0  0  0  0  0
   24.0379    9.6267   52.4688 H   0  0  0  0  0  0  0  0  0  0  0  0
   23.7211    8.0715   51.7915 H   0  0  0  0  0  0  0  0  0  0  0  0
   20.4528    5.3347   53.4844 C   0  0  0  0  0  0  0  0  0  0  0  0
   19.1768    4.8185   53.3645 O   0  0  0  0  0  0  0  0  0  0  0  0
   21.4290    4.5765   53.3268 O   0  0  0  0  0  0  0  0  0  0  0  0
   18.5349    5.2405   52.6928 H   0  0  0  0  0  0  0  0  0  0  0  0
   21.6365    9.4281   52.2960 C   0  0  0  0  0  0  0  0  0  0  0  0
   20.9920    8.9086   51.1991 O   0  0  0  0  0  0  0  0  0  0  0  0
   21.5062   10.6833   52.4651 O   0  0  0  0  0  0  0  0  0  0  0  0
   20.2707    9.3788   50.6846 H   0  0  0  0  0  0  0  0  0  0  0  0
   23.8052    9.5439   54.8920 O   0  0  0  0  0  0  0  0  0  0  0  0
   24.5945    8.4081   55.0734 C   0  0  0  0  0  0  0  0  0  0  0  0
   25.8867    8.8551   55.6165 C   0  0  0  0  0  0  0  0  0  0  0  0
   25.9702    9.4871   56.8385 C   0  0  0  0  0  0  0  0  0  0  0  0
   27.1571    9.9211   57.3696 C   0  0  0  0  0  0  0  0  0  0  0  0
   28.3165    9.7347   56.6852 C   0  0  0  0  0  0  0  0  0  0  0  0
   28.2665    9.0993   55.4478 C   0  0  0  0  0  0  0  0  0  0  0  0
   27.0440    8.6592   54.9151 C   0  0  0  0  0  0  0  0  0  0  0  0
   26.9776    7.9823   53.6010 C   0  0  0  0  0  0  0  0  0  0  0  0
   28.1622    7.2294   53.4794 F   0  0  0  0  0  0  0  0  0  0  0  0
   25.9646    7.0642   53.5002 F   0  0  0  0  0  0  0  0  0  0  0  0
   27.0225    8.8605   52.5316 F   0  0  0  0  0  0  0  0  0  0  0  0
  1  2  1  0  0  0
  2  3  1  0  0  0
  3  4  1  0  0  0
  4  5  1  0  0  0
  5  6  1  0  0  0
  6 19  1  0  0  0
 19 20  1  0  0  0
 20 21  1  0  0  0
 21 22  2  0  0  0
 22 23  1  0  0  0
 23 24  2  0  0  0
 24 25  1  0  0  0
 25 26  2  0  0  0
 26 27  1  0  0  0
 27 28  1  0  0  0
 27 29  1  0  0  0
 27 30  1  0  0  0
  4  7  1  0  0  0
  7  8  1  0  0  0
  7 11  1  0  0  0
 11 12  1  0  0  0
 11 13  2  0  0  0
  2 15  1  0  0  0
 15 16  1  0  0  0
 15 17  2  0  0  0
  6  2  1  0  0  0
 26 21  1  0  0  0
  7  3  1  0  0  0
  1  9  1  0  0  0
  1 10  1  0  0  0
 12 14  1  0  0  0
 16 18  1  0  0  0
M  END
> <minimizedAffinity>
7.27201

> <CNNscore>
0.5778368115

> <CNNaffinity>
6.0493097305

> <CNN_VS>
3.4955139160

> <CNNaffinity_variance>
0.3102720380

$$$$
[H]OC(=O)[C@@]1(N([H])[H])[C@]([H])(OC([H])([H])c2c([H])c([H])c([H])c([H])c2C(F)(F)F)C([H])([H])[C@@]2([H])[C@](F)(C(=O)O[H])[C@@]12[H]


 30 32  0  0  0  0  0  0  0  0999 V2000
   22.6190    6.4842   52.3192 N   0  0  0  0  0  0  0  0  0  0  0  0
   22.5835    7.5364   53.3976 C   0  0  0  0  0  0  0  0  0  0  0  0
   21.9244    8.6944   52.7556 C   0  0  0  0  0  0  0  0  0  0  0  0
   20.7018    9.0360   53.5313 C   0  0  0  0  0  0  0  0  0  0  0  0
   20.6333    8.1049   54.7093 C   0  0  0  0  0  0  0  0  0  0  0  0
   21.6739    7.0345   54.5053 C   0  0  0  0  0  0  0  0  0  0  0  0
   21.8300   10.0058   53.4292 C   0  0  0  0  0  0  0  0  0  0  0  0
   22.5154   10.3808   54.5359 F   0  0  0  0  0  0  0  0  0  0  0  0
   23.1463    5.6917   52.7360 H   0  0  0  0  0  0  0  0  0  0  0  0
   23.1492    6.9436   51.5484 H   0  0  0  0  0  0  0  0  0  0  0  0
   21.5591   11.1434   52.4814 C   0  0  0  0  0  0  0  0  0  0  0  0
   21.2949   10.9585   51.1378 O   0  0  0  0  0  0  0  0  0  0  0  0
   21.5761   12.3016   52.9403 O   0  0  0  0  0  0  0  0  0  0  0  0
   20.5207   10.3516   50.8661 H   0  0  0  0  0  0  0  0  0  0  0  0
   23.9578    7.6827   53.8376 C   0  0  0  0  0  0  0  0  0  0  0  0
   25.0373    7.7744   52.9921 O   0  0  0  0  0  0  0  0  0  0  0  0
   24.2284    7.7372   55.0805 O   0  0  0  0  0  0  0  0  0  0  0  0
   25.9465    8.1024   53.2602 H   0  0  0  0  0  0  0  0  0  0  0  0
   21.1317    5.8383   54.0972 O   0  0  0  0  0  0  0  0  0  0  0  0
   20.2269    5.9408   53.0404 C   0  0  0  0  0  0  0  0  0  0  0  0
   18.9565    5.3529   53.4933 C   0  0  0  0  0  0  0  0  0  0  0  0
   17.8865    6.1458   53.8487 C   0  0  0  0  0  0  0  0  0  0  0  0
   16.6921    5.6298   54.2804 C   0  0  0  0  0  0  0  0  0  0  0  0
   16.5266    4.2839   54.3722 C   0  0  0  0  0  0  0  0  0  0  0  0
   17.5881    3.4552   54.0203 C   0  0  0  0  0  0  0  0  0  0  0  0
   18.8065    3.9965   53.5794 C   0  0  0  0  0  0  0  0  0  0  0  0
   19.9422    3.1264   53.2021 C   0  0  0  0  0  0  0  0  0  0  0  0
   19.7186    2.7340   51.8677 F   0  0  0  0  0  0  0  0  0  0  0  0
   21.1522    3.7706   53.1821 F   0  0  0  0  0  0  0  0  0  0  0  0
   19.9738    1.9342   53.9055 F   0  0  0  0  0  0  0  0  0  0  0  0
  1  2  1  0  0  0
  2  3  1  0  0  0
  3  4  1  0  0  0
  4  5  1  0  0  0
  5  6  1  0  0  0
  6 19  1  0  0  0
 19 20  1  0  0  0
 20 21  1  0  0  0
 21 22  2  0  0  0
 22 23  1  0  0  0
 23 24  2  0  0  0
 24 25  1  0  0  0
 25 26  2  0  0  0
 26 27  1  0  0  0
 27 28  1  0  0  0
 27 29  1  0  0  0
 27 30  1  0  0  0
  4  7  1  0  0  0
  7  8  1  0  0  0
  7 11  1  0  0  0
 11 12  1  0  0  0
 11 13  2  0  0  0
  2 15  1  0  0  0
 15 16  1  0  0  0
 15 17  2  0  0  0
  6  2  1  0  0  0
 26 21  1  0  0  0
  7  3  1  0  0  0
  1  9  1  0  0  0
  1 10  1  0  0  0
 12 14  1  0  0  0
 16 18  1  0  0  0
M  END
> <minimizedAffinity>
17.03417

> <CNNscore>
0.5736468434

> <CNNaffinity>
6.3073744774

> <CNN_VS>
3.6182055473

> <CNNaffinity_variance>
0.5964235067

$$$$
[H]OC(=O)[C@@]1(N([H])[H])[C@]([H])(OC([H])([H])c2c([H])c([H])c([H])c([H])c2C(F)(F)F)C([H])([H])[C@@]2([H])[C@](F)(C(=O)O[H])[C@@]12[H]


 30 32  0  0  0  0  0  0  0  0999 V2000
   23.3625   10.4213   53.4721 N   0  0  0  0  0  0  0  0  0  0  0  0
   22.1668    9.9103   54.2339 C   0  0  0  0  0  0  0  0  0  0  0  0
   21.8139    8.6456   53.5529 C   0  0  0  0  0  0  0  0  0  0  0  0
   21.8818    7.5374   54.5429 C   0  0  0  0  0  0  0  0  0  0  0  0
   22.2300    8.1369   55.8766 C   0  0  0  0  0  0  0  0  0  0  0  0
   22.6240    9.5722   55.6421 C   0  0  0  0  0  0  0  0  0  0  0  0
   20.5877    7.8958   53.8945 C   0  0  0  0  0  0  0  0  0  0  0  0
   19.5537    8.3608   54.6359 F   0  0  0  0  0  0  0  0  0  0  0  0
   23.5739   11.3466   53.8953 H   0  0  0  0  0  0  0  0  0  0  0  0
   23.0092   10.5101   52.4956 H   0  0  0  0  0  0  0  0  0  0  0  0
   20.1651    6.9267   52.8230 C   0  0  0  0  0  0  0  0  0  0  0  0
   19.8252    5.6135   53.0858 O   0  0  0  0  0  0  0  0  0  0  0  0
   20.1230    7.3384   51.6477 O   0  0  0  0  0  0  0  0  0  0  0  0
   19.0840    5.4212   53.7604 H   0  0  0  0  0  0  0  0  0  0  0  0
   21.2049   10.9956   54.2129 C   0  0  0  0  0  0  0  0  0  0  0  0
   20.3962   11.3359   55.2707 O   0  0  0  0  0  0  0  0  0  0  0  0
   21.0691   11.7089   53.1671 O   0  0  0  0  0  0  0  0  0  0  0  0
   19.9044   12.2058   55.3569 H   0  0  0  0  0  0  0  0  0  0  0  0
   23.9843    9.7657   55.7024 O   0  0  0  0  0  0  0  0  0  0  0  0
   24.7023    8.6876   56.2202 C   0  0  0  0  0  0  0  0  0  0  0  0
   26.0428    8.7233   55.6152 C   0  0  0  0  0  0  0  0  0  0  0  0
   27.0918    9.3677   56.2351 C   0  0  0  0  0  0  0  0  0  0  0  0
   28.3506    9.4246   55.6952 C   0  0  0  0  0  0  0  0  0  0  0  0
   28.6049    8.8302   54.4997 C   0  0  0  0  0  0  0  0  0  0  0  0
   27.5669    8.1707   53.8478 C   0  0  0  0  0  0  0  0  0  0  0  0
   26.2819    8.1195   54.4118 C   0  0  0  0  0  0  0  0  0  0  0  0
   25.1702    7.4214   53.7290 C   0  0  0  0  0  0  0  0  0  0  0  0
   25.7601    6.4511   52.8952 F   0  0  0  0  0  0  0  0  0  0  0  0
   24.3573    6.7122   54.5749 F   0  0  0  0  0  0  0  0  0  0  0  0
   24.4675    8.2358   52.8572 F   0  0  0  0  0  0  0  0  0  0  0  0
  1  2  1  0  0  0
  2  3  1  0  0  0
  3  4  1  0  0  0
  4  5  1  0  0  0
  5  6  1  0  0  0
  6 19  1  0  0  0
 19 20  1  0  0  0
 20 21  1  0  0  0
 21 22  2  0  0  0
 22 23  1  0  0  0
 23 24  2  0  0  0
 24 25  1  0  0  0
 25 26  2  0  0  0
 26 27  1  0  0  0
 27 28  1  0  0  0
 27 29  1  0  0  0
 27 30  1  0  0  0
  4  7  1  0  0  0
  7  8  1  0  0  0
  7 11  1  0  0  0
 11 12  1  0  0  0
 11 13  2  0  0  0
  2 15  1  0  0  0
 15 16  1  0  0  0
 15 17  2  0  0  0
  6  2  1  0  0  0
 26 21  1  0  0  0
  7  3  1  0  0  0
  1  9  1  0  0  0
  1 10  1  0  0  0
 12 14  1  0  0  0
 16 18  1  0  0  0
M  END
> <minimizedAffinity>
10.17525

> <CNNscore>
0.5664877295

> <CNNaffinity>
6.0566377640

> <CNN_VS>
3.4310109615

> <CNNaffinity_variance>
0.3268083036

$$$$
[H]OC(=O)[C@@]1(N([H])[H])[C@]([H])(OC([H])([H])c2c([H])c([H])c([H])c([H])c2C(F)(F)F)C([H])([H])[C@@]2([H])[C@](F)(C(=O)O[H])[C@@]12[H]


 30 32  0  0  0  0  0  0  0  0999 V2000
   22.2163    7.6814   55.6813 N   0  0  0  0  0  0  0  0  0  0  0  0
   22.2380    7.6435   54.1749 C   0  0  0  0  0  0  0  0  0  0  0  0
   22.1332    9.0630   53.7728 C   0  0  0  0  0  0  0  0  0  0  0  0
   23.3270    9.4161   52.9585 C   0  0  0  0  0  0  0  0  0  0  0  0
   24.1602    8.1742   52.8071 C   0  0  0  0  0  0  0  0  0  0  0  0
   23.6020    7.1340   53.7434 C   0  0  0  0  0  0  0  0  0  0  0  0
   21.9618    9.4593   52.3600 C   0  0  0  0  0  0  0  0  0  0  0  0
   21.6336    8.6328   51.3381 F   0  0  0  0  0  0  0  0  0  0  0  0
   22.2148    6.6843   55.9740 H   0  0  0  0  0  0  0  0  0  0  0  0
   21.3134    8.1538   55.8998 H   0  0  0  0  0  0  0  0  0  0  0  0
   21.4233   10.8552   52.1947 C   0  0  0  0  0  0  0  0  0  0  0  0
   21.1885   11.4314   50.9611 O   0  0  0  0  0  0  0  0  0  0  0  0
   21.1813   11.5128   53.2250 O   0  0  0  0  0  0  0  0  0  0  0  0
   20.5701   10.9551   50.3037 H   0  0  0  0  0  0  0  0  0  0  0  0
   21.1681    6.7399   53.7975 C   0  0  0  0  0  0  0  0  0  0  0  0
   21.3090    5.3781   53.6779 O   0  0  0  0  0  0  0  0  0  0  0  0
   20.0039    7.1943   53.5544 O   0  0  0  0  0  0  0  0  0  0  0  0
   20.5477    4.7257   53.6476 H   0  0  0  0  0  0  0  0  0  0  0  0
   24.3689    6.9712   54.8735 O   0  0  0  0  0  0  0  0  0  0  0  0
   24.9458    8.1450   55.3585 C   0  0  0  0  0  0  0  0  0  0  0  0
   26.3601    8.1376   54.9533 C   0  0  0  0  0  0  0  0  0  0  0  0
   26.7863    7.4260   53.8524 C   0  0  0  0  0  0  0  0  0  0  0  0
   28.0970    7.3934   53.4522 C   0  0  0  0  0  0  0  0  0  0  0  0
   29.0382    8.0815   54.1507 C   0  0  0  0  0  0  0  0  0  0  0  0
   28.6404    8.8105   55.2676 C   0  0  0  0  0  0  0  0  0  0  0  0
   27.2944    8.8359   55.6669 C   0  0  0  0  0  0  0  0  0  0  0  0
   26.8587    9.6072   56.8521 C   0  0  0  0  0  0  0  0  0  0  0  0
   25.5298   10.0038   56.6040 F   0  0  0  0  0  0  0  0  0  0  0  0
   26.7964    8.8667   58.0040 F   0  0  0  0  0  0  0  0  0  0  0  0
   27.5447   10.7995   57.0099 F   0  0  0  0  0  0  0  0  0  0  0  0
  1  2  1  0  0  0
  2  3  1  0  0  0
  3  4  1  0  0  0
  4  5  1  0  0  0
  5  6  1  0  0  0
  6 19  1  0  0  0
 19 20  1  0  0  0
 20 21  1  0  0  0
 21 22  2  0  0  0
 22 23  1  0  0  0
 23 24  2  0  0  0
 24 25  1  0  0  0
 25 26  2  0  0  0
 26 27  1  0  0  0
 27 28  1  0  0  0
 27 29  1  0  0  0
 27 30  1  0  0  0
  4  7  1  0  0  0
  7  8  1  0  0  0
  7 11  1  0  0  0
 11 12  1  0  0  0
 11 13  2  0  0  0
  2 15  1  0  0  0
 15 16  1  0  0  0
 15 17  2  0  0  0
  6  2  1  0  0  0
 26 21  1  0  0  0
  7  3  1  0  0  0
  1  9  1  0  0  0
  1 10  1  0  0  0
 12 14  1  0  0  0
 16 18  1  0  0  0
M  END
> <minimizedAffinity>
8.12736

> <CNNscore>
0.5520265698

> <CNNaffinity>
5.7950973511

> <CNN_VS>
3.1990478039

> <CNNaffinity_variance>
0.1546422541

$$$$
[H]OC(=O)[C@@]1(N([H])[H])[C@]([H])(OC([H])([H])c2c([H])c([H])c([H])c([H])c2C(F)(F)F)C([H])([H])[C@@]2([H])[C@](F)(C(=O)O[H])[C@@]12[H]


 30 32  0  0  0  0  0  0  0  0999 V2000
   23.8471    8.8045   52.8096 N   0  0  0  0  0  0  0  0  0  0  0  0
   22.6852    8.6894   53.7624 C   0  0  0  0  0  0  0  0  0  0  0  0
   21.8821    7.5699   53.2245 C   0  0  0  0  0  0  0  0  0  0  0  0
   21.7764    6.5156   54.2687 C   0  0  0  0  0  0  0  0  0  0  0  0
   22.4821    7.0173   55.4974 C   0  0  0  0  0  0  0  0  0  0  0  0
   23.2339    8.2653   55.1136 C   0  0  0  0  0  0  0  0  0  0  0  0
   20.5584    7.2255   53.7827 C   0  0  0  0  0  0  0  0  0  0  0  0
   19.8286    7.9937   54.6267 F   0  0  0  0  0  0  0  0  0  0  0  0
   24.3790    9.6357   53.1355 H   0  0  0  0  0  0  0  0  0  0  0  0
   23.3902    8.9703   51.8876 H   0  0  0  0  0  0  0  0  0  0  0  0
   19.7154    6.3993   52.8485 C   0  0  0  0  0  0  0  0  0  0  0  0
   19.2821    5.1233   53.1533 O   0  0  0  0  0  0  0  0  0  0  0  0
   19.3992    6.8993   51.7518 O   0  0  0  0  0  0  0  0  0  0  0  0
   18.7441    4.9758   54.0079 H   0  0  0  0  0  0  0  0  0  0  0  0
   22.0871   10.0100   53.8010 C   0  0  0  0  0  0  0  0  0  0  0  0
   21.6031   10.6748   52.6999 O   0  0  0  0  0  0  0  0  0  0  0  0
   21.9800   10.6309   54.9074 O   0  0  0  0  0  0  0  0  0  0  0  0
   20.9899   11.4677   52.7353 H   0  0  0  0  0  0  0  0  0  0  0  0
   24.5846    8.0485   54.9718 O   0  0  0  0  0  0  0  0  0  0  0  0
   25.3942    8.9908   55.6064 C   0  0  0  0  0  0  0  0  0  0  0  0
   26.7745    8.7580   55.1535 C   0  0  0  0  0  0  0  0  0  0  0  0
   27.0449    8.3214   53.8744 C   0  0  0  0  0  0  0  0  0  0  0  0
   28.3185    8.0891   53.4236 C   0  0  0  0  0  0  0  0  0  0  0  0
   29.3789    8.2887   54.2499 C   0  0  0  0  0  0  0  0  0  0  0  0
   29.1398    8.7298   55.5482 C   0  0  0  0  0  0  0  0  0  0  0  0
   27.8303    8.9642   55.9976 C   0  0  0  0  0  0  0  0  0  0  0  0
   27.5630    9.4334   57.3752 C   0  0  0  0  0  0  0  0  0  0  0  0
   27.9227   10.7951   57.4101 F   0  0  0  0  0  0  0  0  0  0  0  0
   26.2369    9.4102   57.7219 F   0  0  0  0  0  0  0  0  0  0  0  0
   28.3818    8.8419   58.3220 F   0  0  0  0  0  0  0  0  0  0  0  0
  1  2  1  0  0  0
  2  3  1  0  0  0
  3  4  1  0  0  0
  4  5  1  0  0  0
  5  6  1  0  0  0
  6 19  1  0  0  0
 19 20  1  0  0  0
 20 21  1  0  0  0
 21 22  2  0  0  0
 22 23  1  0  0  0
 23 24  2  0  0  0
 24 25  1  0  0  0
 25 26  2  0  0  0
 26 27  1  0  0  0
 27 28  1  0  0  0
 27 29  1  0  0  0
 27 30  1  0  0  0
  4  7  1  0  0  0
  7  8  1  0  0  0
  7 11  1  0  0  0
 11 12  1  0  0  0
 11 13  2  0  0  0
  2 15  1  0  0  0
 15 16  1  0  0  0
 15 17  2  0  0  0
  6  2  1  0  0  0
 26 21  1  0  0  0
  7  3  1  0  0  0
  1  9  1  0  0  0
  1 10  1  0  0  0
 12 14  1  0  0  0
 16 18  1  0  0  0
M  END
> <minimizedAffinity>
8.96879

> <CNNscore>
0.5509688854

> <CNNaffinity>
5.7333369255

> <CNN_VS>
3.1588902473

> <CNNaffinity_variance>
0.2034748793

$$$$
[H]OC(=O)[C@@]1(N([H])[H])[C@]([H])(OC([H])([H])c2c([H])c([H])c([H])c([H])c2C(F)(F)F)C([H])([H])[C@@]2([H])[C@](F)(C(=O)O[H])[C@@]12[H]


 30 32  0  0  0  0  0  0  0  0999 V2000
   22.1301    9.1181   56.0249 N   0  0  0  0  0  0  0  0  0  0  0  0
   22.5923    8.0603   55.0560 C   0  0  0  0  0  0  0  0  0  0  0  0
   21.7936    8.3091   53.8362 C   0  0  0  0  0  0  0  0  0  0  0  0
   22.7227    8.5787   52.7061 C   0  0  0  0  0  0  0  0  0  0  0  0
   24.1263    8.4391   53.2255 C   0  0  0  0  0  0  0  0  0  0  0  0
   24.0487    8.3376   54.7268 C   0  0  0  0  0  0  0  0  0  0  0  0
   21.8283    7.3857   52.6836 C   0  0  0  0  0  0  0  0  0  0  0  0
   22.3506    6.1358   52.6835 F   0  0  0  0  0  0  0  0  0  0  0  0
   22.6312    8.9070   56.9105 H   0  0  0  0  0  0  0  0  0  0  0  0
   21.1057    8.9439   56.1049 H   0  0  0  0  0  0  0  0  0  0  0  0
   20.6474    7.5388   51.7629 C   0  0  0  0  0  0  0  0  0  0  0  0
   20.7657    7.9355   50.4447 O   0  0  0  0  0  0  0  0  0  0  0  0
   19.5149    7.2937   52.2210 O   0  0  0  0  0  0  0  0  0  0  0  0
   21.3716    7.4011   49.8211 H   0  0  0  0  0  0  0  0  0  0  0  0
   22.4151    6.7992   55.7500 C   0  0  0  0  0  0  0  0  0  0  0  0
   21.5222    6.5966   56.7748 O   0  0  0  0  0  0  0  0  0  0  0  0
   23.1097    5.7848   55.4192 O   0  0  0  0  0  0  0  0  0  0  0  0
   21.2244    5.6969   57.1033 H   0  0  0  0  0  0  0  0  0  0  0  0
   24.4092    9.5057   55.3569 O   0  0  0  0  0  0  0  0  0  0  0  0
   25.4132    9.3634   56.3149 C   0  0  0  0  0  0  0  0  0  0  0  0
   26.6373    8.9546   55.6086 C   0  0  0  0  0  0  0  0  0  0  0  0
   26.6020    8.5412   54.2942 C   0  0  0  0  0  0  0  0  0  0  0  0
   27.7230    8.1483   53.6098 C   0  0  0  0  0  0  0  0  0  0  0  0
   28.9338    8.1560   54.2272 C   0  0  0  0  0  0  0  0  0  0  0  0
   29.0037    8.5685   55.5547 C   0  0  0  0  0  0  0  0  0  0  0  0
   27.8479    8.9687   56.2444 C   0  0  0  0  0  0  0  0  0  0  0  0
   27.9090    9.4096   57.6555 C   0  0  0  0  0  0  0  0  0  0  0  0
   28.9918    8.7246   58.2414 F   0  0  0  0  0  0  0  0  0  0  0  0
   28.2079   10.7386   57.8094 F   0  0  0  0  0  0  0  0  0  0  0  0
   26.8121    9.0104   58.4003 F   0  0  0  0  0  0  0  0  0  0  0  0
  1  2  1  0  0  0
  2  3  1  0  0  0
  3  4  1  0  0  0
  4  5  1  0  0  0
  5  6  1  0  0  0
  6 19  1  0  0  0
 19 20  1  0  0  0
 20 21  1  0  0  0
 21 22  2  0  0  0
 22 23  1  0  0  0
 23 24  2  0  0  0
 24 25  1  0  0  0
 25 26  2  0  0  0
 26 27  1  0  0  0
 27 28  1  0  0  0
 27 29  1  0  0  0
 27 30  1  0  0  0
  4  7  1  0  0  0
  7  8  1  0  0  0
  7 11  1  0  0  0
 11 12  1  0  0  0
 11 13  2  0  0  0
  2 15  1  0  0  0
 15 16  1  0  0  0
 15 17  2  0  0  0
  6  2  1  0  0  0
 26 21  1  0  0  0
  7  3  1  0  0  0
  1  9  1  0  0  0
  1 10  1  0  0  0
 12 14  1  0  0  0
 16 18  1  0  0  0
M  END
> <minimizedAffinity>
2.98997

> <CNNscore>
0.5412317514

> <CNNaffinity>
5.9062833786

> <CNN_VS>
3.1966681480

> <CNNaffinity_variance>
0.1607399732

$$$$
[H]OC(=O)[C@@]1(N([H])[H])[C@]([H])(OC([H])([H])c2c([H])c([H])c([H])c([H])c2C(F)(F)F)C([H])([H])[C@@]2([H])[C@](F)(C(=O)O[H])[C@@]12[H]


 30 32  0  0  0  0  0  0  0  0999 V2000
   27.5997    9.3349   53.1269 N   0  0  0  0  0  0  0  0  0  0  0  0
   27.4093    8.6843   54.4729 C   0  0  0  0  0  0  0  0  0  0  0  0
   27.4702    9.8079   55.4329 C   0  0  0  0  0  0  0  0  0  0  0  0
   26.1931    9.8525   56.1944 C   0  0  0  0  0  0  0  0  0  0  0  0
   25.3465    8.6987   55.7347 C   0  0  0  0  0  0  0  0  0  0  0  0
   26.0048    8.1081   54.5149 C   0  0  0  0  0  0  0  0  0  0  0  0
   27.4826    9.5821   56.8927 C   0  0  0  0  0  0  0  0  0  0  0  0
   27.6932    8.3950   57.5105 F   0  0  0  0  0  0  0  0  0  0  0  0
   27.6327    8.5463   52.4509 H   0  0  0  0  0  0  0  0  0  0  0  0
   28.5221    9.8120   53.2156 H   0  0  0  0  0  0  0  0  0  0  0  0
   28.0010   10.7606   57.6727 C   0  0  0  0  0  0  0  0  0  0  0  0
   27.5680   12.0552   57.4591 O   0  0  0  0  0  0  0  0  0  0  0  0
   28.8602   10.5474   58.5495 O   0  0  0  0  0  0  0  0  0  0  0  0
   26.5705   12.2595   57.5274 H   0  0  0  0  0  0  0  0  0  0  0  0
   28.4289    7.6558   54.5507 C   0  0  0  0  0  0  0  0  0  0  0  0
   28.4609    6.5338   53.7579 O   0  0  0  0  0  0  0  0  0  0  0  0
   29.3782    7.7595   55.3928 O   0  0  0  0  0  0  0  0  0  0  0  0
   29.2623    5.9429   53.6365 H   0  0  0  0  0  0  0  0  0  0  0  0
   25.3693    8.4589   53.3467 O   0  0  0  0  0  0  0  0  0  0  0  0
   24.2900    7.6438   53.0049 C   0  0  0  0  0  0  0  0  0  0  0  0
   23.0759    8.2766   53.5435 C   0  0  0  0  0  0  0  0  0  0  0  0
   22.7536    9.5820   53.2407 C   0  0  0  0  0  0  0  0  0  0  0  0
   21.6338   10.2025   53.7309 C   0  0  0  0  0  0  0  0  0  0  0  0
   20.7873    9.5273   54.5524 C   0  0  0  0  0  0  0  0  0  0  0  0
   21.0841    8.2069   54.8775 C   0  0  0  0  0  0  0  0  0  0  0  0
   22.2344    7.5828   54.3684 C   0  0  0  0  0  0  0  0  0  0  0  0
   22.5608    6.1797   54.7062 C   0  0  0  0  0  0  0  0  0  0  0  0
   22.0330    5.9451   55.9912 F   0  0  0  0  0  0  0  0  0  0  0  0
   21.9466    5.2573   53.8991 F   0  0  0  0  0  0  0  0  0  0  0  0
   23.9192    5.9548   54.8512 F   0  0  0  0  0  0  0  0  0  0  0  0
  1  2  1  0  0  0
  2  3  1  0  0  0
  3  4  1  0  0  0
  4  5  1  0  0  0
  5  6  1  0  0  0
  6 19  1  0  0  0
 19 20  1  0  0  0
 20 21  1  0  0  0
 21 22  2  0  0  0
 22 23  1  0  0  0
 23 24  2  0  0  0
 24 25  1  0  0  0
 25 26  2  0  0  0
 26 27  1  0  0  0
 27 28  1  0  0  0
 27 29  1  0  0  0
 27 30  1  0  0  0
  4  7  1  0  0  0
  7  8  1  0  0  0
  7 11  1  0  0  0
 11 12  1  0  0  0
 11 13  2  0  0  0
  2 15  1  0  0  0
 15 16  1  0  0  0
 15 17  2  0  0  0
  6  2  1  0  0  0
 26 21  1  0  0  0
  7  3  1  0  0  0
  1  9  1  0  0  0
  1 10  1  0  0  0
 12 14  1  0  0  0
 16 18  1  0  0  0
M  END
> <minimizedAffinity>
6.44831

> <CNNscore>
0.5266632438

> <CNNaffinity>
5.5929527283

> <CNN_VS>
2.9456026554

> <CNNaffinity_variance>
0.2976122499

$$$$
[H]OC(=O)[C@@]1(N([H])[H])[C@]([H])(OC([H])([H])c2c([H])c([H])c([H])c([H])c2C(F)(F)F)C([H])([H])[C@@]2([H])[C@](F)(C(=O)O[H])[C@@]12[H]


 30 32  0  0  0  0  0  0  0  0999 V2000
   22.0760   11.0569   55.9457 N   0  0  0  0  0  0  0  0  0  0  0  0
   21.6991   10.1504   54.8023 C   0  0  0  0  0  0  0  0  0  0  0  0
   21.8381   11.0018   53.6009 C   0  0  0  0  0  0  0  0  0  0  0  0
   22.8304   10.3756   52.6865 C   0  0  0  0  0  0  0  0  0  0  0  0
   23.2732    9.0816   53.3100 C   0  0  0  0  0  0  0  0  0  0  0  0
   22.7424    9.0499   54.7197 C   0  0  0  0  0  0  0  0  0  0  0  0
   21.4089   10.5371   52.2660 C   0  0  0  0  0  0  0  0  0  0  0  0
   20.6400    9.4508   52.0131 F   0  0  0  0  0  0  0  0  0  0  0  0
   21.9108   10.4910   56.8015 H   0  0  0  0  0  0  0  0  0  0  0  0
   21.4006   11.8464   55.8633 H   0  0  0  0  0  0  0  0  0  0  0  0
   21.1973   11.6590   51.2850 C   0  0  0  0  0  0  0  0  0  0  0  0
   20.6443   11.4712   50.0328 O   0  0  0  0  0  0  0  0  0  0  0  0
   21.5402   12.8066   51.6285 O   0  0  0  0  0  0  0  0  0  0  0  0
   19.7244   11.0352   49.9600 H   0  0  0  0  0  0  0  0  0  0  0  0
   20.3837    9.6382   55.1351 C   0  0  0  0  0  0  0  0  0  0  0  0
   19.5030   10.2581   55.9889 O   0  0  0  0  0  0  0  0  0  0  0  0
   19.9748    8.5464   54.6234 O   0  0  0  0  0  0  0  0  0  0  0  0
   18.5239   10.0490   56.0501 H   0  0  0  0  0  0  0  0  0  0  0  0
   23.7121    9.3160   55.6580 O   0  0  0  0  0  0  0  0  0  0  0  0
   24.5489    8.2387   55.9505 C   0  0  0  0  0  0  0  0  0  0  0  0
   24.4074    7.2650   54.8567 C   0  0  0  0  0  0  0  0  0  0  0  0
   23.3042    6.4437   54.7667 C   0  0  0  0  0  0  0  0  0  0  0  0
   23.1452    5.5223   53.7642 C   0  0  0  0  0  0  0  0  0  0  0  0
   24.0989    5.3903   52.8049 C   0  0  0  0  0  0  0  0  0  0  0  0
   25.2255    6.2052   52.8670 C   0  0  0  0  0  0  0  0  0  0  0  0
   25.3762    7.1453   53.8991 C   0  0  0  0  0  0  0  0  0  0  0  0
   26.5689    8.0176   53.9760 C   0  0  0  0  0  0  0  0  0  0  0  0
   26.5956    8.7639   52.7814 F   0  0  0  0  0  0  0  0  0  0  0  0
   26.5081    8.9541   54.9753 F   0  0  0  0  0  0  0  0  0  0  0  0
   27.7615    7.3143   53.9633 F   0  0  0  0  0  0  0  0  0  0  0  0
  1  2  1  0  0  0
  2  3  1  0  0  0
  3  4  1  0  0  0
  4  5  1  0  0  0
  5  6  1  0  0  0
  6 19  1  0  0  0
 19 20  1  0  0  0
 20 21  1  0  0  0
 21 22  2  0  0  0
 22 23  1  0  0  0
 23 24  2  0  0  0
 24 25  1  0  0  0
 25 26  2  0  0  0
 26 27  1  0  0  0
 27 28  1  0  0  0
 27 29  1  0  0  0
 27 30  1  0  0  0
  4  7  1  0  0  0
  7  8  1  0  0  0
  7 11  1  0  0  0
 11 12  1  0  0  0
 11 13  2  0  0  0
  2 15  1  0  0  0
 15 16  1  0  0  0
 15 17  2  0  0  0
  6  2  1  0  0  0
 26 21  1  0  0  0
  7  3  1  0  0  0
  1  9  1  0  0  0
  1 10  1  0  0  0
 12 14  1  0  0  0
 16 18  1  0  0  0
M  END
> <minimizedAffinity>
16.20697

> <CNNscore>
0.5185874104

> <CNNaffinity>
6.0171127319

> <CNN_VS>
3.1203989983

> <CNNaffinity_variance>
0.5590448380

$$$$
[H]c1nc2nc([H])n(C([H])([H])c3c([H])c([H])c4c(-c5c([H])c([H])c(F)c([H])c5Cl)c([H])c(C(=O)N([H])[H])nc4c3[H])c2c([H])c1[H]


 33 37  0  0  0  0  0  0  0  0999 V2000
   21.3025    6.2736   53.4419 C   0  0  0  0  0  0  0  0  0  0  0  0
   21.0273    7.5521   53.0029 C   0  0  0  0  0  0  0  0  0  0  0  0
   21.9865    8.5710   53.0042 C   0  0  0  0  0  0  0  0  0  0  0  0
   23.2252    8.2449   53.4657 C   0  0  0  0  0  0  0  0  0  0  0  0
   24.2482    9.1565   53.5322 C   0  0  0  0  0  0  0  0  0  0  0  0
   25.5232    8.8589   54.0076 C   0  0  0  0  0  0  0  0  0  0  0  0
   25.7830    7.5937   54.4349 C   0  0  0  0  0  0  0  0  0  0  0  0
   24.7745    6.6554   54.3823 C   0  0  0  0  0  0  0  0  0  0  0  0
   23.5165    6.9456   53.9146 C   0  0  0  0  0  0  0  0  0  0  0  0
   22.5455    6.0209   53.8827 N   0  0  0  0  0  0  0  0  0  0  0  0
   21.6576    9.8650   52.4810 C   0  0  0  0  0  0  0  0  0  0  0  0
   21.3786   10.1749   51.1701 C   0  0  0  0  0  0  0  0  0  0  0  0
   21.0136   11.4177   50.7136 C   0  0  0  0  0  0  0  0  0  0  0  0
   20.9272   12.4214   51.6735 C   0  0  0  0  0  0  0  0  0  0  0  0
   20.5761   13.6838   51.3317 F   0  0  0  0  0  0  0  0  0  0  0  0
   21.1964   12.1610   52.9963 C   0  0  0  0  0  0  0  0  0  0  0  0
   21.5580   10.9042   53.4079 C   0  0  0  0  0  0  0  0  0  0  0  0
   21.9019   10.6307   55.0889 Cl  0  0  0  0  0  0  0  0  0  0  0  0
   18.9218    5.6110   53.4458 N   0  0  0  0  0  0  0  0  0  0  0  0
   20.2832    5.2279   53.4306 C   0  0  0  0  0  0  0  0  0  0  0  0
   20.5751    4.0052   53.4083 O   0  0  0  0  0  0  0  0  0  0  0  0
   18.3784    5.7199   52.5642 H   0  0  0  0  0  0  0  0  0  0  0  0
   18.4782    5.7820   54.3773 H   0  0  0  0  0  0  0  0  0  0  0  0
   27.1133    7.1847   54.9529 C   0  0  0  0  0  0  0  0  0  0  0  0
   27.8783    8.3765   55.2598 N   0  0  0  0  0  0  0  0  0  0  0  0
   28.6012    9.1153   54.4098 C   0  0  0  0  0  0  0  0  0  0  0  0
   29.1668   10.1471   55.0586 N   0  0  0  0  0  0  0  0  0  0  0  0
   28.8080   10.0884   56.3717 C   0  0  0  0  0  0  0  0  0  0  0  0
   29.0973   10.8687   57.4350 N   0  0  0  0  0  0  0  0  0  0  0  0
   28.6046   10.5852   58.6524 C   0  0  0  0  0  0  0  0  0  0  0  0
   27.7940    9.4802   58.8048 C   0  0  0  0  0  0  0  0  0  0  0  0
   27.4942    8.6792   57.7240 C   0  0  0  0  0  0  0  0  0  0  0  0
   27.9990    8.9641   56.4612 C   0  0  0  0  0  0  0  0  0  0  0  0
 19 20  1  0  0  0
 20 21  2  0  0  0
 20  1  1  0  0  0
  1  2  2  0  0  0
  2  3  1  0  0  0
  3 11  1  0  0  0
 11 12  2  0  0  0
 12 13  1  0  0  0
 13 14  2  0  0  0
 14 15  1  0  0  0
 14 16  1  0  0  0
 16 17  2  0  0  0
 17 18  1  0  0  0
  3  4  2  0  0  0
  4  5  1  0  0  0
  5  6  2  0  0  0
  6  7  1  0  0  0
  7 24  1  0  0  0
 24 25  1  0  0  0
 25 26  1  0  0  0
 26 27  2  0  0  0
 27 28  1  0  0  0
 28 29  2  0  0  0
 29 30  1  0  0  0
 30 31  2  0  0  0
 31 32  1  0  0  0
 32 33  2  0  0  0
  7  8  2  0  0  0
  8  9  1  0  0  0
  9 10  2  0  0  0
 10  1  1  0  0  0
 17 11  1  0  0  0
  9  4  1  0  0  0
 33 25  1  0  0  0
 33 28  1  0  0  0
 19 22  1  0  0  0
 19 23  1  0  0  0
M  END
> <minimizedAffinity>
23.47391

> <CNNscore>
0.5991448164

> <CNNaffinity>
6.6479249001

> <CNN_VS>
3.9830696583

> <CNNaffinity_variance>
0.7274014354

$$$$
[H]c1nc2nc([H])n(C([H])([H])c3c([H])c([H])c4c(-c5c([H])c([H])c(F)c([H])c5Cl)c([H])c(C(=O)N([H])[H])nc4c3[H])c2c([H])c1[H]


 33 37  0  0  0  0  0  0  0  0999 V2000
   21.4707   10.5213   52.1841 C   0  0  0  0  0  0  0  0  0  0  0  0
   20.9165    9.2593   52.2409 C   0  0  0  0  0  0  0  0  0  0  0  0
   21.2178    8.3503   53.2612 C   0  0  0  0  0  0  0  0  0  0  0  0
   22.0970    8.7680   54.2131 C   0  0  0  0  0  0  0  0  0  0  0  0
   22.4856    7.9670   55.2568 C   0  0  0  0  0  0  0  0  0  0  0  0
   23.3897    8.3592   56.2412 C   0  0  0  0  0  0  0  0  0  0  0  0
   23.9271    9.6072   56.1759 C   0  0  0  0  0  0  0  0  0  0  0  0
   23.5575   10.4351   55.1374 C   0  0  0  0  0  0  0  0  0  0  0  0
   22.6670   10.0515   54.1652 C   0  0  0  0  0  0  0  0  0  0  0  0
   22.3295   10.8683   53.1563 N   0  0  0  0  0  0  0  0  0  0  0  0
   20.5653    7.0740   53.2990 C   0  0  0  0  0  0  0  0  0  0  0  0
   19.2093    6.8447   53.3346 C   0  0  0  0  0  0  0  0  0  0  0  0
   18.6178    5.6054   53.3152 C   0  0  0  0  0  0  0  0  0  0  0  0
   19.4813    4.5158   53.2544 C   0  0  0  0  0  0  0  0  0  0  0  0
   19.0037    3.2489   53.2311 F   0  0  0  0  0  0  0  0  0  0  0  0
   20.8440    4.6937   53.2170 C   0  0  0  0  0  0  0  0  0  0  0  0
   21.3917    5.9504   53.2387 C   0  0  0  0  0  0  0  0  0  0  0  0
   23.1205    6.1206   53.2044 Cl  0  0  0  0  0  0  0  0  0  0  0  0
   21.6207   12.7789   51.1901 N   0  0  0  0  0  0  0  0  0  0  0  0
   21.1400   11.4513   51.1077 C   0  0  0  0  0  0  0  0  0  0  0  0
   20.4457   11.1118   50.1161 O   0  0  0  0  0  0  0  0  0  0  0  0
   22.5166   13.0610   50.7406 H   0  0  0  0  0  0  0  0  0  0  0  0
   21.0425   13.4701   51.7207 H   0  0  0  0  0  0  0  0  0  0  0  0
   24.8945   10.1124   57.1829 C   0  0  0  0  0  0  0  0  0  0  0  0
   26.2303    9.7207   56.7805 N   0  0  0  0  0  0  0  0  0  0  0  0
   27.3667    9.9000   57.4642 C   0  0  0  0  0  0  0  0  0  0  0  0
   28.4062    9.4020   56.7735 N   0  0  0  0  0  0  0  0  0  0  0  0
   27.9442    8.8799   55.6029 C   0  0  0  0  0  0  0  0  0  0  0  0
   28.5595    8.2698   54.5672 N   0  0  0  0  0  0  0  0  0  0  0  0
   27.8578    7.8378   53.5061 C   0  0  0  0  0  0  0  0  0  0  0  0
   26.4919    8.0257   53.4864 C   0  0  0  0  0  0  0  0  0  0  0  0
   25.8570    8.6474   54.5399 C   0  0  0  0  0  0  0  0  0  0  0  0
   26.5740    9.0978   55.6416 C   0  0  0  0  0  0  0  0  0  0  0  0
 19 20  1  0  0  0
 20 21  2  0  0  0
 20  1  1  0  0  0
  1  2  2  0  0  0
  2  3  1  0  0  0
  3 11  1  0  0  0
 11 12  2  0  0  0
 12 13  1  0  0  0
 13 14  2  0  0  0
 14 15  1  0  0  0
 14 16  1  0  0  0
 16 17  2  0  0  0
 17 18  1  0  0  0
  3  4  2  0  0  0
  4  5  1  0  0  0
  5  6  2  0  0  0
  6  7  1  0  0  0
  7 24  1  0  0  0
 24 25  1  0  0  0
 25 26  1  0  0  0
 26 27  2  0  0  0
 27 28  1  0  0  0
 28 29  2  0  0  0
 29 30  1  0  0  0
 30 31  2  0  0  0
 31 32  1  0  0  0
 32 33  2  0  0  0
  7  8  2  0  0  0
  8  9  1  0  0  0
  9 10  2  0  0  0
 10  1  1  0  0  0
 17 11  1  0  0  0
  9  4  1  0  0  0
 33 25  1  0  0  0
 33 28  1  0  0  0
 19 22  1  0  0  0
 19 23  1  0  0  0
M  END
> <minimizedAffinity>
31.72684

> <CNNscore>
0.5840729475

> <CNNaffinity>
6.6720628738

> <CNN_VS>
3.8969714642

> <CNNaffinity_variance>
0.6003185511

$$$$
[H]c1nc2nc([H])n(C([H])([H])c3c([H])c([H])c4c(-c5c([H])c([H])c(F)c([H])c5Cl)c([H])c(C(=O)N([H])[H])nc4c3[H])c2c([H])c1[H]


 33 37  0  0  0  0  0  0  0  0999 V2000
   21.6853   10.1602   54.2920 C   0  0  0  0  0  0  0  0  0  0  0  0
   23.0275   10.0373   54.5863 C   0  0  0  0  0  0  0  0  0  0  0  0
   23.6906    8.8051   54.5752 C   0  0  0  0  0  0  0  0  0  0  0  0
   22.9446    7.7114   54.2576 C   0  0  0  0  0  0  0  0  0  0  0  0
   23.4724    6.4455   54.2261 C   0  0  0  0  0  0  0  0  0  0  0  0
   22.7357    5.3050   53.9151 C   0  0  0  0  0  0  0  0  0  0  0  0
   21.4137    5.4396   53.6238 C   0  0  0  0  0  0  0  0  0  0  0  0
   20.8537    6.6990   53.6489 C   0  0  0  0  0  0  0  0  0  0  0  0
   21.5769    7.8253   53.9556 C   0  0  0  0  0  0  0  0  0  0  0  0
   21.0102    9.0405   53.9860 N   0  0  0  0  0  0  0  0  0  0  0  0
   25.1001    8.7479   54.8326 C   0  0  0  0  0  0  0  0  0  0  0  0
   25.7331    9.0575   56.0141 C   0  0  0  0  0  0  0  0  0  0  0  0
   27.0823    8.9385   56.2411 C   0  0  0  0  0  0  0  0  0  0  0  0
   27.8430    8.4655   55.1761 C   0  0  0  0  0  0  0  0  0  0  0  0
   29.1832    8.3106   55.2919 F   0  0  0  0  0  0  0  0  0  0  0  0
   27.2563    8.1427   53.9754 C   0  0  0  0  0  0  0  0  0  0  0  0
   25.9041    8.2776   53.7928 C   0  0  0  0  0  0  0  0  0  0  0  0
   25.2138    7.8697   52.2514 Cl  0  0  0  0  0  0  0  0  0  0  0  0
   20.1917   11.7773   55.4149 N   0  0  0  0  0  0  0  0  0  0  0  0
   21.0166   11.4583   54.3112 C   0  0  0  0  0  0  0  0  0  0  0  0
   21.1495   12.2964   53.3835 O   0  0  0  0  0  0  0  0  0  0  0  0
   20.5608   12.3020   56.2351 H   0  0  0  0  0  0  0  0  0  0  0  0
   19.1938   11.4663   55.3783 H   0  0  0  0  0  0  0  0  0  0  0  0
   20.5519    4.2812   53.2766 C   0  0  0  0  0  0  0  0  0  0  0  0
   19.1746    4.6230   53.5697 N   0  0  0  0  0  0  0  0  0  0  0  0
   18.7115    5.7898   54.0334 C   0  0  0  0  0  0  0  0  0  0  0  0
   17.3768    5.7334   54.1786 N   0  0  0  0  0  0  0  0  0  0  0  0
   16.9471    4.4970   53.8005 C   0  0  0  0  0  0  0  0  0  0  0  0
   15.7231    3.9286   53.7535 N   0  0  0  0  0  0  0  0  0  0  0  0
   15.5669    2.6625   53.3317 C   0  0  0  0  0  0  0  0  0  0  0  0
   16.6787    1.9449   52.9444 C   0  0  0  0  0  0  0  0  0  0  0  0
   17.9311    2.5185   52.9896 C   0  0  0  0  0  0  0  0  0  0  0  0
   18.1029    3.8270   53.4244 C   0  0  0  0  0  0  0  0  0  0  0  0
 19 20  1  0  0  0
 20 21  2  0  0  0
 20  1  1  0  0  0
  1  2  2  0  0  0
  2  3  1  0  0  0
  3 11  1  0  0  0
 11 12  2  0  0  0
 12 13  1  0  0  0
 13 14  2  0  0  0
 14 15  1  0  0  0
 14 16  1  0  0  0
 16 17  2  0  0  0
 17 18  1  0  0  0
  3  4  2  0  0  0
  4  5  1  0  0  0
  5  6  2  0  0  0
  6  7  1  0  0  0
  7 24  1  0  0  0
 24 25  1  0  0  0
 25 26  1  0  0  0
 26 27  2  0  0  0
 27 28  1  0  0  0
 28 29  2  0  0  0
 29 30  1  0  0  0
 30 31  2  0  0  0
 31 32  1  0  0  0
 32 33  2  0  0  0
  7  8  2  0  0  0
  8  9  1  0  0  0
  9 10  2  0  0  0
 10  1  1  0  0  0
 17 11  1  0  0  0
  9  4  1  0  0  0
 33 25  1  0  0  0
 33 28  1  0  0  0
 19 22  1  0  0  0
 19 23  1  0  0  0
M  END
> <minimizedAffinity>
33.83489

> <CNNscore>
0.4998188913

> <CNNaffinity>
6.6043672562

> <CNN_VS>
3.3009874821

> <CNNaffinity_variance>
0.6179017425

$$$$
[H]c1nc2nc([H])n(C([H])([H])c3c([H])c([H])c4c(-c5c([H])c([H])c(F)c([H])c5Cl)c([H])c(C(=O)N([H])[H])nc4c3[H])c2c([H])c1[H]


 33 37  0  0  0  0  0  0  0  0999 V2000
   21.2836    6.2382   53.5700 C   0  0  0  0  0  0  0  0  0  0  0  0
   20.9952    7.5189   53.1460 C   0  0  0  0  0  0  0  0  0  0  0  0
   21.9396    8.5512   53.1734 C   0  0  0  0  0  0  0  0  0  0  0  0
   23.1773    8.2361   53.6449 C   0  0  0  0  0  0  0  0  0  0  0  0
   24.1864    9.1610   53.7365 C   0  0  0  0  0  0  0  0  0  0  0  0
   25.4598    8.8747   54.2229 C   0  0  0  0  0  0  0  0  0  0  0  0
   25.7327    7.6073   54.6352 C   0  0  0  0  0  0  0  0  0  0  0  0
   24.7384    6.6557   54.5571 C   0  0  0  0  0  0  0  0  0  0  0  0
   23.4820    6.9347   54.0787 C   0  0  0  0  0  0  0  0  0  0  0  0
   22.5248    5.9969   54.0220 N   0  0  0  0  0  0  0  0  0  0  0  0
   21.5983    9.8477   52.6648 C   0  0  0  0  0  0  0  0  0  0  0  0
   21.7630   11.0526   53.3081 C   0  0  0  0  0  0  0  0  0  0  0  0
   21.4747   12.2816   52.7675 C   0  0  0  0  0  0  0  0  0  0  0  0
   20.9794   12.2775   51.4670 C   0  0  0  0  0  0  0  0  0  0  0  0
   20.6619   13.4343   50.8388 F   0  0  0  0  0  0  0  0  0  0  0  0
   20.7972   11.0991   50.7826 C   0  0  0  0  0  0  0  0  0  0  0  0
   21.0985    9.8936   51.3621 C   0  0  0  0  0  0  0  0  0  0  0  0
   20.8363    8.4321   50.4597 Cl  0  0  0  0  0  0  0  0  0  0  0  0
   18.9127    5.5411   53.5581 N   0  0  0  0  0  0  0  0  0  0  0  0
   20.2795    5.1784   53.5317 C   0  0  0  0  0  0  0  0  0  0  0  0
   20.5892    3.9611   53.4766 O   0  0  0  0  0  0  0  0  0  0  0  0
   18.3668    5.6655   52.6802 H   0  0  0  0  0  0  0  0  0  0  0  0
   18.4678    5.6807   54.4942 H   0  0  0  0  0  0  0  0  0  0  0  0
   27.0625    7.2098   55.1631 C   0  0  0  0  0  0  0  0  0  0  0  0
   27.8271    8.4080   55.4449 N   0  0  0  0  0  0  0  0  0  0  0  0
   28.4966    9.1657   54.5680 C   0  0  0  0  0  0  0  0  0  0  0  0
   29.0815   10.1975   55.1995 N   0  0  0  0  0  0  0  0  0  0  0  0
   28.7905   10.1196   56.5282 C   0  0  0  0  0  0  0  0  0  0  0  0
   29.1236   10.8919   57.5846 N   0  0  0  0  0  0  0  0  0  0  0  0
   28.6969   10.5885   58.8220 C   0  0  0  0  0  0  0  0  0  0  0  0
   27.9090    9.4713   59.0023 C   0  0  0  0  0  0  0  0  0  0  0  0
   27.5649    8.6785   57.9287 C   0  0  0  0  0  0  0  0  0  0  0  0
   28.0013    8.9839   56.6454 C   0  0  0  0  0  0  0  0  0  0  0  0
 19 20  1  0  0  0
 20 21  2  0  0  0
 20  1  1  0  0  0
  1  2  2  0  0  0
  2  3  1  0  0  0
  3 11  1  0  0  0
 11 12  2  0  0  0
 12 13  1  0  0  0
 13 14  2  0  0  0
 14 15  1  0  0  0
 14 16  1  0  0  0
 16 17  2  0  0  0
 17 18  1  0  0  0
  3  4  2  0  0  0
  4  5  1  0  0  0
  5  6  2  0  0  0
  6  7  1  0  0  0
  7 24  1  0  0  0
 24 25  1  0  0  0
 25 26  1  0  0  0
 26 27  2  0  0  0
 27 28  1  0  0  0
 28 29  2  0  0  0
 29 30  1  0  0  0
 30 31  2  0  0  0
 31 32  1  0  0  0
 32 33  2  0  0  0
  7  8  2  0  0  0
  8  9  1  0  0  0
  9 10  2  0  0  0
 10  1  1  0  0  0
 17 11  1  0  0  0
  9  4  1  0  0  0
 33 25  1  0  0  0
 33 28  1  0  0  0
 19 22  1  0  0  0
 19 23  1  0  0  0
M  END
> <minimizedAffinity>
25.52189

> <CNNscore>
0.4829884171

> <CNNaffinity>
6.3953375816

> <CNN_VS>
3.0888738632

> <CNNaffinity_variance>
0.9099128842

$$$$
[H]c1nc2nc([H])n(C([H])([H])c3c([H])c([H])c4c(-c5c([H])c([H])c(F)c([H])c5Cl)c([H])c(C(=O)N([H])[H])nc4c3[H])c2c([H])c1[H]


 33 37  0  0  0  0  0  0  0  0999 V2000
   24.6634    4.5814   53.4106 C   0  0  0  0  0  0  0  0  0  0  0  0
   25.5867    5.4809   53.9020 C   0  0  0  0  0  0  0  0  0  0  0  0
   25.3464    6.8588   53.9436 C   0  0  0  0  0  0  0  0  0  0  0  0
   24.1432    7.2850   53.4702 C   0  0  0  0  0  0  0  0  0  0  0  0
   23.7920    8.6108   53.4424 C   0  0  0  0  0  0  0  0  0  0  0  0
   22.5744    9.0811   52.9561 C   0  0  0  0  0  0  0  0  0  0  0  0
   21.6710    8.1839   52.4769 C   0  0  0  0  0  0  0  0  0  0  0  0
   21.9957    6.8442   52.4898 C   0  0  0  0  0  0  0  0  0  0  0  0
   23.1952    6.3773   52.9680 C   0  0  0  0  0  0  0  0  0  0  0  0
   23.4965    5.0704   52.9607 N   0  0  0  0  0  0  0  0  0  0  0  0
   26.3212    7.7387   54.5198 C   0  0  0  0  0  0  0  0  0  0  0  0
   27.6591    7.8017   54.2059 C   0  0  0  0  0  0  0  0  0  0  0  0
   28.5537    8.6962   54.7403 C   0  0  0  0  0  0  0  0  0  0  0  0
   28.0389    9.5967   55.6681 C   0  0  0  0  0  0  0  0  0  0  0  0
   28.8340   10.5212   56.2568 F   0  0  0  0  0  0  0  0  0  0  0  0
   26.7087    9.5734   56.0145 C   0  0  0  0  0  0  0  0  0  0  0  0
   25.8506    8.6617   55.4555 C   0  0  0  0  0  0  0  0  0  0  0  0
   24.1815    8.6645   55.9381 Cl  0  0  0  0  0  0  0  0  0  0  0  0
   25.3724    2.5706   52.1612 N   0  0  0  0  0  0  0  0  0  0  0  0
   24.9389    3.1476   53.3775 C   0  0  0  0  0  0  0  0  0  0  0  0
   24.8039    2.4140   54.3896 O   0  0  0  0  0  0  0  0  0  0  0  0
   26.3845    2.4562   51.9445 H   0  0  0  0  0  0  0  0  0  0  0  0
   24.6377    2.2616   51.4841 H   0  0  0  0  0  0  0  0  0  0  0  0
   20.3469    8.5932   51.9436 C   0  0  0  0  0  0  0  0  0  0  0  0
   20.4886    9.8756   51.2839 N   0  0  0  0  0  0  0  0  0  0  0  0
   20.0326   10.2176   50.0731 C   0  0  0  0  0  0  0  0  0  0  0  0
   20.3525   11.4941   49.8014 N   0  0  0  0  0  0  0  0  0  0  0  0
   21.0376   12.0088   50.8606 C   0  0  0  0  0  0  0  0  0  0  0  0
   21.5779   13.2234   51.0978 N   0  0  0  0  0  0  0  0  0  0  0  0
   22.2173   13.4800   52.2513 C   0  0  0  0  0  0  0  0  0  0  0  0
   22.3163   12.4817   53.1972 C   0  0  0  0  0  0  0  0  0  0  0  0
   21.7672   11.2396   52.9622 C   0  0  0  0  0  0  0  0  0  0  0  0
   21.1041   10.9646   51.7724 C   0  0  0  0  0  0  0  0  0  0  0  0
 19 20  1  0  0  0
 20 21  2  0  0  0
 20  1  1  0  0  0
  1  2  2  0  0  0
  2  3  1  0  0  0
  3 11  1  0  0  0
 11 12  2  0  0  0
 12 13  1  0  0  0
 13 14  2  0  0  0
 14 15  1  0  0  0
 14 16  1  0  0  0
 16 17  2  0  0  0
 17 18  1  0  0  0
  3  4  2  0  0  0
  4  5  1  0  0  0
  5  6  2  0  0  0
  6  7  1  0  0  0
  7 24  1  0  0  0
 24 25  1  0  0  0
 25 26  1  0  0  0
 26 27  2  0  0  0
 27 28  1  0  0  0
 28 29  2  0  0  0
 29 30  1  0  0  0
 30 31  2  0  0  0
 31 32  1  0  0  0
 32 33  2  0  0  0
  7  8  2  0  0  0
  8  9  1  0  0  0
  9 10  2  0  0  0
 10  1  1  0  0  0
 17 11  1  0  0  0
  9  4  1  0  0  0
 33 25  1  0  0  0
 33 28  1  0  0  0
 19 22  1  0  0  0
 19 23  1  0  0  0
M  END
> <minimizedAffinity>
55.12751

> <CNNscore>
0.4323695302

> <CNNaffinity>
6.0031023026

> <CNN_VS>
2.5955584049

> <CNNaffinity_variance>
0.7039374113

$$$$
[H]c1nc2nc([H])n(C([H])([H])c3c([H])c([H])c4c(-c5c([H])c([H])c(F)c([H])c5Cl)c([H])c(C(=O)N([H])[H])nc4c3[H])c2c([H])c1[H]


 33 37  0  0  0  0  0  0  0  0999 V2000
   23.1494    5.8302   55.8560 C   0  0  0  0  0  0  0  0  0  0  0  0
   22.3586    6.4513   54.9117 C   0  0  0  0  0  0  0  0  0  0  0  0
   22.8771    7.3381   53.9615 C   0  0  0  0  0  0  0  0  0  0  0  0
   24.2181    7.5688   54.0071 C   0  0  0  0  0  0  0  0  0  0  0  0
   24.8461    8.4275   53.1409 C   0  0  0  0  0  0  0  0  0  0  0  0
   26.2131    8.6935   53.1666 C   0  0  0  0  0  0  0  0  0  0  0  0
   26.9828    8.0724   54.1006 C   0  0  0  0  0  0  0  0  0  0  0  0
   26.3803    7.2050   54.9866 C   0  0  0  0  0  0  0  0  0  0  0  0
   25.0330    6.9410   54.9644 C   0  0  0  0  0  0  0  0  0  0  0  0
   24.4643    6.1023   55.8431 N   0  0  0  0  0  0  0  0  0  0  0  0
   22.0144    7.9080   52.9679 C   0  0  0  0  0  0  0  0  0  0  0  0
   21.5141    7.2757   51.8532 C   0  0  0  0  0  0  0  0  0  0  0  0
   20.6450    7.8378   50.9506 C   0  0  0  0  0  0  0  0  0  0  0  0
   20.2575    9.1491   51.2089 C   0  0  0  0  0  0  0  0  0  0  0  0
   19.4041    9.7990   50.3824 F   0  0  0  0  0  0  0  0  0  0  0  0
   20.7303    9.8232   52.3099 C   0  0  0  0  0  0  0  0  0  0  0  0
   21.5977    9.2225   53.1854 C   0  0  0  0  0  0  0  0  0  0  0  0
   22.1773   10.1229   54.5537 Cl  0  0  0  0  0  0  0  0  0  0  0  0
   21.2538    5.1179   57.2725 N   0  0  0  0  0  0  0  0  0  0  0  0
   22.5833    4.9089   56.8377 C   0  0  0  0  0  0  0  0  0  0  0  0
   23.2360    3.9418   57.3060 O   0  0  0  0  0  0  0  0  0  0  0  0
   20.4511    4.6366   56.8162 H   0  0  0  0  0  0  0  0  0  0  0  0
   21.1045    5.7758   58.0717 H   0  0  0  0  0  0  0  0  0  0  0  0
   28.4482    8.2914   54.1996 C   0  0  0  0  0  0  0  0  0  0  0  0
   28.6884    9.4578   55.0251 N   0  0  0  0  0  0  0  0  0  0  0  0
   29.1297   10.6560   54.6242 C   0  0  0  0  0  0  0  0  0  0  0  0
   29.2253   11.4892   55.6740 N   0  0  0  0  0  0  0  0  0  0  0  0
   28.8368   10.8241   56.7978 C   0  0  0  0  0  0  0  0  0  0  0  0
   28.7466   11.1923   58.0939 N   0  0  0  0  0  0  0  0  0  0  0  0
   28.3247   10.3248   59.0291 C   0  0  0  0  0  0  0  0  0  0  0  0
   27.9820    9.0448   58.6477 C   0  0  0  0  0  0  0  0  0  0  0  0
   28.0714    8.6620   57.3267 C   0  0  0  0  0  0  0  0  0  0  0  0
   28.5067    9.5517   56.3523 C   0  0  0  0  0  0  0  0  0  0  0  0
 19 20  1  0  0  0
 20 21  2  0  0  0
 20  1  1  0  0  0
  1  2  2  0  0  0
  2  3  1  0  0  0
  3 11  1  0  0  0
 11 12  2  0  0  0
 12 13  1  0  0  0
 13 14  2  0  0  0
 14 15  1  0  0  0
 14 16  1  0  0  0
 16 17  2  0  0  0
 17 18  1  0  0  0
  3  4  2  0  0  0
  4  5  1  0  0  0
  5  6  2  0  0  0
  6  7  1  0  0  0
  7 24  1  0  0  0
 24 25  1  0  0  0
 25 26  1  0  0  0
 26 27  2  0  0  0
 27 28  1  0  0  0
 28 29  2  0  0  0
 29 30  1  0  0  0
 30 31  2  0  0  0
 31 32  1  0  0  0
 32 33  2  0  0  0
  7  8  2  0  0  0
  8  9  1  0  0  0
  9 10  2  0  0  0
 10  1  1  0  0  0
 17 11  1  0  0  0
  9  4  1  0  0  0
 33 25  1  0  0  0
 33 28  1  0  0  0
 19 22  1  0  0  0
 19 23  1  0  0  0
M  END
> <minimizedAffinity>
29.19644

> <CNNscore>
0.3968152106

> <CNNaffinity>
6.5060400963

> <CNN_VS>
2.5816955566

> <CNNaffinity_variance>
0.5696891546

$$$$
[H]c1nc2nc([H])n(C([H])([H])c3c([H])c([H])c4c(-c5c([H])c([H])c(F)c([H])c5Cl)c([H])c(C(=O)N([H])[H])nc4c3[H])c2c([H])c1[H]


 33 37  0  0  0  0  0  0  0  0999 V2000
   25.2559    7.8367   53.8076 C   0  0  0  0  0  0  0  0  0  0  0  0
   24.5306    8.8968   53.3046 C   0  0  0  0  0  0  0  0  0  0  0  0
   23.1374    8.8631   53.1784 C   0  0  0  0  0  0  0  0  0  0  0  0
   22.5141    7.7206   53.5783 C   0  0  0  0  0  0  0  0  0  0  0  0
   21.1548    7.5562   53.4923 C   0  0  0  0  0  0  0  0  0  0  0  0
   20.4870    6.3979   53.8829 C   0  0  0  0  0  0  0  0  0  0  0  0
   21.2130    5.3605   54.3802 C   0  0  0  0  0  0  0  0  0  0  0  0
   22.5816    5.4948   54.4772 C   0  0  0  0  0  0  0  0  0  0  0  0
   23.2431    6.6350   54.0927 C   0  0  0  0  0  0  0  0  0  0  0  0
   24.5770    6.7411   54.1842 N   0  0  0  0  0  0  0  0  0  0  0  0
   22.4331   10.0182   52.7031 C   0  0  0  0  0  0  0  0  0  0  0  0
   22.0554   10.2743   51.4052 C   0  0  0  0  0  0  0  0  0  0  0  0
   21.3327   11.3676   50.9949 C   0  0  0  0  0  0  0  0  0  0  0  0
   20.9677   12.2690   51.9903 C   0  0  0  0  0  0  0  0  0  0  0  0
   20.2542   13.3814   51.6953 F   0  0  0  0  0  0  0  0  0  0  0  0
   21.3215   12.0568   53.3018 C   0  0  0  0  0  0  0  0  0  0  0  0
   22.0445   10.9505   53.6667 C   0  0  0  0  0  0  0  0  0  0  0  0
   22.4788   10.7364   55.3354 Cl  0  0  0  0  0  0  0  0  0  0  0  0
   27.3055    7.4764   55.1404 N   0  0  0  0  0  0  0  0  0  0  0  0
   26.7100    7.8970   53.9285 C   0  0  0  0  0  0  0  0  0  0  0  0
   27.4453    8.3086   52.9954 O   0  0  0  0  0  0  0  0  0  0  0  0
   27.6447    6.5003   55.2688 H   0  0  0  0  0  0  0  0  0  0  0  0
   27.3933    8.1830   55.9065 H   0  0  0  0  0  0  0  0  0  0  0  0
   20.5863    4.0900   54.8256 C   0  0  0  0  0  0  0  0  0  0  0  0
   19.6142    3.6791   53.8326 N   0  0  0  0  0  0  0  0  0  0  0  0
   19.8581    3.2720   52.5813 C   0  0  0  0  0  0  0  0  0  0  0  0
   18.7057    2.9695   51.9599 N   0  0  0  0  0  0  0  0  0  0  0  0
   17.6736    3.1821   52.8236 C   0  0  0  0  0  0  0  0  0  0  0  0
   16.3365    3.0362   52.7049 N   0  0  0  0  0  0  0  0  0  0  0  0
   15.5181    3.3215   53.7316 C   0  0  0  0  0  0  0  0  0  0  0  0
   16.0633    3.7682   54.9168 C   0  0  0  0  0  0  0  0  0  0  0  0
   17.4271    3.9195   55.0453 C   0  0  0  0  0  0  0  0  0  0  0  0
   18.2815    3.6271   53.9892 C   0  0  0  0  0  0  0  0  0  0  0  0
 19 20  1  0  0  0
 20 21  2  0  0  0
 20  1  1  0  0  0
  1  2  2  0  0  0
  2  3  1  0  0  0
  3 11  1  0  0  0
 11 12  2  0  0  0
 12 13  1  0  0  0
 13 14  2  0  0  0
 14 15  1  0  0  0
 14 16  1  0  0  0
 16 17  2  0  0  0
 17 18  1  0  0  0
  3  4  2  0  0  0
  4  5  1  0  0  0
  5  6  2  0  0  0
  6  7  1  0  0  0
  7 24  1  0  0  0
 24 25  1  0  0  0
 25 26  1  0  0  0
 26 27  2  0  0  0
 27 28  1  0  0  0
 28 29  2  0  0  0
 29 30  1  0  0  0
 30 31  2  0  0  0
 31 32  1  0  0  0
 32 33  2  0  0  0
  7  8  2  0  0  0
  8  9  1  0  0  0
  9 10  2  0  0  0
 10  1  1  0  0  0
 17 11  1  0  0  0
  9  4  1  0  0  0
 33 25  1  0  0  0
 33 28  1  0  0  0
 19 22  1  0  0  0
 19 23  1  0  0  0
M  END
> <minimizedAffinity>
39.75285

> <CNNscore>
0.3951555789

> <CNNaffinity>
6.3923344612

> <CNN_VS>
2.5259666443

> <CNNaffinity_variance>
0.3920715749

$$$$
[H]c1nc2nc([H])n(C([H])([H])c3c([H])c([H])c4c(-c5c([H])c([H])c(F)c([H])c5Cl)c([H])c(C(=O)N([H])[H])nc4c3[H])c2c([H])c1[H]


 33 37  0  0  0  0  0  0  0  0999 V2000
   22.3146    6.3567   53.8925 C   0  0  0  0  0  0  0  0  0  0  0  0
   21.8395    7.6126   53.5763 C   0  0  0  0  0  0  0  0  0  0  0  0
   22.6222    8.7661   53.6984 C   0  0  0  0  0  0  0  0  0  0  0  0
   23.8950    8.5969   54.1512 C   0  0  0  0  0  0  0  0  0  0  0  0
   24.7578    9.6486   54.3289 C   0  0  0  0  0  0  0  0  0  0  0  0
   26.0617    9.5117   54.7992 C   0  0  0  0  0  0  0  0  0  0  0  0
   26.5196    8.2677   55.1047 C   0  0  0  0  0  0  0  0  0  0  0  0
   25.6754    7.1907   54.9385 C   0  0  0  0  0  0  0  0  0  0  0  0
   24.3893    7.3222   54.4756 C   0  0  0  0  0  0  0  0  0  0  0  0
   23.5799    6.2624   54.3321 N   0  0  0  0  0  0  0  0  0  0  0  0
   22.0921   10.0371   53.2988 C   0  0  0  0  0  0  0  0  0  0  0  0
   22.1143   11.2031   54.0285 C   0  0  0  0  0  0  0  0  0  0  0  0
   21.6445   12.4170   53.5906 C   0  0  0  0  0  0  0  0  0  0  0  0
   21.1106   12.4395   52.3057 C   0  0  0  0  0  0  0  0  0  0  0  0
   20.6188   13.5844   51.7757 F   0  0  0  0  0  0  0  0  0  0  0  0
   21.0661   11.3002   51.5376 C   0  0  0  0  0  0  0  0  0  0  0  0
   21.5468   10.1085   52.0157 C   0  0  0  0  0  0  0  0  0  0  0  0
   21.4539    8.6944   51.0104 Cl  0  0  0  0  0  0  0  0  0  0  0  0
   20.1718    5.3178   53.2321 N   0  0  0  0  0  0  0  0  0  0  0  0
   21.4767    5.1683   53.7567 C   0  0  0  0  0  0  0  0  0  0  0  0
   21.8756    4.0234   54.0893 O   0  0  0  0  0  0  0  0  0  0  0  0
   19.9769    5.1925   52.2169 H   0  0  0  0  0  0  0  0  0  0  0  0
   19.4062    5.5596   53.9023 H   0  0  0  0  0  0  0  0  0  0  0  0
   27.8958    8.0260   55.6075 C   0  0  0  0  0  0  0  0  0  0  0  0
   28.0287    8.6437   56.9116 N   0  0  0  0  0  0  0  0  0  0  0  0
   28.1390    8.0245   58.0929 C   0  0  0  0  0  0  0  0  0  0  0  0
   28.2475    8.9286   59.0811 N   0  0  0  0  0  0  0  0  0  0  0  0
   28.2079   10.1776   58.5383 C   0  0  0  0  0  0  0  0  0  0  0  0
   28.2758   11.4129   59.0794 N   0  0  0  0  0  0  0  0  0  0  0  0
   28.2112   12.5090   58.3050 C   0  0  0  0  0  0  0  0  0  0  0  0
   28.0740   12.3571   56.9414 C   0  0  0  0  0  0  0  0  0  0  0  0
   28.0042   11.0994   56.3821 C   0  0  0  0  0  0  0  0  0  0  0  0
   28.0700    9.9599   57.1745 C   0  0  0  0  0  0  0  0  0  0  0  0
 19 20  1  0  0  0
 20 21  2  0  0  0
 20  1  1  0  0  0
  1  2  2  0  0  0
  2  3  1  0  0  0
  3 11  1  0  0  0
 11 12  2  0  0  0
 12 13  1  0  0  0
 13 14  2  0  0  0
 14 15  1  0  0  0
 14 16  1  0  0  0
 16 17  2  0  0  0
 17 18  1  0  0  0
  3  4  2  0  0  0
  4  5  1  0  0  0
  5  6  2  0  0  0
  6  7  1  0  0  0
  7 24  1  0  0  0
 24 25  1  0  0  0
 25 26  1  0  0  0
 26 27  2  0  0  0
 27 28  1  0  0  0
 28 29  2  0  0  0
 29 30  1  0  0  0
 30 31  2  0  0  0
 31 32  1  0  0  0
 32 33  2  0  0  0
  7  8  2  0  0  0
  8  9  1  0  0  0
  9 10  2  0  0  0
 10  1  1  0  0  0
 17 11  1  0  0  0
  9  4  1  0  0  0
 33 25  1  0  0  0
 33 28  1  0  0  0
 19 22  1  0  0  0
 19 23  1  0  0  0
M  END
> <minimizedAffinity>
34.34905

> <CNNscore>
0.3836697340

> <CNNaffinity>
6.3043742180

> <CNN_VS>
2.4187974930

> <CNNaffinity_variance>
0.7354313135

$$$$
[H]c1nc2nc([H])n(C([H])([H])c3c([H])c([H])c4c(-c5c([H])c([H])c(F)c([H])c5Cl)c([H])c(C(=O)N([H])[H])nc4c3[H])c2c([H])c1[H]


 33 37  0  0  0  0  0  0  0  0999 V2000
   22.1025    9.5859   52.7077 C   0  0  0  0  0  0  0  0  0  0  0  0
   21.2733    8.4846   52.7590 C   0  0  0  0  0  0  0  0  0  0  0  0
   21.7062    7.2378   53.2239 C   0  0  0  0  0  0  0  0  0  0  0  0
   23.0028    7.1525   53.6303 C   0  0  0  0  0  0  0  0  0  0  0  0
   23.5528    5.9838   54.0927 C   0  0  0  0  0  0  0  0  0  0  0  0
   24.8769    5.8598   54.5066 C   0  0  0  0  0  0  0  0  0  0  0  0
   25.6838    6.9538   54.4541 C   0  0  0  0  0  0  0  0  0  0  0  0
   25.1605    8.1425   53.9920 C   0  0  0  0  0  0  0  0  0  0  0  0
   23.8558    8.2681   53.5828 C   0  0  0  0  0  0  0  0  0  0  0  0
   23.3693    9.4312   53.1253 N   0  0  0  0  0  0  0  0  0  0  0  0
   20.7820    6.1446   53.3085 C   0  0  0  0  0  0  0  0  0  0  0  0
   21.0747    4.8079   53.1668 C   0  0  0  0  0  0  0  0  0  0  0  0
   20.1716    3.7830   53.3086 C   0  0  0  0  0  0  0  0  0  0  0  0
   18.8673    4.1551   53.6200 C   0  0  0  0  0  0  0  0  0  0  0  0
   17.8971    3.2244   53.7815 F   0  0  0  0  0  0  0  0  0  0  0  0
   18.5256    5.4781   53.7717 C   0  0  0  0  0  0  0  0  0  0  0  0
   19.4606    6.4694   53.6206 C   0  0  0  0  0  0  0  0  0  0  0  0
   18.9743    8.1268   53.8085 Cl  0  0  0  0  0  0  0  0  0  0  0  0
   21.5548   11.9594   53.1243 N   0  0  0  0  0  0  0  0  0  0  0  0
   21.6261   10.8764   52.2175 C   0  0  0  0  0  0  0  0  0  0  0  0
   21.2792   11.0547   51.0222 O   0  0  0  0  0  0  0  0  0  0  0  0
   22.3398   12.6361   53.2251 H   0  0  0  0  0  0  0  0  0  0  0  0
   20.6824   12.0571   53.6928 H   0  0  0  0  0  0  0  0  0  0  0  0
   27.1063    6.9164   54.8788 C   0  0  0  0  0  0  0  0  0  0  0  0
   27.5810    8.2770   55.0315 N   0  0  0  0  0  0  0  0  0  0  0  0
   27.8775    9.1448   54.0568 C   0  0  0  0  0  0  0  0  0  0  0  0
   28.2828   10.3124   54.5840 N   0  0  0  0  0  0  0  0  0  0  0  0
   28.2531   10.2133   55.9425 C   0  0  0  0  0  0  0  0  0  0  0  0
   28.5569   11.0825   56.9302 N   0  0  0  0  0  0  0  0  0  0  0  0
   28.4390   10.7281   58.2208 C   0  0  0  0  0  0  0  0  0  0  0  0
   28.0009    9.4572   58.5277 C   0  0  0  0  0  0  0  0  0  0  0  0
   27.6888    8.5646   57.5249 C   0  0  0  0  0  0  0  0  0  0  0  0
   27.8076    8.9218   56.1874 C   0  0  0  0  0  0  0  0  0  0  0  0
 19 20  1  0  0  0
 20 21  2  0  0  0
 20  1  1  0  0  0
  1  2  2  0  0  0
  2  3  1  0  0  0
  3 11  1  0  0  0
 11 12  2  0  0  0
 12 13  1  0  0  0
 13 14  2  0  0  0
 14 15  1  0  0  0
 14 16  1  0  0  0
 16 17  2  0  0  0
 17 18  1  0  0  0
  3  4  2  0  0  0
  4  5  1  0  0  0
  5  6  2  0  0  0
  6  7  1  0  0  0
  7 24  1  0  0  0
 24 25  1  0  0  0
 25 26  1  0  0  0
 26 27  2  0  0  0
 27 28  1  0  0  0
 28 29  2  0  0  0
 29 30  1  0  0  0
 30 31  2  0  0  0
 31 32  1  0  0  0
 32 33  2  0  0  0
  7  8  2  0  0  0
  8  9  1  0  0  0
  9 10  2  0  0  0
 10  1  1  0  0  0
 17 11  1  0  0  0
  9  4  1  0  0  0
 33 25  1  0  0  0
 33 28  1  0  0  0
 19 22  1  0  0  0
 19 23  1  0  0  0
M  END
> <minimizedAffinity>
31.83334

> <CNNscore>
0.3801979125

> <CNNaffinity>
6.2090477943

> <CNN_VS>
2.3606669903

> <CNNaffinity_variance>
0.3447437882

$$$$
[H]c1nc(C([H])([H])[H])c([H])c(-c2nc(-c3c([H])c(C(F)(F)F)c([H])c(C([H])(OC([H])([H])C([H])([H])[H])C([H])([H])[H])c3[H])n3c2C([H])([H])C([H])([H])OC([H])([H])C3([H])[H])c1[H]


 32 35  0  0  0  0  0  0  0  0999 V2000
   25.3320    8.5251   52.9652 C   0  0  0  0  0  0  0  0  0  0  0  0
   25.7401    8.8782   51.7090 N   0  0  0  0  0  0  0  0  0  0  0  0
   27.0293    9.2119   51.7252 C   0  0  0  0  0  0  0  0  0  0  0  0
   27.4846    9.0799   52.9960 C   0  0  0  0  0  0  0  0  0  0  0  0
   28.8446    9.3960   53.4994 C   0  0  0  0  0  0  0  0  0  0  0  0
   29.3283    8.3997   54.4854 C   0  0  0  0  0  0  0  0  0  0  0  0
   28.4591    7.3360   54.6485 O   0  0  0  0  0  0  0  0  0  0  0  0
   27.5359    7.5918   55.6685 C   0  0  0  0  0  0  0  0  0  0  0  0
   26.3429    8.3473   55.1666 C   0  0  0  0  0  0  0  0  0  0  0  0
   26.4167    8.6517   53.7283 N   0  0  0  0  0  0  0  0  0  0  0  0
   27.8447    9.5967   50.5502 C   0  0  0  0  0  0  0  0  0  0  0  0
   28.3458   10.8399   50.3219 C   0  0  0  0  0  0  0  0  0  0  0  0
   29.1123   11.0546   49.1832 C   0  0  0  0  0  0  0  0  0  0  0  0
   29.3671   10.0697   48.3167 N   0  0  0  0  0  0  0  0  0  0  0  0
   28.8978    8.8238   48.4921 C   0  0  0  0  0  0  0  0  0  0  0  0
   29.1759    7.7060   47.5430 C   0  0  0  0  0  0  0  0  0  0  0  0
   28.1376    8.5970   49.6074 C   0  0  0  0  0  0  0  0  0  0  0  0
   21.8547    7.0059   53.3309 C   0  0  0  0  0  0  0  0  0  0  0  0
   23.1690    7.2028   52.9346 C   0  0  0  0  0  0  0  0  0  0  0  0
   23.9287    8.2662   53.2890 C   0  0  0  0  0  0  0  0  0  0  0  0
   23.3237    9.2271   54.1225 C   0  0  0  0  0  0  0  0  0  0  0  0
   22.0461    9.1044   54.5466 C   0  0  0  0  0  0  0  0  0  0  0  0
   21.3249    8.0086   54.1525 C   0  0  0  0  0  0  0  0  0  0  0  0
   21.4326   10.1434   55.4651 C   0  0  0  0  0  0  0  0  0  0  0  0
   20.2081    9.6612   55.8629 F   0  0  0  0  0  0  0  0  0  0  0  0
   22.2888   10.2367   56.5522 F   0  0  0  0  0  0  0  0  0  0  0  0
   21.3152   11.2708   54.7353 F   0  0  0  0  0  0  0  0  0  0  0  0
   21.0274    5.8515   52.9677 C   0  0  0  0  0  0  0  0  0  0  0  0
   19.6109    6.3705   52.5962 C   0  0  0  0  0  0  0  0  0  0  0  0
   20.9158    4.8256   53.8394 O   0  0  0  0  0  0  0  0  0  0  0  0
   19.6510    2.9374   52.9119 C   0  0  0  0  0  0  0  0  0  0  0  0
   19.7069    4.1727   53.7203 C   0  0  0  0  0  0  0  0  0  0  0  0
 31 32  1  0  0  0
 32 30  1  0  0  0
 30 28  1  0  0  0
 28 29  1  0  0  0
 28 18  1  0  0  0
 18 19  2  0  0  0
 19 20  1  0  0  0
 20 21  2  0  0  0
 21 22  1  0  0  0
 22 23  2  0  0  0
 22 24  1  0  0  0
 24 25  1  0  0  0
 24 26  1  0  0  0
 24 27  1  0  0  0
 20  1  1  0  0  0
  1  2  2  0  0  0
  2  3  1  0  0  0
  3  4  2  0  0  0
  4  5  1  0  0  0
  5  6  1  0  0  0
  6  7  1  0  0  0
  7  8  1  0  0  0
  8  9  1  0  0  0
  9 10  1  0  0  0
  3 11  1  0  0  0
 11 12  2  0  0  0
 12 13  1  0  0  0
 13 14  2  0  0  0
 14 15  1  0  0  0
 15 16  1  0  0  0
 15 17  2  0  0  0
 23 18  1  0  0  0
 10  1  1  0  0  0
 17 11  1  0  0  0
 10  4  1  0  0  0
M  END
> <minimizedAffinity>
33.33025

> <CNNscore>
0.4638305604

> <CNNaffinity>
5.8989396095

> <CNN_VS>
2.7361085415

> <CNNaffinity_variance>
0.1601862013

$$$$
[H]c1nc(C([H])([H])[H])c([H])c(-c2nc(-c3c([H])c(C(F)(F)F)c([H])c(C([H])(OC([H])([H])C([H])([H])[H])C([H])([H])[H])c3[H])n3c2C([H])([H])C([H])([H])OC([H])([H])C3([H])[H])c1[H]


 32 35  0  0  0  0  0  0  0  0999 V2000
   25.5276    8.3895   53.1153 C   0  0  0  0  0  0  0  0  0  0  0  0
   25.9125    8.6436   51.8283 N   0  0  0  0  0  0  0  0  0  0  0  0
   27.0982    9.2500   51.8182 C   0  0  0  0  0  0  0  0  0  0  0  0
   27.5076    9.4001   53.1024 C   0  0  0  0  0  0  0  0  0  0  0  0
   28.7421   10.0731   53.5779 C   0  0  0  0  0  0  0  0  0  0  0  0
   29.3781    9.3549   54.7087 C   0  0  0  0  0  0  0  0  0  0  0  0
   28.7492    8.1605   55.0113 O   0  0  0  0  0  0  0  0  0  0  0  0
   27.7433    8.3487   55.9658 C   0  0  0  0  0  0  0  0  0  0  0  0
   26.4428    8.7472   55.3366 C   0  0  0  0  0  0  0  0  0  0  0  0
   26.5209    8.8557   53.8708 N   0  0  0  0  0  0  0  0  0  0  0  0
   27.8697    9.6351   50.6140 C   0  0  0  0  0  0  0  0  0  0  0  0
   28.3191   10.8897   50.3438 C   0  0  0  0  0  0  0  0  0  0  0  0
   29.0489   11.1040   49.1812 C   0  0  0  0  0  0  0  0  0  0  0  0
   29.3183   10.1080   48.3320 N   0  0  0  0  0  0  0  0  0  0  0  0
   28.8995    8.8506   48.5485 C   0  0  0  0  0  0  0  0  0  0  0  0
   29.1950    7.7208   47.6192 C   0  0  0  0  0  0  0  0  0  0  0  0
   28.1759    8.6239   49.6878 C   0  0  0  0  0  0  0  0  0  0  0  0
   21.7859    7.6750   53.2660 C   0  0  0  0  0  0  0  0  0  0  0  0
   23.0026    8.2513   52.9331 C   0  0  0  0  0  0  0  0  0  0  0  0
   24.1976    7.8781   53.4486 C   0  0  0  0  0  0  0  0  0  0  0  0
   24.1827    6.8257   54.3848 C   0  0  0  0  0  0  0  0  0  0  0  0
   23.0353    6.2176   54.7602 C   0  0  0  0  0  0  0  0  0  0  0  0
   21.8557    6.6407   54.2075 C   0  0  0  0  0  0  0  0  0  0  0  0
   23.0563    5.0696   55.7508 C   0  0  0  0  0  0  0  0  0  0  0  0
   24.2744    5.1050   56.3874 F   0  0  0  0  0  0  0  0  0  0  0  0
   22.0352    5.3318   56.6520 F   0  0  0  0  0  0  0  0  0  0  0  0
   22.9007    3.9430   55.0271 F   0  0  0  0  0  0  0  0  0  0  0  0
   20.4879    8.0589   52.7031 C   0  0  0  0  0  0  0  0  0  0  0  0
   19.6103    6.7811   52.5981 C   0  0  0  0  0  0  0  0  0  0  0  0
   20.4547    8.7246   51.5281 O   0  0  0  0  0  0  0  0  0  0  0  0
   21.3127   10.6596   52.7710 C   0  0  0  0  0  0  0  0  0  0  0  0
   21.2634    9.8417   51.5417 C   0  0  0  0  0  0  0  0  0  0  0  0
 31 32  1  0  0  0
 32 30  1  0  0  0
 30 28  1  0  0  0
 28 29  1  0  0  0
 28 18  1  0  0  0
 18 19  2  0  0  0
 19 20  1  0  0  0
 20 21  2  0  0  0
 21 22  1  0  0  0
 22 23  2  0  0  0
 22 24  1  0  0  0
 24 25  1  0  0  0
 24 26  1  0  0  0
 24 27  1  0  0  0
 20  1  1  0  0  0
  1  2  2  0  0  0
  2  3  1  0  0  0
  3  4  2  0  0  0
  4  5  1  0  0  0
  5  6  1  0  0  0
  6  7  1  0  0  0
  7  8  1  0  0  0
  8  9  1  0  0  0
  9 10  1  0  0  0
  3 11  1  0  0  0
 11 12  2  0  0  0
 12 13  1  0  0  0
 13 14  2  0  0  0
 14 15  1  0  0  0
 15 16  1  0  0  0
 15 17  2  0  0  0
 23 18  1  0  0  0
 10  1  1  0  0  0
 17 11  1  0  0  0
 10  4  1  0  0  0
M  END
> <minimizedAffinity>
33.06988

> <CNNscore>
0.4378280640

> <CNNaffinity>
5.8861036301

> <CNN_VS>
2.5771014690

> <CNNaffinity_variance>
0.1453473717

$$$$
[H]c1nc(C([H])([H])[H])c([H])c(-c2nc(-c3c([H])c(C(F)(F)F)c([H])c(C([H])(OC([H])([H])C([H])([H])[H])C([H])([H])[H])c3[H])n3c2C([H])([H])C([H])([H])OC([H])([H])C3([H])[H])c1[H]


 32 35  0  0  0  0  0  0  0  0999 V2000
   23.5755    7.6537   53.2407 C   0  0  0  0  0  0  0  0  0  0  0  0
   23.1900    6.3477   53.3627 N   0  0  0  0  0  0  0  0  0  0  0  0
   21.8616    6.2591   53.3295 C   0  0  0  0  0  0  0  0  0  0  0  0
   21.3578    7.5098   53.1833 C   0  0  0  0  0  0  0  0  0  0  0  0
   19.9269    7.9032   53.1541 C   0  0  0  0  0  0  0  0  0  0  0  0
   19.6506    8.9574   52.1486 C   0  0  0  0  0  0  0  0  0  0  0  0
   20.7574    9.2752   51.3820 O   0  0  0  0  0  0  0  0  0  0  0  0
   21.4928   10.3130   51.9653 C   0  0  0  0  0  0  0  0  0  0  0  0
   22.4757    9.8030   52.9752 C   0  0  0  0  0  0  0  0  0  0  0  0
   22.4389    8.3394   53.1272 N   0  0  0  0  0  0  0  0  0  0  0  0
   21.0702    5.0082   53.3766 C   0  0  0  0  0  0  0  0  0  0  0  0
   21.5565    3.7670   53.1081 C   0  0  0  0  0  0  0  0  0  0  0  0
   20.7019    2.6763   53.2096 C   0  0  0  0  0  0  0  0  0  0  0  0
   19.4224    2.8222   53.5664 N   0  0  0  0  0  0  0  0  0  0  0  0
   18.8895    4.0235   53.8427 C   0  0  0  0  0  0  0  0  0  0  0  0
   17.4663    4.2104   54.2512 C   0  0  0  0  0  0  0  0  0  0  0  0
   19.7177    5.1086   53.7435 C   0  0  0  0  0  0  0  0  0  0  0  0
   27.1780    8.7690   52.6827 C   0  0  0  0  0  0  0  0  0  0  0  0
   25.8901    8.3134   52.4438 C   0  0  0  0  0  0  0  0  0  0  0  0
   24.9661    8.0787   53.4052 C   0  0  0  0  0  0  0  0  0  0  0  0
   25.3594    8.3244   54.7352 C   0  0  0  0  0  0  0  0  0  0  0  0
   26.5986    8.7665   55.0454 C   0  0  0  0  0  0  0  0  0  0  0  0
   27.4927    8.9826   54.0304 C   0  0  0  0  0  0  0  0  0  0  0  0
   26.9823    9.0466   56.4854 C   0  0  0  0  0  0  0  0  0  0  0  0
   28.1154    8.3155   56.7532 F   0  0  0  0  0  0  0  0  0  0  0  0
   27.2612   10.4040   56.5430 F   0  0  0  0  0  0  0  0  0  0  0  0
   25.9380    8.6481   57.2391 F   0  0  0  0  0  0  0  0  0  0  0  0
   28.1819    9.0424   51.6499 C   0  0  0  0  0  0  0  0  0  0  0  0
   28.6837   10.5006   51.8384 C   0  0  0  0  0  0  0  0  0  0  0  0
   27.8590    8.8423   50.3535 O   0  0  0  0  0  0  0  0  0  0  0  0
   28.5568    9.5513   48.1095 C   0  0  0  0  0  0  0  0  0  0  0  0
   28.3337    9.8491   49.5392 C   0  0  0  0  0  0  0  0  0  0  0  0
 31 32  1  0  0  0
 32 30  1  0  0  0
 30 28  1  0  0  0
 28 29  1  0  0  0
 28 18  1  0  0  0
 18 19  2  0  0  0
 19 20  1  0  0  0
 20 21  2  0  0  0
 21 22  1  0  0  0
 22 23  2  0  0  0
 22 24  1  0  0  0
 24 25  1  0  0  0
 24 26  1  0  0  0
 24 27  1  0  0  0
 20  1  1  0  0  0
  1  2  2  0  0  0
  2  3  1  0  0  0
  3  4  2  0  0  0
  4  5  1  0  0  0
  5  6  1  0  0  0
  6  7  1  0  0  0
  7  8  1  0  0  0
  8  9  1  0  0  0
  9 10  1  0  0  0
  3 11  1  0  0  0
 11 12  2  0  0  0
 12 13  1  0  0  0
 13 14  2  0  0  0
 14 15  1  0  0  0
 15 16  1  0  0  0
 15 17  2  0  0  0
 23 18  1  0  0  0
 10  1  1  0  0  0
 17 11  1  0  0  0
 10  4  1  0  0  0
M  END
> <minimizedAffinity>
36.32009

> <CNNscore>
0.4320544004

> <CNNaffinity>
6.5446486473

> <CNN_VS>
2.8276443481

> <CNNaffinity_variance>
0.7079054117

$$$$
[H]c1nc(C([H])([H])[H])c([H])c(-c2nc(-c3c([H])c(C(F)(F)F)c([H])c(C([H])(OC([H])([H])C([H])([H])[H])C([H])([H])[H])c3[H])n3c2C([H])([H])C([H])([H])OC([H])([H])C3([H])[H])c1[H]


 32 35  0  0  0  0  0  0  0  0999 V2000
   23.2693    7.7940   53.9448 C   0  0  0  0  0  0  0  0  0  0  0  0
   22.8694    6.4892   54.0268 N   0  0  0  0  0  0  0  0  0  0  0  0
   21.6097    6.3711   53.6110 C   0  0  0  0  0  0  0  0  0  0  0  0
   21.1669    7.6008   53.2486 C   0  0  0  0  0  0  0  0  0  0  0  0
   19.8064    7.9618   52.7776 C   0  0  0  0  0  0  0  0  0  0  0  0
   19.8342    8.9515   51.6737 C   0  0  0  0  0  0  0  0  0  0  0  0
   21.1164    9.2485   51.2475 O   0  0  0  0  0  0  0  0  0  0  0  0
   21.6444   10.3328   51.9572 C   0  0  0  0  0  0  0  0  0  0  0  0
   22.2888    9.9014   53.2396 C   0  0  0  0  0  0  0  0  0  0  0  0
   22.2139    8.4483   53.4621 N   0  0  0  0  0  0  0  0  0  0  0  0
   20.8436    5.1085   53.4993 C   0  0  0  0  0  0  0  0  0  0  0  0
   21.3523    3.9229   53.0698 C   0  0  0  0  0  0  0  0  0  0  0  0
   20.5203    2.8109   53.0331 C   0  0  0  0  0  0  0  0  0  0  0  0
   19.2408    2.8830   53.4119 N   0  0  0  0  0  0  0  0  0  0  0  0
   18.6863    4.0271   53.8441 C   0  0  0  0  0  0  0  0  0  0  0  0
   17.2627    4.1302   54.2801 C   0  0  0  0  0  0  0  0  0  0  0  0
   19.4921    5.1327   53.8825 C   0  0  0  0  0  0  0  0  0  0  0  0
   26.0783    9.0749   56.1813 C   0  0  0  0  0  0  0  0  0  0  0  0
   24.8195    8.7046   55.7324 C   0  0  0  0  0  0  0  0  0  0  0  0
   24.5487    8.2565   54.4837 C   0  0  0  0  0  0  0  0  0  0  0  0
   25.6370    8.1637   53.5942 C   0  0  0  0  0  0  0  0  0  0  0  0
   26.8917    8.5094   53.9595 C   0  0  0  0  0  0  0  0  0  0  0  0
   27.1045    8.9598   55.2354 C   0  0  0  0  0  0  0  0  0  0  0  0
   28.0463    8.3728   52.9860 C   0  0  0  0  0  0  0  0  0  0  0  0
   28.3924    7.0426   52.9508 F   0  0  0  0  0  0  0  0  0  0  0  0
   27.5491    8.7728   51.7545 F   0  0  0  0  0  0  0  0  0  0  0  0
   29.0436    9.1383   53.4725 F   0  0  0  0  0  0  0  0  0  0  0  0
   26.3871    9.5458   57.5348 C   0  0  0  0  0  0  0  0  0  0  0  0
   27.1986   10.8650   57.4136 C   0  0  0  0  0  0  0  0  0  0  0  0
   27.0131    8.7102   58.3920 O   0  0  0  0  0  0  0  0  0  0  0  0
   29.2786    8.0638   59.0813 C   0  0  0  0  0  0  0  0  0  0  0  0
   28.3178    9.0902   58.6272 C   0  0  0  0  0  0  0  0  0  0  0  0
 31 32  1  0  0  0
 32 30  1  0  0  0
 30 28  1  0  0  0
 28 29  1  0  0  0
 28 18  1  0  0  0
 18 19  2  0  0  0
 19 20  1  0  0  0
 20 21  2  0  0  0
 21 22  1  0  0  0
 22 23  2  0  0  0
 22 24  1  0  0  0
 24 25  1  0  0  0
 24 26  1  0  0  0
 24 27  1  0  0  0
 20  1  1  0  0  0
  1  2  2  0  0  0
  2  3  1  0  0  0
  3  4  2  0  0  0
  4  5  1  0  0  0
  5  6  1  0  0  0
  6  7  1  0  0  0
  7  8  1  0  0  0
  8  9  1  0  0  0
  9 10  1  0  0  0
  3 11  1  0  0  0
 11 12  2  0  0  0
 12 13  1  0  0  0
 13 14  2  0  0  0
 14 15  1  0  0  0
 15 16  1  0  0  0
 15 17  2  0  0  0
 23 18  1  0  0  0
 10  1  1  0  0  0
 17 11  1  0  0  0
 10  4  1  0  0  0
M  END
> <minimizedAffinity>
30.60966

> <CNNscore>
0.4313989282

> <CNNaffinity>
6.3238854408

> <CNN_VS>
2.7281174660

> <CNNaffinity_variance>
0.6159611344

$$$$
[H]c1nc(C([H])([H])[H])c([H])c(-c2nc(-c3c([H])c(C(F)(F)F)c([H])c(C([H])(OC([H])([H])C([H])([H])[H])C([H])([H])[H])c3[H])n3c2C([H])([H])C([H])([H])OC([H])([H])C3([H])[H])c1[H]


 32 35  0  0  0  0  0  0  0  0999 V2000
   25.3237    8.5907   53.3943 C   0  0  0  0  0  0  0  0  0  0  0  0
   25.6812    8.6517   52.0761 N   0  0  0  0  0  0  0  0  0  0  0  0
   26.9716    8.9625   51.9673 C   0  0  0  0  0  0  0  0  0  0  0  0
   27.4785    9.1083   53.2168 C   0  0  0  0  0  0  0  0  0  0  0  0
   28.8598    9.5085   53.5839 C   0  0  0  0  0  0  0  0  0  0  0  0
   29.3789    8.7481   54.7462 C   0  0  0  0  0  0  0  0  0  0  0  0
   28.5119    7.7591   55.1747 O   0  0  0  0  0  0  0  0  0  0  0  0
   27.6331    8.2469   56.1484 C   0  0  0  0  0  0  0  0  0  0  0  0
   26.4241    8.8896   55.5389 C   0  0  0  0  0  0  0  0  0  0  0  0
   26.4397    8.8675   54.0672 N   0  0  0  0  0  0  0  0  0  0  0  0
   27.7394    9.0666   50.7051 C   0  0  0  0  0  0  0  0  0  0  0  0
   28.3175    8.0213   50.0554 C   0  0  0  0  0  0  0  0  0  0  0  0
   28.9944    8.2633   48.8664 C   0  0  0  0  0  0  0  0  0  0  0  0
   29.0845    9.4932   48.3517 N   0  0  0  0  0  0  0  0  0  0  0  0
   28.5333   10.5612   48.9506 C   0  0  0  0  0  0  0  0  0  0  0  0
   28.6136   11.9424   48.3909 C   0  0  0  0  0  0  0  0  0  0  0  0
   27.8662   10.3400   50.1250 C   0  0  0  0  0  0  0  0  0  0  0  0
   21.8323    9.0909   54.8412 C   0  0  0  0  0  0  0  0  0  0  0  0
   23.1657    9.2985   54.5212 C   0  0  0  0  0  0  0  0  0  0  0  0
   23.9337    8.4295   53.8223 C   0  0  0  0  0  0  0  0  0  0  0  0
   23.3146    7.2382   53.3961 C   0  0  0  0  0  0  0  0  0  0  0  0
   22.0199    6.9654   53.6729 C   0  0  0  0  0  0  0  0  0  0  0  0
   21.2933    7.8809   54.3871 C   0  0  0  0  0  0  0  0  0  0  0  0
   21.3758    5.6855   53.1767 C   0  0  0  0  0  0  0  0  0  0  0  0
   20.3436    5.3909   54.0359 F   0  0  0  0  0  0  0  0  0  0  0  0
   20.8817    5.9780   51.9142 F   0  0  0  0  0  0  0  0  0  0  0  0
   22.3382    4.7419   53.2062 F   0  0  0  0  0  0  0  0  0  0  0  0
   20.9861   10.0306   55.5827 C   0  0  0  0  0  0  0  0  0  0  0  0
   19.6450    9.3178   55.9099 C   0  0  0  0  0  0  0  0  0  0  0  0
   20.7309   11.2446   55.0478 O   0  0  0  0  0  0  0  0  0  0  0  0
   21.3458   11.2342   52.6715 C   0  0  0  0  0  0  0  0  0  0  0  0
   21.6467   11.5856   54.0746 C   0  0  0  0  0  0  0  0  0  0  0  0
 31 32  1  0  0  0
 32 30  1  0  0  0
 30 28  1  0  0  0
 28 29  1  0  0  0
 28 18  1  0  0  0
 18 19  2  0  0  0
 19 20  1  0  0  0
 20 21  2  0  0  0
 21 22  1  0  0  0
 22 23  2  0  0  0
 22 24  1  0  0  0
 24 25  1  0  0  0
 24 26  1  0  0  0
 24 27  1  0  0  0
 20  1  1  0  0  0
  1  2  2  0  0  0
  2  3  1  0  0  0
  3  4  2  0  0  0
  4  5  1  0  0  0
  5  6  1  0  0  0
  6  7  1  0  0  0
  7  8  1  0  0  0
  8  9  1  0  0  0
  9 10  1  0  0  0
  3 11  1  0  0  0
 11 12  2  0  0  0
 12 13  1  0  0  0
 13 14  2  0  0  0
 14 15  1  0  0  0
 15 16  1  0  0  0
 15 17  2  0  0  0
 23 18  1  0  0  0
 10  1  1  0  0  0
 17 11  1  0  0  0
 10  4  1  0  0  0
M  END
> <minimizedAffinity>
36.86061

> <CNNscore>
0.4137187600

> <CNNaffinity>
5.7603321075

> <CNN_VS>
2.3831574917

> <CNNaffinity_variance>
0.0749687850

$$$$
[H]c1nc(C([H])([H])[H])c([H])c(-c2nc(-c3c([H])c(C(F)(F)F)c([H])c(C([H])(OC([H])([H])C([H])([H])[H])C([H])([H])[H])c3[H])n3c2C([H])([H])C([H])([H])OC([H])([H])C3([H])[H])c1[H]


 32 35  0  0  0  0  0  0  0  0999 V2000
   23.9139    7.8628   53.8956 C   0  0  0  0  0  0  0  0  0  0  0  0
   23.4428    6.6446   53.4917 N   0  0  0  0  0  0  0  0  0  0  0  0
   22.1737    6.4987   53.8681 C   0  0  0  0  0  0  0  0  0  0  0  0
   21.7950    7.6236   54.5242 C   0  0  0  0  0  0  0  0  0  0  0  0
   20.4855    7.8873   55.1713 C   0  0  0  0  0  0  0  0  0  0  0  0
   20.0212    9.2799   54.9615 C   0  0  0  0  0  0  0  0  0  0  0  0
   20.8502   10.0046   54.1241 O   0  0  0  0  0  0  0  0  0  0  0  0
   21.8472   10.6651   54.8507 C   0  0  0  0  0  0  0  0  0  0  0  0
   23.0386    9.7881   55.0901 C   0  0  0  0  0  0  0  0  0  0  0  0
   22.8871    8.4407   54.5173 N   0  0  0  0  0  0  0  0  0  0  0  0
   21.3032    5.3390   53.5666 C   0  0  0  0  0  0  0  0  0  0  0  0
   21.7250    4.1693   53.0164 C   0  0  0  0  0  0  0  0  0  0  0  0
   20.7985    3.1558   52.8051 C   0  0  0  0  0  0  0  0  0  0  0  0
   19.5118    3.3062   53.1326 N   0  0  0  0  0  0  0  0  0  0  0  0
   19.0404    4.4391   53.6783 C   0  0  0  0  0  0  0  0  0  0  0  0
   17.6100    4.6274   54.0600 C   0  0  0  0  0  0  0  0  0  0  0  0
   19.9402    5.4486   53.8894 C   0  0  0  0  0  0  0  0  0  0  0  0
   27.3507    8.8881   52.6028 C   0  0  0  0  0  0  0  0  0  0  0  0
   26.0257    8.4798   52.6356 C   0  0  0  0  0  0  0  0  0  0  0  0
   25.3220    8.2400   53.7672 C   0  0  0  0  0  0  0  0  0  0  0  0
   26.0008    8.4279   54.9870 C   0  0  0  0  0  0  0  0  0  0  0  0
   27.2931    8.8217   55.0340 C   0  0  0  0  0  0  0  0  0  0  0  0
   27.9553    9.0458   53.8561 C   0  0  0  0  0  0  0  0  0  0  0  0
   27.9874    9.0406   56.3642 C   0  0  0  0  0  0  0  0  0  0  0  0
   28.3380   10.3686   56.4255 F   0  0  0  0  0  0  0  0  0  0  0  0
   27.0410    8.7480   57.3349 F   0  0  0  0  0  0  0  0  0  0  0  0
   29.0687    8.2355   56.3632 F   0  0  0  0  0  0  0  0  0  0  0  0
   28.1183    9.1666   51.3854 C   0  0  0  0  0  0  0  0  0  0  0  0
   28.8129   10.5456   51.5575 C   0  0  0  0  0  0  0  0  0  0  0  0
   27.4889    9.1264   50.1908 O   0  0  0  0  0  0  0  0  0  0  0  0
   28.5898    8.9108   48.0075 C   0  0  0  0  0  0  0  0  0  0  0  0
   28.2332    9.7185   49.1920 C   0  0  0  0  0  0  0  0  0  0  0  0
 31 32  1  0  0  0
 32 30  1  0  0  0
 30 28  1  0  0  0
 28 29  1  0  0  0
 28 18  1  0  0  0
 18 19  2  0  0  0
 19 20  1  0  0  0
 20 21  2  0  0  0
 21 22  1  0  0  0
 22 23  2  0  0  0
 22 24  1  0  0  0
 24 25  1  0  0  0
 24 26  1  0  0  0
 24 27  1  0  0  0
 20  1  1  0  0  0
  1  2  2  0  0  0
  2  3  1  0  0  0
  3  4  2  0  0  0
  4  5  1  0  0  0
  5  6  1  0  0  0
  6  7  1  0  0  0
  7  8  1  0  0  0
  8  9  1  0  0  0
  9 10  1  0  0  0
  3 11  1  0  0  0
 11 12  2  0  0  0
 12 13  1  0  0  0
 13 14  2  0  0  0
 14 15  1  0  0  0
 15 16  1  0  0  0
 15 17  2  0  0  0
 23 18  1  0  0  0
 10  1  1  0  0  0
 17 11  1  0  0  0
 10  4  1  0  0  0
M  END
> <minimizedAffinity>
32.00101

> <CNNscore>
0.3313234448

> <CNNaffinity>
6.3405961990

> <CNN_VS>
2.1007881165

> <CNNaffinity_variance>
0.4570183158

$$$$
[H]c1nc(C([H])([H])[H])c([H])c(-c2nc(-c3c([H])c(C(F)(F)F)c([H])c(C([H])(OC([H])([H])C([H])([H])[H])C([H])([H])[H])c3[H])n3c2C([H])([H])C([H])([H])OC([H])([H])C3([H])[H])c1[H]


 32 35  0  0  0  0  0  0  0  0999 V2000
   25.6284    8.0758   53.2966 C   0  0  0  0  0  0  0  0  0  0  0  0
   25.9800    8.1721   51.9789 N   0  0  0  0  0  0  0  0  0  0  0  0
   27.1027    8.8781   51.8568 C   0  0  0  0  0  0  0  0  0  0  0  0
   27.5034    9.2535   53.0969 C   0  0  0  0  0  0  0  0  0  0  0  0
   28.6711   10.1013   53.4444 C   0  0  0  0  0  0  0  0  0  0  0  0
   29.3790    9.6201   54.6553 C   0  0  0  0  0  0  0  0  0  0  0  0
   28.8682    8.4302   55.1417 O   0  0  0  0  0  0  0  0  0  0  0  0
   27.8546    8.6626   56.0780 C   0  0  0  0  0  0  0  0  0  0  0  0
   26.5184    8.8410   55.4231 C   0  0  0  0  0  0  0  0  0  0  0  0
   26.5774    8.7389   53.9559 N   0  0  0  0  0  0  0  0  0  0  0  0
   27.8270    9.1515   50.5942 C   0  0  0  0  0  0  0  0  0  0  0  0
   28.4586    8.2139   49.8385 C   0  0  0  0  0  0  0  0  0  0  0  0
   29.0847    8.6111   48.6635 C   0  0  0  0  0  0  0  0  0  0  0  0
   29.0752    9.8861   48.2635 N   0  0  0  0  0  0  0  0  0  0  0  0
   28.4675   10.8529   48.9702 C   0  0  0  0  0  0  0  0  0  0  0  0
   28.4365   12.2815   48.5396 C   0  0  0  0  0  0  0  0  0  0  0  0
   27.8493   10.4782   50.1323 C   0  0  0  0  0  0  0  0  0  0  0  0
   22.8875    6.1140   55.0776 C   0  0  0  0  0  0  0  0  0  0  0  0
   24.1383    6.5716   54.6911 C   0  0  0  0  0  0  0  0  0  0  0  0
   24.3551    7.4976   53.7273 C   0  0  0  0  0  0  0  0  0  0  0  0
   23.2162    8.0236   53.0867 C   0  0  0  0  0  0  0  0  0  0  0  0
   21.9654    7.6240   53.4079 C   0  0  0  0  0  0  0  0  0  0  0  0
   21.8081    6.6810   54.3888 C   0  0  0  0  0  0  0  0  0  0  0  0
   20.7586    8.2293   52.7176 C   0  0  0  0  0  0  0  0  0  0  0  0
   19.6410    7.6584   53.2790 F   0  0  0  0  0  0  0  0  0  0  0  0
   20.8017    9.5854   53.0053 F   0  0  0  0  0  0  0  0  0  0  0  0
   20.8769    7.9214   51.4105 F   0  0  0  0  0  0  0  0  0  0  0  0
   22.6388    5.1245   56.1302 C   0  0  0  0  0  0  0  0  0  0  0  0
   21.6349    5.7398   57.1438 C   0  0  0  0  0  0  0  0  0  0  0  0
   23.6896    4.6020   56.7993 O   0  0  0  0  0  0  0  0  0  0  0  0
   24.0595    3.3944   58.9041 C   0  0  0  0  0  0  0  0  0  0  0  0
   23.3104    3.5802   57.6444 C   0  0  0  0  0  0  0  0  0  0  0  0
 31 32  1  0  0  0
 32 30  1  0  0  0
 30 28  1  0  0  0
 28 29  1  0  0  0
 28 18  1  0  0  0
 18 19  2  0  0  0
 19 20  1  0  0  0
 20 21  2  0  0  0
 21 22  1  0  0  0
 22 23  2  0  0  0
 22 24  1  0  0  0
 24 25  1  0  0  0
 24 26  1  0  0  0
 24 27  1  0  0  0
 20  1  1  0  0  0
  1  2  2  0  0  0
  2  3  1  0  0  0
  3  4  2  0  0  0
  4  5  1  0  0  0
  5  6  1  0  0  0
  6  7  1  0  0  0
  7  8  1  0  0  0
  8  9  1  0  0  0
  9 10  1  0  0  0
  3 11  1  0  0  0
 11 12  2  0  0  0
 12 13  1  0  0  0
 13 14  2  0  0  0
 14 15  1  0  0  0
 15 16  1  0  0  0
 15 17  2  0  0  0
 23 18  1  0  0  0
 10  1  1  0  0  0
 17 11  1  0  0  0
 10  4  1  0  0  0
M  END
> <minimizedAffinity>
31.98119

> <CNNscore>
0.2454423159

> <CNNaffinity>
5.7392029762

> <CNN_VS>
1.4086432457

> <CNNaffinity_variance>
0.0839848667

$$$$
[H]c1nc(C([H])([H])[H])c([H])c(-c2nc(-c3c([H])c(C(F)(F)F)c([H])c(C([H])(OC([H])([H])C([H])([H])[H])C([H])([H])[H])c3[H])n3c2C([H])([H])C([H])([H])OC([H])([H])C3([H])[H])c1[H]


 32 35  0  0  0  0  0  0  0  0999 V2000
   25.6279    8.1616   53.2816 C   0  0  0  0  0  0  0  0  0  0  0  0
   25.9608    8.4134   51.9797 N   0  0  0  0  0  0  0  0  0  0  0  0
   27.0739    9.1427   51.9264 C   0  0  0  0  0  0  0  0  0  0  0  0
   27.4869    9.3777   53.1967 C   0  0  0  0  0  0  0  0  0  0  0  0
   28.6497   10.1944   53.6256 C   0  0  0  0  0  0  0  0  0  0  0  0
   29.3789    9.5859   54.7644 C   0  0  0  0  0  0  0  0  0  0  0  0
   28.8878    8.3415   55.1164 O   0  0  0  0  0  0  0  0  0  0  0  0
   27.8842    8.4518   56.0854 C   0  0  0  0  0  0  0  0  0  0  0  0
   26.5376    8.6877   55.4714 C   0  0  0  0  0  0  0  0  0  0  0  0
   26.5782    8.7561   54.0016 N   0  0  0  0  0  0  0  0  0  0  0  0
   27.7784    9.5688   50.6953 C   0  0  0  0  0  0  0  0  0  0  0  0
   28.1339   10.8484   50.4032 C   0  0  0  0  0  0  0  0  0  0  0  0
   28.8095   11.1016   49.2159 C   0  0  0  0  0  0  0  0  0  0  0  0
   29.1171   10.1191   48.3640 N   0  0  0  0  0  0  0  0  0  0  0  0
   28.7905    8.8383   48.6014 C   0  0  0  0  0  0  0  0  0  0  0  0
   29.1304    7.7234   47.6693 C   0  0  0  0  0  0  0  0  0  0  0  0
   28.1211    8.5730   49.7653 C   0  0  0  0  0  0  0  0  0  0  0  0
   22.9045    6.0943   54.9676 C   0  0  0  0  0  0  0  0  0  0  0  0
   24.1474    6.6138   54.6381 C   0  0  0  0  0  0  0  0  0  0  0  0
   24.3669    7.5217   53.6579 C   0  0  0  0  0  0  0  0  0  0  0  0
   23.2393    7.9594   52.9360 C   0  0  0  0  0  0  0  0  0  0  0  0
   21.9969    7.4959   53.1984 C   0  0  0  0  0  0  0  0  0  0  0  0
   21.8366    6.5750   54.1996 C   0  0  0  0  0  0  0  0  0  0  0  0
   20.8000    8.0072   52.4203 C   0  0  0  0  0  0  0  0  0  0  0  0
   20.9894    7.6533   51.1053 F   0  0  0  0  0  0  0  0  0  0  0  0
   19.7001    7.3435   52.9432 F   0  0  0  0  0  0  0  0  0  0  0  0
   20.7870    9.3454   52.5832 F   0  0  0  0  0  0  0  0  0  0  0  0
   22.6516    5.1237   56.0367 C   0  0  0  0  0  0  0  0  0  0  0  0
   21.6543    5.7622   57.0424 C   0  0  0  0  0  0  0  0  0  0  0  0
   23.7004    4.6052   56.7119 O   0  0  0  0  0  0  0  0  0  0  0  0
   23.8308    3.4108   58.8524 C   0  0  0  0  0  0  0  0  0  0  0  0
   23.3419    3.5043   57.4614 C   0  0  0  0  0  0  0  0  0  0  0  0
 31 32  1  0  0  0
 32 30  1  0  0  0
 30 28  1  0  0  0
 28 29  1  0  0  0
 28 18  1  0  0  0
 18 19  2  0  0  0
 19 20  1  0  0  0
 20 21  2  0  0  0
 21 22  1  0  0  0
 22 23  2  0  0  0
 22 24  1  0  0  0
 24 25  1  0  0  0
 24 26  1  0  0  0
 24 27  1  0  0  0
 20  1  1  0  0  0
  1  2  2  0  0  0
  2  3  1  0  0  0
  3  4  2  0  0  0
  4  5  1  0  0  0
  5  6  1  0  0  0
  6  7  1  0  0  0
  7  8  1  0  0  0
  8  9  1  0  0  0
  9 10  1  0  0  0
  3 11  1  0  0  0
 11 12  2  0  0  0
 12 13  1  0  0  0
 13 14  2  0  0  0
 14 15  1  0  0  0
 15 16  1  0  0  0
 15 17  2  0  0  0
 23 18  1  0  0  0
 10  1  1  0  0  0
 17 11  1  0  0  0
 10  4  1  0  0  0
M  END
> <minimizedAffinity>
30.19557

> <CNNscore>
0.1755667925

> <CNNaffinity>
5.7048583031

> <CNN_VS>
1.0015836954

> <CNNaffinity_variance>
0.0582941547

$$$$
[H]c1nc(C([H])([H])[H])c([H])c(-c2nc(-c3c([H])c(C(F)(F)F)c([H])c(C([H])(OC([H])([H])C([H])([H])[H])C([H])([H])[H])c3[H])n3c2C([H])([H])C([H])([H])OC([H])([H])C3([H])[H])c1[H]


 32 35  0  0  0  0  0  0  0  0999 V2000
   24.1315    8.3410   53.4509 C   0  0  0  0  0  0  0  0  0  0  0  0
   23.2500    7.9944   52.4650 N   0  0  0  0  0  0  0  0  0  0  0  0
   22.0265    7.8600   52.9735 C   0  0  0  0  0  0  0  0  0  0  0  0
   22.0903    8.1192   54.3033 C   0  0  0  0  0  0  0  0  0  0  0  0
   20.9828    8.0361   55.2879 C   0  0  0  0  0  0  0  0  0  0  0  0
   21.0221    9.1395   56.2777 C   0  0  0  0  0  0  0  0  0  0  0  0
   22.0143   10.0665   56.0133 O   0  0  0  0  0  0  0  0  0  0  0  0
   23.2087    9.7230   56.6563 C   0  0  0  0  0  0  0  0  0  0  0  0
   24.0309    8.7733   55.8389 C   0  0  0  0  0  0  0  0  0  0  0  0
   23.3967    8.4157   54.5596 N   0  0  0  0  0  0  0  0  0  0  0  0
   20.7956    7.5474   52.2115 C   0  0  0  0  0  0  0  0  0  0  0  0
   20.0880    6.3908   52.3131 C   0  0  0  0  0  0  0  0  0  0  0  0
   18.9376    6.2399   51.5489 C   0  0  0  0  0  0  0  0  0  0  0  0
   18.5149    7.2033   50.7250 N   0  0  0  0  0  0  0  0  0  0  0  0
   19.1742    8.3648   50.5851 C   0  0  0  0  0  0  0  0  0  0  0  0
   18.7172    9.4584   49.6780 C   0  0  0  0  0  0  0  0  0  0  0  0
   20.3118    8.5273   51.3285 C   0  0  0  0  0  0  0  0  0  0  0  0
   27.9243    8.1531   53.7866 C   0  0  0  0  0  0  0  0  0  0  0  0
   26.5733    8.1250   54.0983 C   0  0  0  0  0  0  0  0  0  0  0  0
   25.5760    8.4003   53.2247 C   0  0  0  0  0  0  0  0  0  0  0  0
   25.9590    8.7328   51.9106 C   0  0  0  0  0  0  0  0  0  0  0  0
   27.2562    8.7833   51.5339 C   0  0  0  0  0  0  0  0  0  0  0  0
   28.2220    8.4984   52.4625 C   0  0  0  0  0  0  0  0  0  0  0  0
   27.6343    9.1188   50.1043 C   0  0  0  0  0  0  0  0  0  0  0  0
   26.6274    8.6456   49.2964 F   0  0  0  0  0  0  0  0  0  0  0  0
   27.6879   10.5034   50.0446 F   0  0  0  0  0  0  0  0  0  0  0  0
   28.8047    8.4936   49.8661 F   0  0  0  0  0  0  0  0  0  0  0  0
   29.0122    7.8413   54.7185 C   0  0  0  0  0  0  0  0  0  0  0  0
   28.8128    6.3858   55.2239 C   0  0  0  0  0  0  0  0  0  0  0  0
   29.2253    8.6580   55.7732 O   0  0  0  0  0  0  0  0  0  0  0  0
   28.6930   11.0518   55.6645 C   0  0  0  0  0  0  0  0  0  0  0  0
   28.2711    9.6499   55.8625 C   0  0  0  0  0  0  0  0  0  0  0  0
 31 32  1  0  0  0
 32 30  1  0  0  0
 30 28  1  0  0  0
 28 29  1  0  0  0
 28 18  1  0  0  0
 18 19  2  0  0  0
 19 20  1  0  0  0
 20 21  2  0  0  0
 21 22  1  0  0  0
 22 23  2  0  0  0
 22 24  1  0  0  0
 24 25  1  0  0  0
 24 26  1  0  0  0
 24 27  1  0  0  0
 20  1  1  0  0  0
  1  2  2  0  0  0
  2  3  1  0  0  0
  3  4  2  0  0  0
  4  5  1  0  0  0
  5  6  1  0  0  0
  6  7  1  0  0  0
  7  8  1  0  0  0
  8  9  1  0  0  0
  9 10  1  0  0  0
  3 11  1  0  0  0
 11 12  2  0  0  0
 12 13  1  0  0  0
 13 14  2  0  0  0
 14 15  1  0  0  0
 15 16  1  0  0  0
 15 17  2  0  0  0
 23 18  1  0  0  0
 10  1  1  0  0  0
 17 11  1  0  0  0
 10  4  1  0  0  0
M  END
> <minimizedAffinity>
67.75011

> <CNNscore>
0.0465579219

> <CNNaffinity>
5.1696000099

> <CNN_VS>
0.2406858355

> <CNNaffinity_variance>
0.9578507543

$$$$
