[H]c1nc([H])n(-c2c([H])c([H])c([H])c(C3=Nc4c([H])c([H])c(-c5c([H])c([H])c([H])c([H])c5F)c([H])c4N([H])C(=O)C3([H])[H])c2[H])c1[H]


 31 35  0  0  0  0  0  0  0  0999 V2000
   25.4606    7.9473   54.6345 C   0  0  0  0  0  0  0  0  0  0  0  0
   25.2886    6.6015   54.9458 C   0  0  0  0  0  0  0  0  0  0  0  0
   24.1103    5.9285   54.6363 C   0  0  0  0  0  0  0  0  0  0  0  0
   23.0812    6.5970   54.0072 C   0  0  0  0  0  0  0  0  0  0  0  0
   21.9457    5.8215   53.7469 N   0  0  0  0  0  0  0  0  0  0  0  0
   20.7809    6.0473   53.2672 C   0  0  0  0  0  0  0  0  0  0  0  0
   20.1896    7.2821   52.7898 C   0  0  0  0  0  0  0  0  0  0  0  0
   21.0767    8.3715   52.4083 C   0  0  0  0  0  0  0  0  0  0  0  0
   20.7764    9.0794   51.3763 O   0  0  0  0  0  0  0  0  0  0  0  0
   22.2795    8.7850   53.0392 N   0  0  0  0  0  0  0  0  0  0  0  0
   23.2301    7.9410   53.6865 C   0  0  0  0  0  0  0  0  0  0  0  0
   24.4050    8.5759   54.0054 C   0  0  0  0  0  0  0  0  0  0  0  0
   22.5137    9.8043   53.0406 H   0  0  0  0  0  0  0  0  0  0  0  0
   27.4508    8.5387   52.6839 F   0  0  0  0  0  0  0  0  0  0  0  0
   27.6256    8.9054   53.9771 C   0  0  0  0  0  0  0  0  0  0  0  0
   28.8128    9.5698   54.2635 C   0  0  0  0  0  0  0  0  0  0  0  0
   29.0748    9.9792   55.5517 C   0  0  0  0  0  0  0  0  0  0  0  0
   28.1487    9.7195   56.5341 C   0  0  0  0  0  0  0  0  0  0  0  0
   26.9832    9.0669   56.2512 C   0  0  0  0  0  0  0  0  0  0  0  0
   26.6975    8.6453   54.9624 C   0  0  0  0  0  0  0  0  0  0  0  0
   19.9541    4.8432   53.2151 C   0  0  0  0  0  0  0  0  0  0  0  0
   20.5143    3.5918   52.9261 C   0  0  0  0  0  0  0  0  0  0  0  0
   19.7590    2.4433   52.8771 C   0  0  0  0  0  0  0  0  0  0  0  0
   18.3953    2.4879   53.1165 C   0  0  0  0  0  0  0  0  0  0  0  0
   17.8129    3.6988   53.4031 C   0  0  0  0  0  0  0  0  0  0  0  0
   18.6083    4.8500   53.4457 C   0  0  0  0  0  0  0  0  0  0  0  0
   16.4123    3.8166   53.6600 N   0  0  0  0  0  0  0  0  0  0  0  0
   15.7843    4.0513   54.8127 C   0  0  0  0  0  0  0  0  0  0  0  0
   14.4056    4.0829   54.5840 C   0  0  0  0  0  0  0  0  0  0  0  0
   14.2385    3.8629   53.2795 N   0  0  0  0  0  0  0  0  0  0  0  0
   15.4525    3.7025   52.7249 C   0  0  0  0  0  0  0  0  0  0  0  0
 14 15  1  0  0  0
 15 16  2  0  0  0
 16 17  1  0  0  0
 17 18  2  0  0  0
 18 19  1  0  0  0
 19 20  2  0  0  0
 20  1  1  0  0  0
  1  2  2  0  0  0
  2  3  1  0  0  0
  3  4  2  0  0  0
  4  5  1  0  0  0
  5  6  2  0  0  0
  6  7  1  0  0  0
  7  8  1  0  0  0
  8  9  2  0  0  0
  8 10  1  0  0  0
 10 11  1  0  0  0
 11 12  2  0  0  0
  6 21  1  0  0  0
 21 22  2  0  0  0
 22 23  1  0  0  0
 23 24  2  0  0  0
 24 25  1  0  0  0
 25 26  2  0  0  0
 25 27  1  0  0  0
 27 28  1  0  0  0
 28 29  2  0  0  0
 29 30  1  0  0  0
 30 31  2  0  0  0
 20 15  1  0  0  0
 12  1  1  0  0  0
 26 21  1  0  0  0
 31 27  1  0  0  0
 11  4  1  0  0  0
 10 13  1  0  0  0
M  END
> <minimizedAffinity>
31.18513

> <CNNscore>
0.6114280820

> <CNNaffinity>
6.6459479332

> <CNN_VS>
4.0635190010

> <CNNaffinity_variance>
0.4713071287

$$$$
[H]c1nc([H])n(-c2c([H])c([H])c([H])c(C3=Nc4c([H])c([H])c(-c5c([H])c([H])c([H])c([H])c5F)c([H])c4N([H])C(=O)C3([H])[H])c2[H])c1[H]


 31 35  0  0  0  0  0  0  0  0999 V2000
   25.7470    8.2869   54.4021 C   0  0  0  0  0  0  0  0  0  0  0  0
   25.5018    6.9698   54.7802 C   0  0  0  0  0  0  0  0  0  0  0  0
   24.2632    6.3713   54.5690 C   0  0  0  0  0  0  0  0  0  0  0  0
   23.2462    7.0868   53.9729 C   0  0  0  0  0  0  0  0  0  0  0  0
   22.0460    6.3850   53.8127 N   0  0  0  0  0  0  0  0  0  0  0  0
   20.8724    6.6747   53.3926 C   0  0  0  0  0  0  0  0  0  0  0  0
   20.3396    7.9293   52.8981 C   0  0  0  0  0  0  0  0  0  0  0  0
   21.2749    8.9370   52.4192 C   0  0  0  0  0  0  0  0  0  0  0  0
   20.9615    9.6242   51.3771 O   0  0  0  0  0  0  0  0  0  0  0  0
   22.5396    9.2875   52.9606 N   0  0  0  0  0  0  0  0  0  0  0  0
   23.4675    8.4034   53.5869 C   0  0  0  0  0  0  0  0  0  0  0  0
   24.7008    8.9646   53.8093 C   0  0  0  0  0  0  0  0  0  0  0  0
   22.8433   10.2867   52.9048 H   0  0  0  0  0  0  0  0  0  0  0  0
   26.5097    9.3780   56.9206 F   0  0  0  0  0  0  0  0  0  0  0  0
   27.3623    9.4184   55.8676 C   0  0  0  0  0  0  0  0  0  0  0  0
   28.5951   10.0142   56.1083 C   0  0  0  0  0  0  0  0  0  0  0  0
   29.5239   10.0996   55.0955 C   0  0  0  0  0  0  0  0  0  0  0  0
   29.2087    9.5893   53.8585 C   0  0  0  0  0  0  0  0  0  0  0  0
   27.9974    9.0043   53.6236 C   0  0  0  0  0  0  0  0  0  0  0  0
   27.0468    8.9069   54.6271 C   0  0  0  0  0  0  0  0  0  0  0  0
   19.9629    5.5317   53.4403 C   0  0  0  0  0  0  0  0  0  0  0  0
   18.5780    5.7121   53.5541 C   0  0  0  0  0  0  0  0  0  0  0  0
   17.7009    4.6533   53.5949 C   0  0  0  0  0  0  0  0  0  0  0  0
   18.1672    3.3509   53.5234 C   0  0  0  0  0  0  0  0  0  0  0  0
   19.5198    3.1374   53.4112 C   0  0  0  0  0  0  0  0  0  0  0  0
   20.3871    4.2356   53.3721 C   0  0  0  0  0  0  0  0  0  0  0  0
   20.0684    1.8204   53.3328 N   0  0  0  0  0  0  0  0  0  0  0  0
   20.0875    0.8596   54.2572 C   0  0  0  0  0  0  0  0  0  0  0  0
   20.7328   -0.2650   53.7346 C   0  0  0  0  0  0  0  0  0  0  0  0
   21.0902    0.0544   52.4904 N   0  0  0  0  0  0  0  0  0  0  0  0
   20.6874    1.3145   52.2514 C   0  0  0  0  0  0  0  0  0  0  0  0
 14 15  1  0  0  0
 15 16  2  0  0  0
 16 17  1  0  0  0
 17 18  2  0  0  0
 18 19  1  0  0  0
 19 20  2  0  0  0
 20  1  1  0  0  0
  1  2  2  0  0  0
  2  3  1  0  0  0
  3  4  2  0  0  0
  4  5  1  0  0  0
  5  6  2  0  0  0
  6  7  1  0  0  0
  7  8  1  0  0  0
  8  9  2  0  0  0
  8 10  1  0  0  0
 10 11  1  0  0  0
 11 12  2  0  0  0
  6 21  1  0  0  0
 21 22  2  0  0  0
 22 23  1  0  0  0
 23 24  2  0  0  0
 24 25  1  0  0  0
 25 26  2  0  0  0
 25 27  1  0  0  0
 27 28  1  0  0  0
 28 29  2  0  0  0
 29 30  1  0  0  0
 30 31  2  0  0  0
 20 15  1  0  0  0
 12  1  1  0  0  0
 26 21  1  0  0  0
 31 27  1  0  0  0
 11  4  1  0  0  0
 10 13  1  0  0  0
M  END
> <minimizedAffinity>
45.62015

> <CNNscore>
0.5860407352

> <CNNaffinity>
6.3463373184

> <CNN_VS>
3.7192122936

> <CNNaffinity_variance>
0.3942897916

$$$$
[H]c1nc([H])n(-c2c([H])c([H])c([H])c(C3=Nc4c([H])c([H])c(-c5c([H])c([H])c([H])c([H])c5F)c([H])c4N([H])C(=O)C3([H])[H])c2[H])c1[H]


 31 35  0  0  0  0  0  0  0  0999 V2000
   19.2908    4.8423   53.7179 C   0  0  0  0  0  0  0  0  0  0  0  0
   20.1860    4.6093   54.7582 C   0  0  0  0  0  0  0  0  0  0  0  0
   21.2910    5.4301   54.9640 C   0  0  0  0  0  0  0  0  0  0  0  0
   21.5172    6.5020   54.1266 C   0  0  0  0  0  0  0  0  0  0  0  0
   22.6575    7.2556   54.4273 N   0  0  0  0  0  0  0  0  0  0  0  0
   23.2593    8.2483   53.8887 C   0  0  0  0  0  0  0  0  0  0  0  0
   22.9419    8.9938   52.6863 C   0  0  0  0  0  0  0  0  0  0  0  0
   21.5809    8.9318   52.1733 C   0  0  0  0  0  0  0  0  0  0  0  0
   21.0534   10.0026   51.6920 O   0  0  0  0  0  0  0  0  0  0  0  0
   20.7122    7.8099   52.1245 N   0  0  0  0  0  0  0  0  0  0  0  0
   20.6371    6.7544   53.0810 C   0  0  0  0  0  0  0  0  0  0  0  0
   19.5564    5.9258   52.9051 C   0  0  0  0  0  0  0  0  0  0  0  0
   20.0519    7.7287   51.3175 H   0  0  0  0  0  0  0  0  0  0  0  0
   19.4192    2.4645   52.1543 F   0  0  0  0  0  0  0  0  0  0  0  0
   18.2564    2.8385   52.7421 C   0  0  0  0  0  0  0  0  0  0  0  0
   17.1707    1.9972   52.5274 C   0  0  0  0  0  0  0  0  0  0  0  0
   15.9492    2.2994   53.0863 C   0  0  0  0  0  0  0  0  0  0  0  0
   15.8296    3.4359   53.8505 C   0  0  0  0  0  0  0  0  0  0  0  0
   16.8970    4.2612   54.0605 C   0  0  0  0  0  0  0  0  0  0  0  0
   18.1361    3.9778   53.5085 C   0  0  0  0  0  0  0  0  0  0  0  0
   24.4468    8.6557   54.6370 C   0  0  0  0  0  0  0  0  0  0  0  0
   24.3481    9.5092   55.7440 C   0  0  0  0  0  0  0  0  0  0  0  0
   25.4494    9.9022   56.4682 C   0  0  0  0  0  0  0  0  0  0  0  0
   26.7147    9.4586   56.1200 C   0  0  0  0  0  0  0  0  0  0  0  0
   26.8482    8.6204   55.0396 C   0  0  0  0  0  0  0  0  0  0  0  0
   25.7082    8.2381   54.3225 C   0  0  0  0  0  0  0  0  0  0  0  0
   28.1232    8.1257   54.6257 N   0  0  0  0  0  0  0  0  0  0  0  0
   28.4082    7.1089   53.8115 C   0  0  0  0  0  0  0  0  0  0  0  0
   29.7963    6.9910   53.6958 C   0  0  0  0  0  0  0  0  0  0  0  0
   30.3173    7.9551   54.4554 N   0  0  0  0  0  0  0  0  0  0  0  0
   29.3039    8.6382   55.0154 C   0  0  0  0  0  0  0  0  0  0  0  0
 14 15  1  0  0  0
 15 16  2  0  0  0
 16 17  1  0  0  0
 17 18  2  0  0  0
 18 19  1  0  0  0
 19 20  2  0  0  0
 20  1  1  0  0  0
  1  2  2  0  0  0
  2  3  1  0  0  0
  3  4  2  0  0  0
  4  5  1  0  0  0
  5  6  2  0  0  0
  6  7  1  0  0  0
  7  8  1  0  0  0
  8  9  2  0  0  0
  8 10  1  0  0  0
 10 11  1  0  0  0
 11 12  2  0  0  0
  6 21  1  0  0  0
 21 22  2  0  0  0
 22 23  1  0  0  0
 23 24  2  0  0  0
 24 25  1  0  0  0
 25 26  2  0  0  0
 25 27  1  0  0  0
 27 28  1  0  0  0
 28 29  2  0  0  0
 29 30  1  0  0  0
 30 31  2  0  0  0
 20 15  1  0  0  0
 12  1  1  0  0  0
 26 21  1  0  0  0
 31 27  1  0  0  0
 11  4  1  0  0  0
 10 13  1  0  0  0
M  END
> <minimizedAffinity>
38.16088

> <CNNscore>
0.5429230332

> <CNNaffinity>
6.3288922310

> <CNN_VS>
3.4361014366

> <CNNaffinity_variance>
0.4313875735

$$$$
[H]c1nc([H])n(-c2c([H])c([H])c([H])c(C3=Nc4c([H])c([H])c(-c5c([H])c([H])c([H])c([H])c5F)c([H])c4N([H])C(=O)C3([H])[H])c2[H])c1[H]


 31 35  0  0  0  0  0  0  0  0999 V2000
   23.5169    8.6287   54.2550 C   0  0  0  0  0  0  0  0  0  0  0  0
   23.2872    8.9960   55.5779 C   0  0  0  0  0  0  0  0  0  0  0  0
   24.3371    9.2037   56.4676 C   0  0  0  0  0  0  0  0  0  0  0  0
   25.6397    9.0458   56.0434 C   0  0  0  0  0  0  0  0  0  0  0  0
   26.6118    9.2789   57.0228 N   0  0  0  0  0  0  0  0  0  0  0  0
   27.8863    9.1786   57.0809 C   0  0  0  0  0  0  0  0  0  0  0  0
   28.8378    8.7558   56.0719 C   0  0  0  0  0  0  0  0  0  0  0  0
   28.4310    8.8025   54.6749 C   0  0  0  0  0  0  0  0  0  0  0  0
   29.2894    9.1827   53.7945 O   0  0  0  0  0  0  0  0  0  0  0  0
   27.1671    8.4738   54.1180 N   0  0  0  0  0  0  0  0  0  0  0  0
   25.8936    8.6796   54.7270 C   0  0  0  0  0  0  0  0  0  0  0  0
   24.8356    8.4822   53.8744 C   0  0  0  0  0  0  0  0  0  0  0  0
   27.1421    8.0381   53.1676 H   0  0  0  0  0  0  0  0  0  0  0  0
   22.0856    6.1692   54.1241 F   0  0  0  0  0  0  0  0  0  0  0  0
   21.7546    7.2011   53.3098 C   0  0  0  0  0  0  0  0  0  0  0  0
   20.6976    6.9695   52.4370 C   0  0  0  0  0  0  0  0  0  0  0  0
   20.2930    7.9621   51.5728 C   0  0  0  0  0  0  0  0  0  0  0  0
   20.9491    9.1701   51.5926 C   0  0  0  0  0  0  0  0  0  0  0  0
   21.9871    9.3960   52.4505 C   0  0  0  0  0  0  0  0  0  0  0  0
   22.4120    8.4124   53.3293 C   0  0  0  0  0  0  0  0  0  0  0  0
   28.4184    9.5575   58.3884 C   0  0  0  0  0  0  0  0  0  0  0  0
   28.7952    8.5869   59.3261 C   0  0  0  0  0  0  0  0  0  0  0  0
   29.3041    8.9175   60.5605 C   0  0  0  0  0  0  0  0  0  0  0  0
   29.4634   10.2450   60.9226 C   0  0  0  0  0  0  0  0  0  0  0  0
   29.1040   11.2231   60.0271 C   0  0  0  0  0  0  0  0  0  0  0  0
   28.5890   10.8548   58.7785 C   0  0  0  0  0  0  0  0  0  0  0  0
   29.2418   12.6114   60.3356 N   0  0  0  0  0  0  0  0  0  0  0  0
   28.4296   13.6255   60.0356 C   0  0  0  0  0  0  0  0  0  0  0  0
   28.9709   14.8103   60.5429 C   0  0  0  0  0  0  0  0  0  0  0  0
   30.1120   14.4720   61.1439 N   0  0  0  0  0  0  0  0  0  0  0  0
   30.2723   13.1433   61.0166 C   0  0  0  0  0  0  0  0  0  0  0  0
 14 15  1  0  0  0
 15 16  2  0  0  0
 16 17  1  0  0  0
 17 18  2  0  0  0
 18 19  1  0  0  0
 19 20  2  0  0  0
 20  1  1  0  0  0
  1  2  2  0  0  0
  2  3  1  0  0  0
  3  4  2  0  0  0
  4  5  1  0  0  0
  5  6  2  0  0  0
  6  7  1  0  0  0
  7  8  1  0  0  0
  8  9  2  0  0  0
  8 10  1  0  0  0
 10 11  1  0  0  0
 11 12  2  0  0  0
  6 21  1  0  0  0
 21 22  2  0  0  0
 22 23  1  0  0  0
 23 24  2  0  0  0
 24 25  1  0  0  0
 25 26  2  0  0  0
 25 27  1  0  0  0
 27 28  1  0  0  0
 28 29  2  0  0  0
 29 30  1  0  0  0
 30 31  2  0  0  0
 20 15  1  0  0  0
 12  1  1  0  0  0
 26 21  1  0  0  0
 31 27  1  0  0  0
 11  4  1  0  0  0
 10 13  1  0  0  0
M  END
> <minimizedAffinity>
5.91641

> <CNNscore>
0.5145931840

> <CNNaffinity>
6.1209669113

> <CNN_VS>
3.1498079300

> <CNNaffinity_variance>
0.0109391175

$$$$
[H]c1nc([H])n(-c2c([H])c([H])c([H])c(C3=Nc4c([H])c([H])c(-c5c([H])c([H])c([H])c([H])c5F)c([H])c4N([H])C(=O)C3([H])[H])c2[H])c1[H]


 31 35  0  0  0  0  0  0  0  0999 V2000
   18.9176    5.0314   53.6272 C   0  0  0  0  0  0  0  0  0  0  0  0
   20.1077    4.4864   54.1009 C   0  0  0  0  0  0  0  0  0  0  0  0
   21.3076    5.1879   54.0296 C   0  0  0  0  0  0  0  0  0  0  0  0
   21.3337    6.4522   53.4797 C   0  0  0  0  0  0  0  0  0  0  0  0
   22.5937    7.0611   53.4592 N   0  0  0  0  0  0  0  0  0  0  0  0
   23.0676    8.1545   52.9929 C   0  0  0  0  0  0  0  0  0  0  0  0
   22.4103    9.2245   52.2681 C   0  0  0  0  0  0  0  0  0  0  0  0
   20.9632    9.3437   52.3729 C   0  0  0  0  0  0  0  0  0  0  0  0
   20.4446   10.5193   52.4478 O   0  0  0  0  0  0  0  0  0  0  0  0
   19.9975    8.3035   52.4052 N   0  0  0  0  0  0  0  0  0  0  0  0
   20.1579    7.0169   53.0001 C   0  0  0  0  0  0  0  0  0  0  0  0
   18.9907    6.2987   53.0853 C   0  0  0  0  0  0  0  0  0  0  0  0
   19.0686    8.4750   51.9563 H   0  0  0  0  0  0  0  0  0  0  0  0
   18.5460    2.5106   52.3533 F   0  0  0  0  0  0  0  0  0  0  0  0
   17.5417    3.0738   53.0684 C   0  0  0  0  0  0  0  0  0  0  0  0
   16.3580    2.3470   53.1274 C   0  0  0  0  0  0  0  0  0  0  0  0
   15.2841    2.8432   53.8319 C   0  0  0  0  0  0  0  0  0  0  0  0
   15.4075    4.0565   54.4664 C   0  0  0  0  0  0  0  0  0  0  0  0
   16.5708    4.7692   54.4076 C   0  0  0  0  0  0  0  0  0  0  0  0
   17.6649    4.2902   53.7049 C   0  0  0  0  0  0  0  0  0  0  0  0
   24.4981    8.3009   53.2542 C   0  0  0  0  0  0  0  0  0  0  0  0
   25.0355    8.0252   54.5185 C   0  0  0  0  0  0  0  0  0  0  0  0
   26.3786    8.1493   54.7881 C   0  0  0  0  0  0  0  0  0  0  0  0
   27.2591    8.5583   53.8000 C   0  0  0  0  0  0  0  0  0  0  0  0
   26.7661    8.8370   52.5482 C   0  0  0  0  0  0  0  0  0  0  0  0
   25.3942    8.7011   52.3049 C   0  0  0  0  0  0  0  0  0  0  0  0
   27.6180    9.2633   51.4832 N   0  0  0  0  0  0  0  0  0  0  0  0
   27.7284    8.7767   50.2467 C   0  0  0  0  0  0  0  0  0  0  0  0
   28.6930    9.5110   49.5507 C   0  0  0  0  0  0  0  0  0  0  0  0
   29.1441   10.4343   50.4005 N   0  0  0  0  0  0  0  0  0  0  0  0
   28.4927   10.2815   51.5664 C   0  0  0  0  0  0  0  0  0  0  0  0
 14 15  1  0  0  0
 15 16  2  0  0  0
 16 17  1  0  0  0
 17 18  2  0  0  0
 18 19  1  0  0  0
 19 20  2  0  0  0
 20  1  1  0  0  0
  1  2  2  0  0  0
  2  3  1  0  0  0
  3  4  2  0  0  0
  4  5  1  0  0  0
  5  6  2  0  0  0
  6  7  1  0  0  0
  7  8  1  0  0  0
  8  9  2  0  0  0
  8 10  1  0  0  0
 10 11  1  0  0  0
 11 12  2  0  0  0
  6 21  1  0  0  0
 21 22  2  0  0  0
 22 23  1  0  0  0
 23 24  2  0  0  0
 24 25  1  0  0  0
 25 26  2  0  0  0
 25 27  1  0  0  0
 27 28  1  0  0  0
 28 29  2  0  0  0
 29 30  1  0  0  0
 30 31  2  0  0  0
 20 15  1  0  0  0
 12  1  1  0  0  0
 26 21  1  0  0  0
 31 27  1  0  0  0
 11  4  1  0  0  0
 10 13  1  0  0  0
M  END
> <minimizedAffinity>
45.97020

> <CNNscore>
0.5112942457

> <CNNaffinity>
6.2966871262

> <CNN_VS>
3.2194600105

> <CNNaffinity_variance>
0.5481449366

$$$$
[H]c1nc([H])n(-c2c([H])c([H])c([H])c(C3=Nc4c([H])c([H])c(-c5c([H])c([H])c([H])c([H])c5F)c([H])c4N([H])C(=O)C3([H])[H])c2[H])c1[H]


 31 35  0  0  0  0  0  0  0  0999 V2000
   20.0575    5.1564   53.8083 C   0  0  0  0  0  0  0  0  0  0  0  0
   21.3063    4.5420   53.8330 C   0  0  0  0  0  0  0  0  0  0  0  0
   22.4741    5.2759   54.0189 C   0  0  0  0  0  0  0  0  0  0  0  0
   22.4083    6.6434   54.1838 C   0  0  0  0  0  0  0  0  0  0  0  0
   23.6436    7.2766   54.3612 N   0  0  0  0  0  0  0  0  0  0  0  0
   24.0359    8.4898   54.4713 C   0  0  0  0  0  0  0  0  0  0  0  0
   23.2755    9.7241   54.4489 C   0  0  0  0  0  0  0  0  0  0  0  0
   21.8481    9.6621   54.7286 C   0  0  0  0  0  0  0  0  0  0  0  0
   21.3161   10.5983   55.4335 O   0  0  0  0  0  0  0  0  0  0  0  0
   20.9158    8.6736   54.3170 N   0  0  0  0  0  0  0  0  0  0  0  0
   21.1725    7.2789   54.1628 C   0  0  0  0  0  0  0  0  0  0  0  0
   20.0392    6.5262   53.9774 C   0  0  0  0  0  0  0  0  0  0  0  0
   19.9374    8.9738   54.1016 H   0  0  0  0  0  0  0  0  0  0  0  0
   20.0079    2.7282   52.3195 F   0  0  0  0  0  0  0  0  0  0  0  0
   18.8740    3.2123   52.8827 C   0  0  0  0  0  0  0  0  0  0  0  0
   17.7260    2.4542   52.6817 C   0  0  0  0  0  0  0  0  0  0  0  0
   16.5280    2.8705   53.2174 C   0  0  0  0  0  0  0  0  0  0  0  0
   16.4935    4.0363   53.9452 C   0  0  0  0  0  0  0  0  0  0  0  0
   17.6218    4.7797   54.1418 C   0  0  0  0  0  0  0  0  0  0  0  0
   18.8389    4.3810   53.6125 C   0  0  0  0  0  0  0  0  0  0  0  0
   25.4836    8.5965   54.6415 C   0  0  0  0  0  0  0  0  0  0  0  0
   26.3612    8.2826   53.5951 C   0  0  0  0  0  0  0  0  0  0  0  0
   27.7267    8.3807   53.7281 C   0  0  0  0  0  0  0  0  0  0  0  0
   28.2883    8.8007   54.9228 C   0  0  0  0  0  0  0  0  0  0  0  0
   27.4570    9.1166   55.9700 C   0  0  0  0  0  0  0  0  0  0  0  0
   26.0713    9.0068   55.8036 C   0  0  0  0  0  0  0  0  0  0  0  0
   27.9692    9.5562   57.2294 N   0  0  0  0  0  0  0  0  0  0  0  0
   28.1854    8.8539   58.3421 C   0  0  0  0  0  0  0  0  0  0  0  0
   28.6959    9.7041   59.3274 C   0  0  0  0  0  0  0  0  0  0  0  0
   28.7742   10.9139   58.7724 N   0  0  0  0  0  0  0  0  0  0  0  0
   28.3345   10.8207   57.5054 C   0  0  0  0  0  0  0  0  0  0  0  0
 14 15  1  0  0  0
 15 16  2  0  0  0
 16 17  1  0  0  0
 17 18  2  0  0  0
 18 19  1  0  0  0
 19 20  2  0  0  0
 20  1  1  0  0  0
  1  2  2  0  0  0
  2  3  1  0  0  0
  3  4  2  0  0  0
  4  5  1  0  0  0
  5  6  2  0  0  0
  6  7  1  0  0  0
  7  8  1  0  0  0
  8  9  2  0  0  0
  8 10  1  0  0  0
 10 11  1  0  0  0
 11 12  2  0  0  0
  6 21  1  0  0  0
 21 22  2  0  0  0
 22 23  1  0  0  0
 23 24  2  0  0  0
 24 25  1  0  0  0
 25 26  2  0  0  0
 25 27  1  0  0  0
 27 28  1  0  0  0
 28 29  2  0  0  0
 29 30  1  0  0  0
 30 31  2  0  0  0
 20 15  1  0  0  0
 12  1  1  0  0  0
 26 21  1  0  0  0
 31 27  1  0  0  0
 11  4  1  0  0  0
 10 13  1  0  0  0
M  END
> <minimizedAffinity>
20.32593

> <CNNscore>
0.5103846192

> <CNNaffinity>
6.4910316467

> <CNN_VS>
3.3129227161

> <CNNaffinity_variance>
0.0705157146

$$$$
[H]c1nc([H])n(-c2c([H])c([H])c([H])c(C3=Nc4c([H])c([H])c(-c5c([H])c([H])c([H])c([H])c5F)c([H])c4N([H])C(=O)C3([H])[H])c2[H])c1[H]


 31 35  0  0  0  0  0  0  0  0999 V2000
   19.7289    5.1198   53.6212 C   0  0  0  0  0  0  0  0  0  0  0  0
   20.9455    4.5075   53.3334 C   0  0  0  0  0  0  0  0  0  0  0  0
   22.1390    5.2235   53.3393 C   0  0  0  0  0  0  0  0  0  0  0  0
   22.1318    6.5704   53.6348 C   0  0  0  0  0  0  0  0  0  0  0  0
   23.3879    7.1869   53.6095 N   0  0  0  0  0  0  0  0  0  0  0  0
   23.8151    8.3858   53.7436 C   0  0  0  0  0  0  0  0  0  0  0  0
   23.0875    9.6158   53.9880 C   0  0  0  0  0  0  0  0  0  0  0  0
   21.7471    9.5266   54.5490 C   0  0  0  0  0  0  0  0  0  0  0  0
   21.3872   10.3945   55.4286 O   0  0  0  0  0  0  0  0  0  0  0  0
   20.7334    8.5779   54.2522 N   0  0  0  0  0  0  0  0  0  0  0  0
   20.9291    7.2033   53.9254 C   0  0  0  0  0  0  0  0  0  0  0  0
   19.7692    6.4686   53.9112 C   0  0  0  0  0  0  0  0  0  0  0  0
   19.7369    8.8949   54.2705 H   0  0  0  0  0  0  0  0  0  0  0  0
   19.4859    2.5802   52.3536 F   0  0  0  0  0  0  0  0  0  0  0  0
   18.4233    3.1384   52.9834 C   0  0  0  0  0  0  0  0  0  0  0  0
   17.2475    2.3969   52.9612 C   0  0  0  0  0  0  0  0  0  0  0  0
   16.1171    2.8870   53.5759 C   0  0  0  0  0  0  0  0  0  0  0  0
   16.1772    4.1089   54.2032 C   0  0  0  0  0  0  0  0  0  0  0  0
   17.3328    4.8359   54.2242 C   0  0  0  0  0  0  0  0  0  0  0  0
   18.4830    4.3633   53.6125 C   0  0  0  0  0  0  0  0  0  0  0  0
   25.2685    8.4789   53.6208 C   0  0  0  0  0  0  0  0  0  0  0  0
   26.1096    8.1242   54.6839 C   0  0  0  0  0  0  0  0  0  0  0  0
   27.4800    8.1971   54.5913 C   0  0  0  0  0  0  0  0  0  0  0  0
   28.0836    8.6315   53.4226 C   0  0  0  0  0  0  0  0  0  0  0  0
   27.2888    8.9874   52.3600 C   0  0  0  0  0  0  0  0  0  0  0  0
   25.8971    8.9022   52.4850 C   0  0  0  0  0  0  0  0  0  0  0  0
   27.8452    9.4439   51.1256 N   0  0  0  0  0  0  0  0  0  0  0  0
   28.4571   10.5968   50.8528 C   0  0  0  0  0  0  0  0  0  0  0  0
   28.8366   10.6060   49.5074 C   0  0  0  0  0  0  0  0  0  0  0  0
   28.4364    9.4401   48.9989 N   0  0  0  0  0  0  0  0  0  0  0  0
   27.8381    8.7411   49.9790 C   0  0  0  0  0  0  0  0  0  0  0  0
 14 15  1  0  0  0
 15 16  2  0  0  0
 16 17  1  0  0  0
 17 18  2  0  0  0
 18 19  1  0  0  0
 19 20  2  0  0  0
 20  1  1  0  0  0
  1  2  2  0  0  0
  2  3  1  0  0  0
  3  4  2  0  0  0
  4  5  1  0  0  0
  5  6  2  0  0  0
  6  7  1  0  0  0
  7  8  1  0  0  0
  8  9  2  0  0  0
  8 10  1  0  0  0
 10 11  1  0  0  0
 11 12  2  0  0  0
  6 21  1  0  0  0
 21 22  2  0  0  0
 22 23  1  0  0  0
 23 24  2  0  0  0
 24 25  1  0  0  0
 25 26  2  0  0  0
 25 27  1  0  0  0
 27 28  1  0  0  0
 28 29  2  0  0  0
 29 30  1  0  0  0
 30 31  2  0  0  0
 20 15  1  0  0  0
 12  1  1  0  0  0
 26 21  1  0  0  0
 31 27  1  0  0  0
 11  4  1  0  0  0
 10 13  1  0  0  0
M  END
> <minimizedAffinity>
34.73669

> <CNNscore>
0.5005455017

> <CNNaffinity>
6.2507467270

> <CNN_VS>
3.1287832260

> <CNNaffinity_variance>
0.3689300120

$$$$
[H]c1nc([H])n(-c2c([H])c([H])c([H])c(C3=Nc4c([H])c([H])c(-c5c([H])c([H])c([H])c([H])c5F)c([H])c4N([H])C(=O)C3([H])[H])c2[H])c1[H]


 31 35  0  0  0  0  0  0  0  0999 V2000
   21.0683   12.4092   52.4860 C   0  0  0  0  0  0  0  0  0  0  0  0
   22.4041   12.4575   52.8745 C   0  0  0  0  0  0  0  0  0  0  0  0
   23.0985   11.3064   53.2349 C   0  0  0  0  0  0  0  0  0  0  0  0
   22.4619   10.0834   53.2116 C   0  0  0  0  0  0  0  0  0  0  0  0
   23.2567    8.9969   53.5945 N   0  0  0  0  0  0  0  0  0  0  0  0
   23.0586    7.7463   53.7802 C   0  0  0  0  0  0  0  0  0  0  0  0
   21.8467    6.9617   53.6466 C   0  0  0  0  0  0  0  0  0  0  0  0
   20.7628    7.4961   52.8350 C   0  0  0  0  0  0  0  0  0  0  0  0
   20.0938    6.6879   52.0894 O   0  0  0  0  0  0  0  0  0  0  0  0
   20.3164    8.8407   52.7434 N   0  0  0  0  0  0  0  0  0  0  0  0
   21.1284   10.0105   52.8271 C   0  0  0  0  0  0  0  0  0  0  0  0
   20.4717   11.1645   52.4774 C   0  0  0  0  0  0  0  0  0  0  0  0
   19.2955    9.0155   52.5985 H   0  0  0  0  0  0  0  0  0  0  0  0
   19.3716   13.8077   54.2973 F   0  0  0  0  0  0  0  0  0  0  0  0
   19.5401   14.2551   53.0289 C   0  0  0  0  0  0  0  0  0  0  0  0
   18.8426   15.4107   52.6961 C   0  0  0  0  0  0  0  0  0  0  0  0
   18.9541   15.9368   51.4286 C   0  0  0  0  0  0  0  0  0  0  0  0
   19.7595   15.3022   50.5129 C   0  0  0  0  0  0  0  0  0  0  0  0
   20.4441   14.1673   50.8413 C   0  0  0  0  0  0  0  0  0  0  0  0
   20.3476   13.6193   52.1105 C   0  0  0  0  0  0  0  0  0  0  0  0
   24.2716    7.0428   54.1924 C   0  0  0  0  0  0  0  0  0  0  0  0
   24.2387    5.6867   54.5436 C   0  0  0  0  0  0  0  0  0  0  0  0
   25.3669    5.0008   54.9289 C   0  0  0  0  0  0  0  0  0  0  0  0
   26.5945    5.6404   54.9828 C   0  0  0  0  0  0  0  0  0  0  0  0
   26.6632    6.9703   54.6449 C   0  0  0  0  0  0  0  0  0  0  0  0
   25.4973    7.6410   54.2568 C   0  0  0  0  0  0  0  0  0  0  0  0
   27.8965    7.6911   54.6785 N   0  0  0  0  0  0  0  0  0  0  0  0
   28.1042    8.9976   54.8459 C   0  0  0  0  0  0  0  0  0  0  0  0
   29.4785    9.2506   54.8084 C   0  0  0  0  0  0  0  0  0  0  0  0
   30.0700    8.0711   54.6164 N   0  0  0  0  0  0  0  0  0  0  0  0
   29.1115    7.1318   54.5384 C   0  0  0  0  0  0  0  0  0  0  0  0
 14 15  1  0  0  0
 15 16  2  0  0  0
 16 17  1  0  0  0
 17 18  2  0  0  0
 18 19  1  0  0  0
 19 20  2  0  0  0
 20  1  1  0  0  0
  1  2  2  0  0  0
  2  3  1  0  0  0
  3  4  2  0  0  0
  4  5  1  0  0  0
  5  6  2  0  0  0
  6  7  1  0  0  0
  7  8  1  0  0  0
  8  9  2  0  0  0
  8 10  1  0  0  0
 10 11  1  0  0  0
 11 12  2  0  0  0
  6 21  1  0  0  0
 21 22  2  0  0  0
 22 23  1  0  0  0
 23 24  2  0  0  0
 24 25  1  0  0  0
 25 26  2  0  0  0
 25 27  1  0  0  0
 27 28  1  0  0  0
 28 29  2  0  0  0
 29 30  1  0  0  0
 30 31  2  0  0  0
 20 15  1  0  0  0
 12  1  1  0  0  0
 26 21  1  0  0  0
 31 27  1  0  0  0
 11  4  1  0  0  0
 10 13  1  0  0  0
M  END
> <minimizedAffinity>
65.09224

> <CNNscore>
0.4937308729

> <CNNaffinity>
5.9426422119

> <CNN_VS>
2.9340658188

> <CNNaffinity_variance>
0.7362940311

$$$$
[H]c1nc([H])n(-c2c([H])c([H])c([H])c(C3=Nc4c([H])c([H])c(-c5c([H])c([H])c([H])c([H])c5F)c([H])c4N([H])C(=O)C3([H])[H])c2[H])c1[H]


 31 35  0  0  0  0  0  0  0  0999 V2000
   21.4090   11.8790   51.7970 C   0  0  0  0  0  0  0  0  0  0  0  0
   20.7850   10.9568   50.9616 C   0  0  0  0  0  0  0  0  0  0  0  0
   20.6189    9.6281   51.3410 C   0  0  0  0  0  0  0  0  0  0  0  0
   21.0777    9.2008   52.5692 C   0  0  0  0  0  0  0  0  0  0  0  0
   20.8576    7.8461   52.8429 N   0  0  0  0  0  0  0  0  0  0  0  0
   21.1729    7.0473   53.7917 C   0  0  0  0  0  0  0  0  0  0  0  0
   21.9259    7.2899   55.0068 C   0  0  0  0  0  0  0  0  0  0  0  0
   22.0478    8.6602   55.4829 C   0  0  0  0  0  0  0  0  0  0  0  0
   21.9843    8.8815   56.7492 O   0  0  0  0  0  0  0  0  0  0  0  0
   22.2358    9.8412   54.7177 N   0  0  0  0  0  0  0  0  0  0  0  0
   21.7040   10.1035   53.4203 C   0  0  0  0  0  0  0  0  0  0  0  0
   21.8523   11.4074   53.0162 C   0  0  0  0  0  0  0  0  0  0  0  0
   22.8166   10.6093   55.1257 H   0  0  0  0  0  0  0  0  0  0  0  0
   19.6364   13.9474   52.6303 F   0  0  0  0  0  0  0  0  0  0  0  0
   20.6910   14.2286   51.8265 C   0  0  0  0  0  0  0  0  0  0  0  0
   20.8319   15.5609   51.4552 C   0  0  0  0  0  0  0  0  0  0  0  0
   21.8750   15.9379   50.6395 C   0  0  0  0  0  0  0  0  0  0  0  0
   22.7613   14.9802   50.2067 C   0  0  0  0  0  0  0  0  0  0  0  0
   22.6216   13.6720   50.5722 C   0  0  0  0  0  0  0  0  0  0  0  0
   21.5799   13.2688   51.3923 C   0  0  0  0  0  0  0  0  0  0  0  0
   20.6765    5.6908   53.5694 C   0  0  0  0  0  0  0  0  0  0  0  0
   21.5460    4.6497   53.2177 C   0  0  0  0  0  0  0  0  0  0  0  0
   21.1047    3.3638   53.0090 C   0  0  0  0  0  0  0  0  0  0  0  0
   19.7618    3.0510   53.1424 C   0  0  0  0  0  0  0  0  0  0  0  0
   18.8811    4.0478   53.4863 C   0  0  0  0  0  0  0  0  0  0  0  0
   19.3608    5.3468   53.6921 C   0  0  0  0  0  0  0  0  0  0  0  0
   17.4833    3.7948   53.6406 N   0  0  0  0  0  0  0  0  0  0  0  0
   16.7354    2.8363   53.0930 C   0  0  0  0  0  0  0  0  0  0  0  0
   15.4157    2.9796   53.5312 C   0  0  0  0  0  0  0  0  0  0  0  0
   15.4049    4.0370   54.3434 N   0  0  0  0  0  0  0  0  0  0  0  0
   16.6552    4.5267   54.4069 C   0  0  0  0  0  0  0  0  0  0  0  0
 14 15  1  0  0  0
 15 16  2  0  0  0
 16 17  1  0  0  0
 17 18  2  0  0  0
 18 19  1  0  0  0
 19 20  2  0  0  0
 20  1  1  0  0  0
  1  2  2  0  0  0
  2  3  1  0  0  0
  3  4  2  0  0  0
  4  5  1  0  0  0
  5  6  2  0  0  0
  6  7  1  0  0  0
  7  8  1  0  0  0
  8  9  2  0  0  0
  8 10  1  0  0  0
 10 11  1  0  0  0
 11 12  2  0  0  0
  6 21  1  0  0  0
 21 22  2  0  0  0
 22 23  1  0  0  0
 23 24  2  0  0  0
 24 25  1  0  0  0
 25 26  2  0  0  0
 25 27  1  0  0  0
 27 28  1  0  0  0
 28 29  2  0  0  0
 29 30  1  0  0  0
 30 31  2  0  0  0
 20 15  1  0  0  0
 12  1  1  0  0  0
 26 21  1  0  0  0
 31 27  1  0  0  0
 11  4  1  0  0  0
 10 13  1  0  0  0
M  END
> <minimizedAffinity>
42.98007

> <CNNscore>
0.4521700442

> <CNNaffinity>
6.3922877312

> <CNN_VS>
2.8904011250

> <CNNaffinity_variance>
0.6701658368

$$$$
[H]c1nc([H])c([H])c(-c2c([H])c([H])c([H])c(C3=Nc4c([H])c([H])c(C(F)(F)F)c([H])c4N([H])C(=O)C3([H])[H])c2[H])c1[H]


 29 32  0  0  0  0  0  0  0  0999 V2000
   17.4661    4.4088   53.8888 C   0  0  0  0  0  0  0  0  0  0  0  0
   18.5455    3.6217   54.1921 C   0  0  0  0  0  0  0  0  0  0  0  0
   19.8444    4.0500   54.1302 C   0  0  0  0  0  0  0  0  0  0  0  0
   20.0573    5.3648   53.7337 C   0  0  0  0  0  0  0  0  0  0  0  0
   21.4243    5.7164   53.6767 N   0  0  0  0  0  0  0  0  0  0  0  0
   22.0828    6.7780   53.3388 C   0  0  0  0  0  0  0  0  0  0  0  0
   21.6245    8.0806   52.8666 C   0  0  0  0  0  0  0  0  0  0  0  0
   20.2220    8.1980   52.4704 C   0  0  0  0  0  0  0  0  0  0  0  0
   19.9650    8.9912   51.4992 O   0  0  0  0  0  0  0  0  0  0  0  0
   19.0741    7.5694   52.9860 N   0  0  0  0  0  0  0  0  0  0  0  0
   18.9990    6.2023   53.4164 C   0  0  0  0  0  0  0  0  0  0  0  0
   17.7075    5.7083   53.4996 C   0  0  0  0  0  0  0  0  0  0  0  0
   18.1812    8.0982   53.0789 H   0  0  0  0  0  0  0  0  0  0  0  0
   23.5547    6.6205   53.4104 C   0  0  0  0  0  0  0  0  0  0  0  0
   24.1387    5.6002   52.6553 C   0  0  0  0  0  0  0  0  0  0  0  0
   25.5056    5.4894   52.6805 C   0  0  0  0  0  0  0  0  0  0  0  0
   26.2866    6.3469   53.4199 C   0  0  0  0  0  0  0  0  0  0  0  0
   25.7398    7.3680   54.1797 C   0  0  0  0  0  0  0  0  0  0  0  0
   24.3497    7.4638   54.1417 C   0  0  0  0  0  0  0  0  0  0  0  0
   26.5697    8.2976   54.9221 C   0  0  0  0  0  0  0  0  0  0  0  0
   26.1227    8.9601   56.0486 C   0  0  0  0  0  0  0  0  0  0  0  0
   26.9145    9.8425   56.7859 C   0  0  0  0  0  0  0  0  0  0  0  0
   28.1756   10.0372   56.3490 N   0  0  0  0  0  0  0  0  0  0  0  0
   28.6633    9.4240   55.2604 C   0  0  0  0  0  0  0  0  0  0  0  0
   27.8634    8.5434   54.5308 C   0  0  0  0  0  0  0  0  0  0  0  0
   15.7396    3.5546   55.2971 F   0  0  0  0  0  0  0  0  0  0  0  0
   16.1133    3.8247   53.9849 C   0  0  0  0  0  0  0  0  0  0  0  0
   16.1398    2.5647   53.3563 F   0  0  0  0  0  0  0  0  0  0  0  0
   15.1644    4.5651   53.3033 F   0  0  0  0  0  0  0  0  0  0  0  0
 26 27  1  0  0  0
 27 28  1  0  0  0
 27 29  1  0  0  0
 27  1  1  0  0  0
  1  2  2  0  0  0
  2  3  1  0  0  0
  3  4  2  0  0  0
  4  5  1  0  0  0
  5  6  2  0  0  0
  6  7  1  0  0  0
  7  8  1  0  0  0
  8  9  2  0  0  0
  8 10  1  0  0  0
 10 11  1  0  0  0
 11 12  2  0  0  0
  6 14  1  0  0  0
 14 15  2  0  0  0
 15 16  1  0  0  0
 16 17  2  0  0  0
 17 18  1  0  0  0
 18 19  2  0  0  0
 18 20  1  0  0  0
 20 21  2  0  0  0
 21 22  1  0  0  0
 22 23  2  0  0  0
 23 24  1  0  0  0
 24 25  2  0  0  0
 12  1  1  0  0  0
 19 14  1  0  0  0
 25 20  1  0  0  0
 11  4  1  0  0  0
 10 13  1  0  0  0
M  END
> <minimizedAffinity>
32.20293

> <CNNscore>
0.5630772710

> <CNNaffinity>
6.2291975021

> <CNN_VS>
3.5075194836

> <CNNaffinity_variance>
0.9827030897

$$$$
[H]c1nc([H])c([H])c(-c2c([H])c([H])c([H])c(C3=Nc4c([H])c([H])c(C(F)(F)F)c([H])c4N([H])C(=O)C3([H])[H])c2[H])c1[H]


 29 32  0  0  0  0  0  0  0  0999 V2000
   21.3717   12.5291   51.6331 C   0  0  0  0  0  0  0  0  0  0  0  0
   21.0220   11.5047   50.7935 C   0  0  0  0  0  0  0  0  0  0  0  0
   20.9070   10.1988   51.1886 C   0  0  0  0  0  0  0  0  0  0  0  0
   21.1650    9.9188   52.5252 C   0  0  0  0  0  0  0  0  0  0  0  0
   21.0444    8.5473   52.8416 N   0  0  0  0  0  0  0  0  0  0  0  0
   21.2178    7.8356   53.9084 C   0  0  0  0  0  0  0  0  0  0  0  0
   21.6241    8.2144   55.2579 C   0  0  0  0  0  0  0  0  0  0  0  0
   22.1577    9.5625   55.4471 C   0  0  0  0  0  0  0  0  0  0  0  0
   23.0798    9.6963   56.3246 O   0  0  0  0  0  0  0  0  0  0  0  0
   21.8240   10.7718   54.8107 N   0  0  0  0  0  0  0  0  0  0  0  0
   21.5220   10.9197   53.4154 C   0  0  0  0  0  0  0  0  0  0  0  0
   21.6207   12.2217   52.9529 C   0  0  0  0  0  0  0  0  0  0  0  0
   21.7831   11.6593   55.3551 H   0  0  0  0  0  0  0  0  0  0  0  0
   21.0018    6.3837   53.7041 C   0  0  0  0  0  0  0  0  0  0  0  0
   22.1292    5.5644   53.6049 C   0  0  0  0  0  0  0  0  0  0  0  0
   21.9277    4.2144   53.4696 C   0  0  0  0  0  0  0  0  0  0  0  0
   20.6640    3.6727   53.4313 C   0  0  0  0  0  0  0  0  0  0  0  0
   19.5257    4.4564   53.5262 C   0  0  0  0  0  0  0  0  0  0  0  0
   19.7511    5.8251   53.6624 C   0  0  0  0  0  0  0  0  0  0  0  0
   18.1961    3.8765   53.5304 C   0  0  0  0  0  0  0  0  0  0  0  0
   17.1638    4.3845   54.2948 C   0  0  0  0  0  0  0  0  0  0  0  0
   15.8737    3.8507   54.2955 C   0  0  0  0  0  0  0  0  0  0  0  0
   15.6570    2.7841   53.4990 N   0  0  0  0  0  0  0  0  0  0  0  0
   16.6213    2.2463   52.7374 C   0  0  0  0  0  0  0  0  0  0  0  0
   17.9075    2.7879   52.7438 C   0  0  0  0  0  0  0  0  0  0  0  0
   20.8523   14.8441   51.8877 F   0  0  0  0  0  0  0  0  0  0  0  0
   21.4719   13.8952   51.0814 C   0  0  0  0  0  0  0  0  0  0  0  0
   20.7488   13.9286   49.8733 F   0  0  0  0  0  0  0  0  0  0  0  0
   22.7697   14.2424   50.7526 F   0  0  0  0  0  0  0  0  0  0  0  0
 26 27  1  0  0  0
 27 28  1  0  0  0
 27 29  1  0  0  0
 27  1  1  0  0  0
  1  2  2  0  0  0
  2  3  1  0  0  0
  3  4  2  0  0  0
  4  5  1  0  0  0
  5  6  2  0  0  0
  6  7  1  0  0  0
  7  8  1  0  0  0
  8  9  2  0  0  0
  8 10  1  0  0  0
 10 11  1  0  0  0
 11 12  2  0  0  0
  6 14  1  0  0  0
 14 15  2  0  0  0
 15 16  1  0  0  0
 16 17  2  0  0  0
 17 18  1  0  0  0
 18 19  2  0  0  0
 18 20  1  0  0  0
 20 21  2  0  0  0
 21 22  1  0  0  0
 22 23  2  0  0  0
 23 24  1  0  0  0
 24 25  2  0  0  0
 12  1  1  0  0  0
 19 14  1  0  0  0
 25 20  1  0  0  0
 11  4  1  0  0  0
 10 13  1  0  0  0
M  END
> <minimizedAffinity>
33.92977

> <CNNscore>
0.5119950771

> <CNNaffinity>
6.2168226242

> <CNN_VS>
3.1829826832

> <CNNaffinity_variance>
0.4219842851

$$$$
[H]c1nc([H])c([H])c(-c2c([H])c([H])c([H])c(C3=Nc4c([H])c([H])c(C(F)(F)F)c([H])c4N([H])C(=O)C3([H])[H])c2[H])c1[H]


 29 32  0  0  0  0  0  0  0  0999 V2000
   26.3264    8.1569   54.4118 C   0  0  0  0  0  0  0  0  0  0  0  0
   26.2331    6.8034   54.2223 C   0  0  0  0  0  0  0  0  0  0  0  0
   25.0576    6.1459   53.9767 C   0  0  0  0  0  0  0  0  0  0  0  0
   23.9028    6.9171   53.9208 C   0  0  0  0  0  0  0  0  0  0  0  0
   22.7351    6.1577   53.6851 N   0  0  0  0  0  0  0  0  0  0  0  0
   21.4725    6.4258   53.5918 C   0  0  0  0  0  0  0  0  0  0  0  0
   20.7502    7.6892   53.7005 C   0  0  0  0  0  0  0  0  0  0  0  0
   21.4826    8.8407   54.2252 C   0  0  0  0  0  0  0  0  0  0  0  0
   20.8139    9.6715   54.9330 O   0  0  0  0  0  0  0  0  0  0  0  0
   22.8349    9.2015   54.0840 N   0  0  0  0  0  0  0  0  0  0  0  0
   23.9436    8.2905   54.1054 C   0  0  0  0  0  0  0  0  0  0  0  0
   25.1653    8.8960   54.3500 C   0  0  0  0  0  0  0  0  0  0  0  0
   23.1024   10.2001   53.9540 H   0  0  0  0  0  0  0  0  0  0  0  0
   20.6193    5.2334   53.3761 C   0  0  0  0  0  0  0  0  0  0  0  0
   21.1120    4.2200   52.5500 C   0  0  0  0  0  0  0  0  0  0  0  0
   20.3449    3.0936   52.3940 C   0  0  0  0  0  0  0  0  0  0  0  0
   19.1300    2.9539   53.0237 C   0  0  0  0  0  0  0  0  0  0  0  0
   18.6124    3.9393   53.8483 C   0  0  0  0  0  0  0  0  0  0  0  0
   19.4060    5.0759   53.9935 C   0  0  0  0  0  0  0  0  0  0  0  0
   17.3520    3.7688   54.5456 C   0  0  0  0  0  0  0  0  0  0  0  0
   17.2791    3.4973   55.8980 C   0  0  0  0  0  0  0  0  0  0  0  0
   16.0744    3.3499   56.5882 C   0  0  0  0  0  0  0  0  0  0  0  0
   14.9416    3.4845   55.8687 N   0  0  0  0  0  0  0  0  0  0  0  0
   14.9508    3.7452   54.5531 C   0  0  0  0  0  0  0  0  0  0  0  0
   16.1606    3.8911   53.8728 C   0  0  0  0  0  0  0  0  0  0  0  0
   28.6511    7.7833   54.7993 F   0  0  0  0  0  0  0  0  0  0  0  0
   27.6539    8.7455   54.6799 C   0  0  0  0  0  0  0  0  0  0  0  0
   27.6056    9.3660   55.9433 F   0  0  0  0  0  0  0  0  0  0  0  0
   27.9839    9.7449   53.7825 F   0  0  0  0  0  0  0  0  0  0  0  0
 26 27  1  0  0  0
 27 28  1  0  0  0
 27 29  1  0  0  0
 27  1  1  0  0  0
  1  2  2  0  0  0
  2  3  1  0  0  0
  3  4  2  0  0  0
  4  5  1  0  0  0
  5  6  2  0  0  0
  6  7  1  0  0  0
  7  8  1  0  0  0
  8  9  2  0  0  0
  8 10  1  0  0  0
 10 11  1  0  0  0
 11 12  2  0  0  0
  6 14  1  0  0  0
 14 15  2  0  0  0
 15 16  1  0  0  0
 16 17  2  0  0  0
 17 18  1  0  0  0
 18 19  2  0  0  0
 18 20  1  0  0  0
 20 21  2  0  0  0
 21 22  1  0  0  0
 22 23  2  0  0  0
 23 24  1  0  0  0
 24 25  2  0  0  0
 12  1  1  0  0  0
 19 14  1  0  0  0
 25 20  1  0  0  0
 11  4  1  0  0  0
 10 13  1  0  0  0
M  END
> <minimizedAffinity>
31.97738

> <CNNscore>
0.4958610237

> <CNNaffinity>
6.2635221481

> <CNN_VS>
3.1058363914

> <CNNaffinity_variance>
0.4339632392

$$$$
[H]c1nc([H])c([H])c(-c2c([H])c([H])c([H])c(C3=Nc4c([H])c([H])c(C(F)(F)F)c([H])c4N([H])C(=O)C3([H])[H])c2[H])c1[H]


 29 32  0  0  0  0  0  0  0  0999 V2000
   19.5281    5.0083   53.3176 C   0  0  0  0  0  0  0  0  0  0  0  0
   20.7763    4.4723   53.4947 C   0  0  0  0  0  0  0  0  0  0  0  0
   21.9227    5.2164   53.5746 C   0  0  0  0  0  0  0  0  0  0  0  0
   21.7888    6.5955   53.4671 C   0  0  0  0  0  0  0  0  0  0  0  0
   23.0206    7.2834   53.5386 N   0  0  0  0  0  0  0  0  0  0  0  0
   23.3828    8.5229   53.4540 C   0  0  0  0  0  0  0  0  0  0  0  0
   22.6019    9.7375   53.2432 C   0  0  0  0  0  0  0  0  0  0  0  0
   21.2101    9.5790   52.8240 C   0  0  0  0  0  0  0  0  0  0  0  0
   20.7463   10.4678   52.0282 O   0  0  0  0  0  0  0  0  0  0  0  0
   20.2671    8.5883   53.1523 N   0  0  0  0  0  0  0  0  0  0  0  0
   20.5480    7.1873   53.2876 C   0  0  0  0  0  0  0  0  0  0  0  0
   19.4258    6.3784   53.2153 C   0  0  0  0  0  0  0  0  0  0  0  0
   19.2705    8.8440   53.3167 H   0  0  0  0  0  0  0  0  0  0  0  0
   24.8473    8.7290   53.5504 C   0  0  0  0  0  0  0  0  0  0  0  0
   25.6050    8.5771   52.3863 C   0  0  0  0  0  0  0  0  0  0  0  0
   26.9526    8.8204   52.4652 C   0  0  0  0  0  0  0  0  0  0  0  0
   27.5502    9.2017   53.6439 C   0  0  0  0  0  0  0  0  0  0  0  0
   26.8285    9.3607   54.8155 C   0  0  0  0  0  0  0  0  0  0  0  0
   25.4614    9.1082   54.7153 C   0  0  0  0  0  0  0  0  0  0  0  0
   27.4554    9.8062   56.0455 C   0  0  0  0  0  0  0  0  0  0  0  0
   27.0639    9.3504   57.2892 C   0  0  0  0  0  0  0  0  0  0  0  0
   27.6694    9.7537   58.4808 C   0  0  0  0  0  0  0  0  0  0  0  0
   28.6850   10.6352   58.3782 N   0  0  0  0  0  0  0  0  0  0  0  0
   29.1063   11.1144   57.1985 C   0  0  0  0  0  0  0  0  0  0  0  0
   28.4944   10.7043   56.0131 C   0  0  0  0  0  0  0  0  0  0  0  0
   17.8989    3.7175   54.4896 F   0  0  0  0  0  0  0  0  0  0  0  0
   18.3697    4.0961   53.2368 C   0  0  0  0  0  0  0  0  0  0  0  0
   18.8043    2.8955   52.6426 F   0  0  0  0  0  0  0  0  0  0  0  0
   17.3673    4.5805   52.4160 F   0  0  0  0  0  0  0  0  0  0  0  0
 26 27  1  0  0  0
 27 28  1  0  0  0
 27 29  1  0  0  0
 27  1  1  0  0  0
  1  2  2  0  0  0
  2  3  1  0  0  0
  3  4  2  0  0  0
  4  5  1  0  0  0
  5  6  2  0  0  0
  6  7  1  0  0  0
  7  8  1  0  0  0
  8  9  2  0  0  0
  8 10  1  0  0  0
 10 11  1  0  0  0
 11 12  2  0  0  0
  6 14  1  0  0  0
 14 15  2  0  0  0
 15 16  1  0  0  0
 16 17  2  0  0  0
 17 18  1  0  0  0
 18 19  2  0  0  0
 18 20  1  0  0  0
 20 21  2  0  0  0
 21 22  1  0  0  0
 22 23  2  0  0  0
 23 24  1  0  0  0
 24 25  2  0  0  0
 12  1  1  0  0  0
 19 14  1  0  0  0
 25 20  1  0  0  0
 11  4  1  0  0  0
 10 13  1  0  0  0
M  END
> <minimizedAffinity>
36.18362

> <CNNscore>
0.4957424402

> <CNNaffinity>
6.1328573227

> <CNN_VS>
3.0403177738

> <CNNaffinity_variance>
0.7304479480

$$$$
[H]c1nc([H])c([H])c(-c2c([H])c([H])c([H])c(C3=Nc4c([H])c([H])c(C(F)(F)F)c([H])c4N([H])C(=O)C3([H])[H])c2[H])c1[H]


 29 32  0  0  0  0  0  0  0  0999 V2000
   20.3989    5.3687   53.6604 C   0  0  0  0  0  0  0  0  0  0  0  0
   21.6354    4.7804   53.6989 C   0  0  0  0  0  0  0  0  0  0  0  0
   22.7861    5.4423   54.0341 C   0  0  0  0  0  0  0  0  0  0  0  0
   22.6693    6.7905   54.3505 C   0  0  0  0  0  0  0  0  0  0  0  0
   23.9050    7.3997   54.6629 N   0  0  0  0  0  0  0  0  0  0  0  0
   24.2820    8.5985   54.9719 C   0  0  0  0  0  0  0  0  0  0  0  0
   23.5203    9.8342   55.1218 C   0  0  0  0  0  0  0  0  0  0  0  0
   22.1411    9.8383   54.6364 C   0  0  0  0  0  0  0  0  0  0  0  0
   21.7118   10.9366   54.1386 O   0  0  0  0  0  0  0  0  0  0  0  0
   21.1783    8.8129   54.6196 N   0  0  0  0  0  0  0  0  0  0  0  0
   21.4409    7.4325   54.3271 C   0  0  0  0  0  0  0  0  0  0  0  0
   20.3135    6.7063   53.9798 C   0  0  0  0  0  0  0  0  0  0  0  0
   20.1795    9.0252   54.8270 H   0  0  0  0  0  0  0  0  0  0  0  0
   25.7446    8.7371   55.1667 C   0  0  0  0  0  0  0  0  0  0  0  0
   26.5732    8.5146   54.0640 C   0  0  0  0  0  0  0  0  0  0  0  0
   27.9224    8.6955   54.2321 C   0  0  0  0  0  0  0  0  0  0  0  0
   28.4546    9.0826   55.4400 C   0  0  0  0  0  0  0  0  0  0  0  0
   27.6617    9.3106   56.5527 C   0  0  0  0  0  0  0  0  0  0  0  0
   26.2941    9.1209   56.3620 C   0  0  0  0  0  0  0  0  0  0  0  0
   28.2227    9.7619   57.8120 C   0  0  0  0  0  0  0  0  0  0  0  0
   28.5915    8.8908   58.8184 C   0  0  0  0  0  0  0  0  0  0  0  0
   29.1508    9.3070   60.0281 C   0  0  0  0  0  0  0  0  0  0  0  0
   29.3261   10.6343   60.1916 N   0  0  0  0  0  0  0  0  0  0  0  0
   28.9843   11.5271   59.2508 C   0  0  0  0  0  0  0  0  0  0  0  0
   28.4263   11.1003   58.0449 C   0  0  0  0  0  0  0  0  0  0  0  0
   18.0475    5.2720   53.2665 F   0  0  0  0  0  0  0  0  0  0  0  0
   19.2347    4.5474   53.2725 C   0  0  0  0  0  0  0  0  0  0  0  0
   19.0471    3.5658   54.2649 F   0  0  0  0  0  0  0  0  0  0  0  0
   19.4412    3.8550   52.0931 F   0  0  0  0  0  0  0  0  0  0  0  0
 26 27  1  0  0  0
 27 28  1  0  0  0
 27 29  1  0  0  0
 27  1  1  0  0  0
  1  2  2  0  0  0
  2  3  1  0  0  0
  3  4  2  0  0  0
  4  5  1  0  0  0
  5  6  2  0  0  0
  6  7  1  0  0  0
  7  8  1  0  0  0
  8  9  2  0  0  0
  8 10  1  0  0  0
 10 11  1  0  0  0
 11 12  2  0  0  0
  6 14  1  0  0  0
 14 15  2  0  0  0
 15 16  1  0  0  0
 16 17  2  0  0  0
 17 18  1  0  0  0
 18 19  2  0  0  0
 18 20  1  0  0  0
 20 21  2  0  0  0
 21 22  1  0  0  0
 22 23  2  0  0  0
 23 24  1  0  0  0
 24 25  2  0  0  0
 12  1  1  0  0  0
 19 14  1  0  0  0
 25 20  1  0  0  0
 11  4  1  0  0  0
 10 13  1  0  0  0
M  END
> <minimizedAffinity>
11.88724

> <CNNscore>
0.4950108528

> <CNNaffinity>
6.0236215591

> <CNN_VS>
2.9817581177

> <CNNaffinity_variance>
0.0359514430

$$$$
[H]c1nc([H])c([H])c(-c2c([H])c([H])c([H])c(C3=Nc4c([H])c([H])c(C(F)(F)F)c([H])c4N([H])C(=O)C3([H])[H])c2[H])c1[H]


 29 32  0  0  0  0  0  0  0  0999 V2000
   20.6362    8.0444   51.7895 C   0  0  0  0  0  0  0  0  0  0  0  0
   21.8703    7.6270   51.3656 C   0  0  0  0  0  0  0  0  0  0  0  0
   23.0143    7.7495   52.1077 C   0  0  0  0  0  0  0  0  0  0  0  0
   22.8933    8.3349   53.3623 C   0  0  0  0  0  0  0  0  0  0  0  0
   24.1228    8.4412   54.0498 N   0  0  0  0  0  0  0  0  0  0  0  0
   24.4952    8.9307   55.1884 C   0  0  0  0  0  0  0  0  0  0  0  0
   23.7329    9.5901   56.2437 C   0  0  0  0  0  0  0  0  0  0  0  0
   22.3652   10.0012   55.9302 C   0  0  0  0  0  0  0  0  0  0  0  0
   21.9498   11.0789   56.4820 O   0  0  0  0  0  0  0  0  0  0  0  0
   21.4008    9.4003   55.1011 N   0  0  0  0  0  0  0  0  0  0  0  0
   21.6671    8.7734   53.8377 C   0  0  0  0  0  0  0  0  0  0  0  0
   20.5464    8.6202   53.0379 C   0  0  0  0  0  0  0  0  0  0  0  0
   20.3980    9.3874   55.3837 H   0  0  0  0  0  0  0  0  0  0  0  0
   25.9532    8.8346   55.4359 C   0  0  0  0  0  0  0  0  0  0  0  0
   26.7594    8.3504   54.4026 C   0  0  0  0  0  0  0  0  0  0  0  0
   28.1141    8.3123   54.6138 C   0  0  0  0  0  0  0  0  0  0  0  0
   28.6729    8.7334   55.7980 C   0  0  0  0  0  0  0  0  0  0  0  0
   27.9026    9.2179   56.8424 C   0  0  0  0  0  0  0  0  0  0  0  0
   26.5288    9.2481   56.6088 C   0  0  0  0  0  0  0  0  0  0  0  0
   28.4996    9.7027   58.0723 C   0  0  0  0  0  0  0  0  0  0  0  0
   29.0039    8.8561   59.0402 C   0  0  0  0  0  0  0  0  0  0  0  0
   29.5993    9.3063   60.2201 C   0  0  0  0  0  0  0  0  0  0  0  0
   29.6694   10.6419   60.3940 N   0  0  0  0  0  0  0  0  0  0  0  0
   29.1942   11.5117   59.4904 C   0  0  0  0  0  0  0  0  0  0  0  0
   28.6012   11.0511   58.3140 C   0  0  0  0  0  0  0  0  0  0  0  0
   19.8406    7.3430   49.6520 F   0  0  0  0  0  0  0  0  0  0  0  0
   19.4794    7.8652   50.8894 C   0  0  0  0  0  0  0  0  0  0  0  0
   18.9557    9.1398   50.5982 F   0  0  0  0  0  0  0  0  0  0  0  0
   18.4473    7.1613   51.4831 F   0  0  0  0  0  0  0  0  0  0  0  0
 26 27  1  0  0  0
 27 28  1  0  0  0
 27 29  1  0  0  0
 27  1  1  0  0  0
  1  2  2  0  0  0
  2  3  1  0  0  0
  3  4  2  0  0  0
  4  5  1  0  0  0
  5  6  2  0  0  0
  6  7  1  0  0  0
  7  8  1  0  0  0
  8  9  2  0  0  0
  8 10  1  0  0  0
 10 11  1  0  0  0
 11 12  2  0  0  0
  6 14  1  0  0  0
 14 15  2  0  0  0
 15 16  1  0  0  0
 16 17  2  0  0  0
 17 18  1  0  0  0
 18 19  2  0  0  0
 18 20  1  0  0  0
 20 21  2  0  0  0
 21 22  1  0  0  0
 22 23  2  0  0  0
 23 24  1  0  0  0
 24 25  2  0  0  0
 12  1  1  0  0  0
 19 14  1  0  0  0
 25 20  1  0  0  0
 11  4  1  0  0  0
 10 13  1  0  0  0
M  END
> <minimizedAffinity>
22.81308

> <CNNscore>
0.4790881574

> <CNNaffinity>
5.8629050255

> <CNN_VS>
2.8088483810

> <CNNaffinity_variance>
0.0486138761

$$$$
[H]c1nc([H])c([H])c(-c2c([H])c([H])c([H])c(C3=Nc4c([H])c([H])c(C(F)(F)F)c([H])c4N([H])C(=O)C3([H])[H])c2[H])c1[H]


 29 32  0  0  0  0  0  0  0  0999 V2000
   20.8026    8.2242   51.9731 C   0  0  0  0  0  0  0  0  0  0  0  0
   21.6451    9.2971   51.8482 C   0  0  0  0  0  0  0  0  0  0  0  0
   22.8875    9.3633   52.4197 C   0  0  0  0  0  0  0  0  0  0  0  0
   23.2979    8.2655   53.1665 C   0  0  0  0  0  0  0  0  0  0  0  0
   24.5804    8.4261   53.7367 N   0  0  0  0  0  0  0  0  0  0  0  0
   25.3338    7.7128   54.5103 C   0  0  0  0  0  0  0  0  0  0  0  0
   25.1208    6.3999   55.1108 C   0  0  0  0  0  0  0  0  0  0  0  0
   23.7685    5.8465   55.0578 C   0  0  0  0  0  0  0  0  0  0  0  0
   23.3994    5.1378   56.0578 O   0  0  0  0  0  0  0  0  0  0  0  0
   22.7741    5.9643   54.0699 N   0  0  0  0  0  0  0  0  0  0  0  0
   22.4831    7.1549   53.3231 C   0  0  0  0  0  0  0  0  0  0  0  0
   21.2366    7.1498   52.7186 C   0  0  0  0  0  0  0  0  0  0  0  0
   22.1727    5.1485   53.8284 H   0  0  0  0  0  0  0  0  0  0  0  0
   26.6129    8.3673   54.8735 C   0  0  0  0  0  0  0  0  0  0  0  0
   27.5443    8.5880   53.8556 C   0  0  0  0  0  0  0  0  0  0  0  0
   28.7049    9.2417   54.1827 C   0  0  0  0  0  0  0  0  0  0  0  0
   28.9558    9.6707   55.4653 C   0  0  0  0  0  0  0  0  0  0  0  0
   28.0544    9.4675   56.4973 C   0  0  0  0  0  0  0  0  0  0  0  0
   26.8819    8.8010   56.1453 C   0  0  0  0  0  0  0  0  0  0  0  0
   28.3032    9.9610   57.8384 C   0  0  0  0  0  0  0  0  0  0  0  0
   28.6390    9.1289   58.8885 C   0  0  0  0  0  0  0  0  0  0  0  0
   28.9009    9.5894   60.1803 C   0  0  0  0  0  0  0  0  0  0  0  0
   28.8123   10.9202   60.3804 N   0  0  0  0  0  0  0  0  0  0  0  0
   28.4877   11.7759   59.3999 C   0  0  0  0  0  0  0  0  0  0  0  0
   28.2282   11.3051   58.1120 C   0  0  0  0  0  0  0  0  0  0  0  0
   18.4627    7.7805   52.1204 F   0  0  0  0  0  0  0  0  0  0  0  0
   19.4815    8.2796   51.3158 C   0  0  0  0  0  0  0  0  0  0  0  0
   19.5136    7.4143   50.2051 F   0  0  0  0  0  0  0  0  0  0  0  0
   19.1923    9.5331   50.8076 F   0  0  0  0  0  0  0  0  0  0  0  0
 26 27  1  0  0  0
 27 28  1  0  0  0
 27 29  1  0  0  0
 27  1  1  0  0  0
  1  2  2  0  0  0
  2  3  1  0  0  0
  3  4  2  0  0  0
  4  5  1  0  0  0
  5  6  2  0  0  0
  6  7  1  0  0  0
  7  8  1  0  0  0
  8  9  2  0  0  0
  8 10  1  0  0  0
 10 11  1  0  0  0
 11 12  2  0  0  0
  6 14  1  0  0  0
 14 15  2  0  0  0
 15 16  1  0  0  0
 16 17  2  0  0  0
 17 18  1  0  0  0
 18 19  2  0  0  0
 18 20  1  0  0  0
 20 21  2  0  0  0
 21 22  1  0  0  0
 22 23  2  0  0  0
 23 24  1  0  0  0
 24 25  2  0  0  0
 12  1  1  0  0  0
 19 14  1  0  0  0
 25 20  1  0  0  0
 11  4  1  0  0  0
 10 13  1  0  0  0
M  END
> <minimizedAffinity>
16.99944

> <CNNscore>
0.4770461917

> <CNNaffinity>
5.9830379486

> <CNN_VS>
2.8541855812

> <CNNaffinity_variance>
0.1065314040

$$$$
[H]c1nc([H])c([H])c(-c2c([H])c([H])c([H])c(C3=Nc4c([H])c([H])c(C(F)(F)F)c([H])c4N([H])C(=O)C3([H])[H])c2[H])c1[H]


 29 32  0  0  0  0  0  0  0  0999 V2000
   20.2301    4.9501   53.7101 C   0  0  0  0  0  0  0  0  0  0  0  0
   21.4350    4.4354   53.3102 C   0  0  0  0  0  0  0  0  0  0  0  0
   22.6082    5.1411   53.3206 C   0  0  0  0  0  0  0  0  0  0  0  0
   22.5499    6.4559   53.7672 C   0  0  0  0  0  0  0  0  0  0  0  0
   23.7984    7.1157   53.7249 N   0  0  0  0  0  0  0  0  0  0  0  0
   24.2109    8.3117   53.9973 C   0  0  0  0  0  0  0  0  0  0  0  0
   23.4927    9.4869   54.4796 C   0  0  0  0  0  0  0  0  0  0  0  0
   22.0315    9.4409   54.4534 C   0  0  0  0  0  0  0  0  0  0  0  0
   21.4275   10.5422   54.2074 O   0  0  0  0  0  0  0  0  0  0  0  0
   21.1504    8.3632   54.6555 N   0  0  0  0  0  0  0  0  0  0  0  0
   21.3555    7.0235   54.1831 C   0  0  0  0  0  0  0  0  0  0  0  0
   20.2029    6.2559   54.1488 C   0  0  0  0  0  0  0  0  0  0  0  0
   20.2622    8.5011   55.1826 H   0  0  0  0  0  0  0  0  0  0  0  0
   25.6539    8.5242   53.7340 C   0  0  0  0  0  0  0  0  0  0  0  0
   26.5527    8.2470   54.7672 C   0  0  0  0  0  0  0  0  0  0  0  0
   27.8913    8.3927   54.5054 C   0  0  0  0  0  0  0  0  0  0  0  0
   28.3465    8.7974   53.2720 C   0  0  0  0  0  0  0  0  0  0  0  0
   27.4825    9.0807   52.2270 C   0  0  0  0  0  0  0  0  0  0  0  0
   26.1269    8.9275   52.5128 C   0  0  0  0  0  0  0  0  0  0  0  0
   27.9688    9.4638   50.9151 C   0  0  0  0  0  0  0  0  0  0  0  0
   28.1361    8.5557   49.8878 C   0  0  0  0  0  0  0  0  0  0  0  0
   28.5841    8.9108   48.6140 C   0  0  0  0  0  0  0  0  0  0  0  0
   28.8600   10.2149   48.4086 N   0  0  0  0  0  0  0  0  0  0  0  0
   28.7193   11.1407   49.3688 C   0  0  0  0  0  0  0  0  0  0  0  0
   28.2703   10.7752   50.6387 C   0  0  0  0  0  0  0  0  0  0  0  0
   17.8481    4.8159   53.6718 F   0  0  0  0  0  0  0  0  0  0  0  0
   19.0330    4.0883   53.6411 C   0  0  0  0  0  0  0  0  0  0  0  0
   18.9976    3.3017   54.8088 F   0  0  0  0  0  0  0  0  0  0  0  0
   19.0810    3.1942   52.5868 F   0  0  0  0  0  0  0  0  0  0  0  0
 26 27  1  0  0  0
 27 28  1  0  0  0
 27 29  1  0  0  0
 27  1  1  0  0  0
  1  2  2  0  0  0
  2  3  1  0  0  0
  3  4  2  0  0  0
  4  5  1  0  0  0
  5  6  2  0  0  0
  6  7  1  0  0  0
  7  8  1  0  0  0
  8  9  2  0  0  0
  8 10  1  0  0  0
 10 11  1  0  0  0
 11 12  2  0  0  0
  6 14  1  0  0  0
 14 15  2  0  0  0
 15 16  1  0  0  0
 16 17  2  0  0  0
 17 18  1  0  0  0
 18 19  2  0  0  0
 18 20  1  0  0  0
 20 21  2  0  0  0
 21 22  1  0  0  0
 22 23  2  0  0  0
 23 24  1  0  0  0
 24 25  2  0  0  0
 12  1  1  0  0  0
 19 14  1  0  0  0
 25 20  1  0  0  0
 11  4  1  0  0  0
 10 13  1  0  0  0
M  END
> <minimizedAffinity>
29.32257

> <CNNscore>
0.4502806664

> <CNNaffinity>
5.7463397980

> <CNN_VS>
2.5874657631

> <CNNaffinity_variance>
0.3267082572

$$$$
[H]c1nc([H])c([H])c(-c2c([H])c([H])c([H])c(C3=Nc4c([H])c([H])c(C(F)(F)F)c([H])c4N([H])C(=O)C3([H])[H])c2[H])c1[H]


 29 32  0  0  0  0  0  0  0  0999 V2000
   27.8105    9.4720   57.7599 C   0  0  0  0  0  0  0  0  0  0  0  0
   26.4877    9.6047   58.0904 C   0  0  0  0  0  0  0  0  0  0  0  0
   25.4559    9.3580   57.2250 C   0  0  0  0  0  0  0  0  0  0  0  0
   25.7936    8.9499   55.9401 C   0  0  0  0  0  0  0  0  0  0  0  0
   24.6714    8.7384   55.1085 N   0  0  0  0  0  0  0  0  0  0  0  0
   24.5002    8.4008   53.8710 C   0  0  0  0  0  0  0  0  0  0  0  0
   25.4638    8.0939   52.8189 C   0  0  0  0  0  0  0  0  0  0  0  0
   26.8654    8.4244   53.0723 C   0  0  0  0  0  0  0  0  0  0  0  0
   27.5561    8.8049   52.0640 O   0  0  0  0  0  0  0  0  0  0  0  0
   27.6059    8.3976   54.2680 N   0  0  0  0  0  0  0  0  0  0  0  0
   27.1171    8.7999   55.5560 C   0  0  0  0  0  0  0  0  0  0  0  0
   28.1152    9.0649   56.4794 C   0  0  0  0  0  0  0  0  0  0  0  0
   28.5949    8.0696   54.2675 H   0  0  0  0  0  0  0  0  0  0  0  0
   23.0797    8.3592   53.4503 C   0  0  0  0  0  0  0  0  0  0  0  0
   22.5622    9.4768   52.7906 C   0  0  0  0  0  0  0  0  0  0  0  0
   21.2631    9.4162   52.3544 C   0  0  0  0  0  0  0  0  0  0  0  0
   20.4855    8.2991   52.5532 C   0  0  0  0  0  0  0  0  0  0  0  0
   20.9673    7.1751   53.2038 C   0  0  0  0  0  0  0  0  0  0  0  0
   22.2886    7.2563   53.6400 C   0  0  0  0  0  0  0  0  0  0  0  0
   20.1581    5.9829   53.3716 C   0  0  0  0  0  0  0  0  0  0  0  0
   18.8094    6.0328   53.6654 C   0  0  0  0  0  0  0  0  0  0  0  0
   18.0122    4.8958   53.8107 C   0  0  0  0  0  0  0  0  0  0  0  0
   18.6205    3.7028   53.6507 N   0  0  0  0  0  0  0  0  0  0  0  0
   19.9270    3.5928   53.3676 C   0  0  0  0  0  0  0  0  0  0  0  0
   20.7148    4.7358   53.2241 C   0  0  0  0  0  0  0  0  0  0  0  0
   29.6369    8.6849   59.0785 F   0  0  0  0  0  0  0  0  0  0  0  0
   28.8310    9.7790   58.7821 C   0  0  0  0  0  0  0  0  0  0  0  0
   28.1631   10.0658   59.9885 F   0  0  0  0  0  0  0  0  0  0  0  0
   29.5634   10.9126   58.4791 F   0  0  0  0  0  0  0  0  0  0  0  0
 26 27  1  0  0  0
 27 28  1  0  0  0
 27 29  1  0  0  0
 27  1  1  0  0  0
  1  2  2  0  0  0
  2  3  1  0  0  0
  3  4  2  0  0  0
  4  5  1  0  0  0
  5  6  2  0  0  0
  6  7  1  0  0  0
  7  8  1  0  0  0
  8  9  2  0  0  0
  8 10  1  0  0  0
 10 11  1  0  0  0
 11 12  2  0  0  0
  6 14  1  0  0  0
 14 15  2  0  0  0
 15 16  1  0  0  0
 16 17  2  0  0  0
 17 18  1  0  0  0
 18 19  2  0  0  0
 18 20  1  0  0  0
 20 21  2  0  0  0
 21 22  1  0  0  0
 22 23  2  0  0  0
 23 24  1  0  0  0
 24 25  2  0  0  0
 12  1  1  0  0  0
 19 14  1  0  0  0
 25 20  1  0  0  0
 11  4  1  0  0  0
 10 13  1  0  0  0
M  END
> <minimizedAffinity>
26.17388

> <CNNscore>
0.4430903494

> <CNNaffinity>
5.8932352066

> <CNN_VS>
2.6112356186

> <CNNaffinity_variance>
0.4037037790

$$$$
[H]OC(=O)C([H])(N([H])[H])[C@]1([H])[C@@]([H])(C(=O)O[H])[C@]1([H])C([H])([H])C([H])([H])C1([H])c2c([H])c([H])c([H])c([H])c2Oc2c([H])c([H])c([H])c([H])c21


 31 34  0  0  0  0  0  0  0  0999 V2000
   23.7953    8.5293   52.3505 C   0  0  0  0  0  0  0  0  0  0  0  0
   21.4359    9.5663   51.8424 C   0  0  0  0  0  0  0  0  0  0  0  0
   22.4124    8.4553   51.7067 C   0  0  0  0  0  0  0  0  0  0  0  0
   21.2008    8.3909   52.6543 C   0  0  0  0  0  0  0  0  0  0  0  0
   21.1635   11.1603   53.5818 N   0  0  0  0  0  0  0  0  0  0  0  0
   21.8331   10.9158   52.3190 C   0  0  0  0  0  0  0  0  0  0  0  0
   20.5989   12.0234   53.5722 H   0  0  0  0  0  0  0  0  0  0  0  0
   20.5736   10.3692   53.9065 H   0  0  0  0  0  0  0  0  0  0  0  0
   21.6457   12.0304   51.4245 C   0  0  0  0  0  0  0  0  0  0  0  0
   22.0669   13.3348   51.6191 O   0  0  0  0  0  0  0  0  0  0  0  0
   21.0365   11.8230   50.3427 O   0  0  0  0  0  0  0  0  0  0  0  0
   21.6496   14.1401   51.2211 H   0  0  0  0  0  0  0  0  0  0  0  0
   20.1416    7.4162   52.2534 C   0  0  0  0  0  0  0  0  0  0  0  0
   19.8192    6.2900   52.9964 O   0  0  0  0  0  0  0  0  0  0  0  0
   19.5292    7.6583   51.1815 O   0  0  0  0  0  0  0  0  0  0  0  0
   19.6366    6.3304   53.9834 H   0  0  0  0  0  0  0  0  0  0  0  0
   24.1360    7.2355   52.9130 C   0  0  0  0  0  0  0  0  0  0  0  0
   24.5675    7.2655   54.3699 C   0  0  0  0  0  0  0  0  0  0  0  0
   23.4950    8.0334   55.0897 C   0  0  0  0  0  0  0  0  0  0  0  0
   22.1808    7.5065   55.0200 C   0  0  0  0  0  0  0  0  0  0  0  0
   21.1406    8.2249   55.5474 C   0  0  0  0  0  0  0  0  0  0  0  0
   21.3856    9.4443   56.1360 C   0  0  0  0  0  0  0  0  0  0  0  0
   22.6588    9.9529   56.2056 C   0  0  0  0  0  0  0  0  0  0  0  0
   23.7438    9.2213   55.6673 C   0  0  0  0  0  0  0  0  0  0  0  0
   25.0179    9.7572   55.7753 O   0  0  0  0  0  0  0  0  0  0  0  0
   26.0741    8.9931   55.2529 C   0  0  0  0  0  0  0  0  0  0  0  0
   27.3676    9.5142   55.3982 C   0  0  0  0  0  0  0  0  0  0  0  0
   28.4903    8.8564   54.9638 C   0  0  0  0  0  0  0  0  0  0  0  0
   28.3114    7.6354   54.3647 C   0  0  0  0  0  0  0  0  0  0  0  0
   27.0529    7.1356   54.2233 C   0  0  0  0  0  0  0  0  0  0  0  0
   25.8886    7.7769   54.6462 C   0  0  0  0  0  0  0  0  0  0  0  0
  5  6  1  0  0  0
  6  2  1  0  0  0
  2  3  1  0  0  0
  3  1  1  0  0  0
  1 17  1  0  0  0
 17 18  1  0  0  0
 18 19  1  0  0  0
 19 20  2  0  0  0
 20 21  1  0  0  0
 21 22  2  0  0  0
 22 23  1  0  0  0
 23 24  2  0  0  0
 24 25  1  0  0  0
 25 26  1  0  0  0
 26 27  2  0  0  0
 27 28  1  0  0  0
 28 29  2  0  0  0
 29 30  1  0  0  0
 30 31  2  0  0  0
  3  4  1  0  0  0
  4 13  1  0  0  0
 13 14  1  0  0  0
 13 15  2  0  0  0
  6  9  1  0  0  0
  9 10  1  0  0  0
  9 11  2  0  0  0
  4  2  1  0  0  0
 31 18  1  0  0  0
 24 19  1  0  0  0
 31 26  1  0  0  0
  5  7  1  0  0  0
  5  8  1  0  0  0
 14 16  1  0  0  0
 10 12  1  0  0  0
M  END
> <minimizedAffinity>
10.07927

> <CNNscore>
0.7897319794

> <CNNaffinity>
6.5386695862

> <CNN_VS>
5.1637964249

> <CNNaffinity_variance>
0.4298160076

$$$$
[H]OC(=O)C([H])(N([H])[H])[C@]1([H])[C@@]([H])(C(=O)O[H])[C@]1([H])C([H])([H])C([H])([H])C1([H])c2c([H])c([H])c([H])c([H])c2Oc2c([H])c([H])c([H])c([H])c21


 31 34  0  0  0  0  0  0  0  0999 V2000
   22.4723    9.6880   55.7917 C   0  0  0  0  0  0  0  0  0  0  0  0
   20.5874    9.6432   53.9627 C   0  0  0  0  0  0  0  0  0  0  0  0
   21.5898   10.3920   54.7631 C   0  0  0  0  0  0  0  0  0  0  0  0
   21.8080   10.0248   53.2841 C   0  0  0  0  0  0  0  0  0  0  0  0
   21.0010    7.8001   55.4024 N   0  0  0  0  0  0  0  0  0  0  0  0
   20.1570    8.2671   54.3196 C   0  0  0  0  0  0  0  0  0  0  0  0
   21.4784    6.9132   55.1807 H   0  0  0  0  0  0  0  0  0  0  0  0
   21.7033    8.4966   55.7202 H   0  0  0  0  0  0  0  0  0  0  0  0
   20.0964    7.2839   53.2674 C   0  0  0  0  0  0  0  0  0  0  0  0
   19.7518    5.9490   53.3932 O   0  0  0  0  0  0  0  0  0  0  0  0
   20.3826    7.6523   52.0982 O   0  0  0  0  0  0  0  0  0  0  0  0
   20.0473    5.2190   52.7927 H   0  0  0  0  0  0  0  0  0  0  0  0
   21.7974   11.1841   52.3415 C   0  0  0  0  0  0  0  0  0  0  0  0
   22.1749   12.4683   52.7058 O   0  0  0  0  0  0  0  0  0  0  0  0
   21.4216   10.9499   51.1640 O   0  0  0  0  0  0  0  0  0  0  0  0
   23.0349   12.6600   53.1883 H   0  0  0  0  0  0  0  0  0  0  0  0
   23.8466    9.6814   55.3251 C   0  0  0  0  0  0  0  0  0  0  0  0
   24.5796    8.3637   55.5143 C   0  0  0  0  0  0  0  0  0  0  0  0
   26.0415    8.7072   55.4632 C   0  0  0  0  0  0  0  0  0  0  0  0
   26.5121    9.6277   56.4334 C   0  0  0  0  0  0  0  0  0  0  0  0
   27.8041   10.0769   56.3614 C   0  0  0  0  0  0  0  0  0  0  0  0
   28.6245    9.6295   55.3513 C   0  0  0  0  0  0  0  0  0  0  0  0
   28.1691    8.7362   54.4137 C   0  0  0  0  0  0  0  0  0  0  0  0
   26.8376    8.2613   54.4764 C   0  0  0  0  0  0  0  0  0  0  0  0
   26.4200    7.3436   53.5247 O   0  0  0  0  0  0  0  0  0  0  0  0
   25.1008    6.8744   53.6316 C   0  0  0  0  0  0  0  0  0  0  0  0
   24.6898    5.9153   52.6951 C   0  0  0  0  0  0  0  0  0  0  0  0
   23.4401    5.3494   52.7056 C   0  0  0  0  0  0  0  0  0  0  0  0
   22.5735    5.7572   53.6878 C   0  0  0  0  0  0  0  0  0  0  0  0
   22.9768    6.6911   54.5927 C   0  0  0  0  0  0  0  0  0  0  0  0
   24.2352    7.2926   54.6102 C   0  0  0  0  0  0  0  0  0  0  0  0
  5  6  1  0  0  0
  6  2  1  0  0  0
  2  3  1  0  0  0
  3  1  1  0  0  0
  1 17  1  0  0  0
 17 18  1  0  0  0
 18 19  1  0  0  0
 19 20  2  0  0  0
 20 21  1  0  0  0
 21 22  2  0  0  0
 22 23  1  0  0  0
 23 24  2  0  0  0
 24 25  1  0  0  0
 25 26  1  0  0  0
 26 27  2  0  0  0
 27 28  1  0  0  0
 28 29  2  0  0  0
 29 30  1  0  0  0
 30 31  2  0  0  0
  3  4  1  0  0  0
  4 13  1  0  0  0
 13 14  1  0  0  0
 13 15  2  0  0  0
  6  9  1  0  0  0
  9 10  1  0  0  0
  9 11  2  0  0  0
  4  2  1  0  0  0
 31 18  1  0  0  0
 24 19  1  0  0  0
 31 26  1  0  0  0
  5  7  1  0  0  0
  5  8  1  0  0  0
 14 16  1  0  0  0
 10 12  1  0  0  0
M  END
> <minimizedAffinity>
9.41470

> <CNNscore>
0.7710199356

> <CNNaffinity>
6.4978675842

> <CNN_VS>
5.0099854469

> <CNNaffinity_variance>
0.3565577865

$$$$
[H]OC(=O)C([H])(N([H])[H])[C@]1([H])[C@@]([H])(C(=O)O[H])[C@]1([H])C([H])([H])C([H])([H])C1([H])c2c([H])c([H])c([H])c([H])c2Oc2c([H])c([H])c([H])c([H])c21


 31 34  0  0  0  0  0  0  0  0999 V2000
   21.8346   10.1765   55.1916 C   0  0  0  0  0  0  0  0  0  0  0  0
   21.1924   10.1611   52.6446 C   0  0  0  0  0  0  0  0  0  0  0  0
   21.1663   10.8171   53.9770 C   0  0  0  0  0  0  0  0  0  0  0  0
   22.0874   11.2831   52.8349 C   0  0  0  0  0  0  0  0  0  0  0  0
   22.9716    8.6871   52.0948 N   0  0  0  0  0  0  0  0  0  0  0  0
   21.5720    8.7357   52.4711 C   0  0  0  0  0  0  0  0  0  0  0  0
   23.1285    8.1800   51.2105 H   0  0  0  0  0  0  0  0  0  0  0  0
   23.4261    9.6196   52.0397 H   0  0  0  0  0  0  0  0  0  0  0  0
   20.7807    7.9300   51.5755 C   0  0  0  0  0  0  0  0  0  0  0  0
   21.0398    7.6683   50.2409 O   0  0  0  0  0  0  0  0  0  0  0  0
   19.7360    7.3947   52.0302 O   0  0  0  0  0  0  0  0  0  0  0  0
   20.3608    7.4440   49.5557 H   0  0  0  0  0  0  0  0  0  0  0  0
   21.7386   12.6134   52.2505 C   0  0  0  0  0  0  0  0  0  0  0  0
   20.8127   13.4773   52.8167 O   0  0  0  0  0  0  0  0  0  0  0  0
   22.3330   12.9366   51.1900 O   0  0  0  0  0  0  0  0  0  0  0  0
   20.8354   13.7288   53.7890 H   0  0  0  0  0  0  0  0  0  0  0  0
   23.2242    9.8917   54.8841 C   0  0  0  0  0  0  0  0  0  0  0  0
   23.7275    8.5484   55.3858 C   0  0  0  0  0  0  0  0  0  0  0  0
   25.2207    8.5940   55.2239 C   0  0  0  0  0  0  0  0  0  0  0  0
   25.9044    9.6207   55.9226 C   0  0  0  0  0  0  0  0  0  0  0  0
   27.2476    9.7931   55.7169 C   0  0  0  0  0  0  0  0  0  0  0  0
   27.9123    8.9694   54.8376 C   0  0  0  0  0  0  0  0  0  0  0  0
   27.2503    7.9736   54.1633 C   0  0  0  0  0  0  0  0  0  0  0  0
   25.8632    7.7818   54.3672 C   0  0  0  0  0  0  0  0  0  0  0  0
   25.2332    6.7524   53.6847 O   0  0  0  0  0  0  0  0  0  0  0  0
   23.8619    6.5746   53.9298 C   0  0  0  0  0  0  0  0  0  0  0  0
   23.2322    5.5083   53.2722 C   0  0  0  0  0  0  0  0  0  0  0  0
   21.9064    5.2021   53.4471 C   0  0  0  0  0  0  0  0  0  0  0  0
   21.1877    5.9898   54.3102 C   0  0  0  0  0  0  0  0  0  0  0  0
   21.8035    7.0258   54.9435 C   0  0  0  0  0  0  0  0  0  0  0  0
   23.1458    7.3711   54.7867 C   0  0  0  0  0  0  0  0  0  0  0  0
  5  6  1  0  0  0
  6  2  1  0  0  0
  2  3  1  0  0  0
  3  1  1  0  0  0
  1 17  1  0  0  0
 17 18  1  0  0  0
 18 19  1  0  0  0
 19 20  2  0  0  0
 20 21  1  0  0  0
 21 22  2  0  0  0
 22 23  1  0  0  0
 23 24  2  0  0  0
 24 25  1  0  0  0
 25 26  1  0  0  0
 26 27  2  0  0  0
 27 28  1  0  0  0
 28 29  2  0  0  0
 29 30  1  0  0  0
 30 31  2  0  0  0
  3  4  1  0  0  0
  4 13  1  0  0  0
 13 14  1  0  0  0
 13 15  2  0  0  0
  6  9  1  0  0  0
  9 10  1  0  0  0
  9 11  2  0  0  0
  4  2  1  0  0  0
 31 18  1  0  0  0
 24 19  1  0  0  0
 31 26  1  0  0  0
  5  7  1  0  0  0
  5  8  1  0  0  0
 14 16  1  0  0  0
 10 12  1  0  0  0
M  END
> <minimizedAffinity>
8.07367

> <CNNscore>
0.7499235272

> <CNNaffinity>
6.6508231163

> <CNN_VS>
4.9876089096

> <CNNaffinity_variance>
0.3635613322

$$$$
[H]OC(=O)C([H])(N([H])[H])[C@]1([H])[C@@]([H])(C(=O)O[H])[C@]1([H])C([H])([H])C([H])([H])C1([H])c2c([H])c([H])c([H])c([H])c2Oc2c([H])c([H])c([H])c([H])c21


 31 34  0  0  0  0  0  0  0  0999 V2000
   23.3856   10.0881   54.6424 C   0  0  0  0  0  0  0  0  0  0  0  0
   21.7609   10.2453   52.5843 C   0  0  0  0  0  0  0  0  0  0  0  0
   22.6000    9.4374   53.5059 C   0  0  0  0  0  0  0  0  0  0  0  0
   21.0641    9.4836   53.5993 C   0  0  0  0  0  0  0  0  0  0  0  0
   21.2222   12.2919   53.6623 N   0  0  0  0  0  0  0  0  0  0  0  0
   21.8761   11.7237   52.4993 C   0  0  0  0  0  0  0  0  0  0  0  0
   20.4844   12.9681   53.4131 H   0  0  0  0  0  0  0  0  0  0  0  0
   20.8314   11.5838   54.3143 H   0  0  0  0  0  0  0  0  0  0  0  0
   21.4151   12.3692   51.2958 C   0  0  0  0  0  0  0  0  0  0  0  0
   21.0169   13.6879   51.1577 O   0  0  0  0  0  0  0  0  0  0  0  0
   21.3591   11.6826   50.2422 O   0  0  0  0  0  0  0  0  0  0  0  0
   20.3839   14.0300   50.4771 H   0  0  0  0  0  0  0  0  0  0  0  0
   20.3740    8.2122   53.2249 C   0  0  0  0  0  0  0  0  0  0  0  0
   19.6136    7.4657   54.1131 O   0  0  0  0  0  0  0  0  0  0  0  0
   20.5094    7.8265   52.0352 O   0  0  0  0  0  0  0  0  0  0  0  0
   18.8973    7.8760   54.6855 H   0  0  0  0  0  0  0  0  0  0  0  0
   23.3677    9.2165   55.8028 C   0  0  0  0  0  0  0  0  0  0  0  0
   24.1349    7.9153   55.6366 C   0  0  0  0  0  0  0  0  0  0  0  0
   25.5509    8.3201   55.3378 C   0  0  0  0  0  0  0  0  0  0  0  0
   26.2066    9.1077   56.3174 C   0  0  0  0  0  0  0  0  0  0  0  0
   27.4510    9.6134   56.0493 C   0  0  0  0  0  0  0  0  0  0  0  0
   28.0453    9.3503   54.8364 C   0  0  0  0  0  0  0  0  0  0  0  0
   27.4110    8.5854   53.8892 C   0  0  0  0  0  0  0  0  0  0  0  0
   26.1262    8.0541   54.1526 C   0  0  0  0  0  0  0  0  0  0  0  0
   25.5260    7.2688   53.1803 O   0  0  0  0  0  0  0  0  0  0  0  0
   24.2624    6.7372   53.4849 C   0  0  0  0  0  0  0  0  0  0  0  0
   23.6723    5.9089   52.5197 C   0  0  0  0  0  0  0  0  0  0  0  0
   22.4573    5.2986   52.7021 C   0  0  0  0  0  0  0  0  0  0  0  0
   21.8124    5.5247   53.8916 C   0  0  0  0  0  0  0  0  0  0  0  0
   22.3885    6.3324   54.8239 C   0  0  0  0  0  0  0  0  0  0  0  0
   23.6177    6.9742   54.6722 C   0  0  0  0  0  0  0  0  0  0  0  0
  5  6  1  0  0  0
  6  2  1  0  0  0
  2  3  1  0  0  0
  3  1  1  0  0  0
  1 17  1  0  0  0
 17 18  1  0  0  0
 18 19  1  0  0  0
 19 20  2  0  0  0
 20 21  1  0  0  0
 21 22  2  0  0  0
 22 23  1  0  0  0
 23 24  2  0  0  0
 24 25  1  0  0  0
 25 26  1  0  0  0
 26 27  2  0  0  0
 27 28  1  0  0  0
 28 29  2  0  0  0
 29 30  1  0  0  0
 30 31  2  0  0  0
  3  4  1  0  0  0
  4 13  1  0  0  0
 13 14  1  0  0  0
 13 15  2  0  0  0
  6  9  1  0  0  0
  9 10  1  0  0  0
  9 11  2  0  0  0
  4  2  1  0  0  0
 31 18  1  0  0  0
 24 19  1  0  0  0
 31 26  1  0  0  0
  5  7  1  0  0  0
  5  8  1  0  0  0
 14 16  1  0  0  0
 10 12  1  0  0  0
M  END
> <minimizedAffinity>
13.09471

> <CNNscore>
0.7132406831

> <CNNaffinity>
6.3087043762

> <CNN_VS>
4.4996247292

> <CNNaffinity_variance>
0.5644984245

$$$$
[H]OC(=O)C([H])(N([H])[H])[C@]1([H])[C@@]([H])(C(=O)O[H])[C@]1([H])C([H])([H])C([H])([H])C1([H])c2c([H])c([H])c([H])c([H])c2Oc2c([H])c([H])c([H])c([H])c21


 31 34  0  0  0  0  0  0  0  0999 V2000
   23.8020    8.1456   52.2632 C   0  0  0  0  0  0  0  0  0  0  0  0
   21.2703    8.8016   52.5082 C   0  0  0  0  0  0  0  0  0  0  0  0
   22.7043    9.0682   52.7887 C   0  0  0  0  0  0  0  0  0  0  0  0
   21.8962    9.8610   51.7454 C   0  0  0  0  0  0  0  0  0  0  0  0
   20.1328    7.7232   50.7239 N   0  0  0  0  0  0  0  0  0  0  0  0
   20.7942    7.4922   51.9935 C   0  0  0  0  0  0  0  0  0  0  0  0
   19.1653    7.3663   50.7085 H   0  0  0  0  0  0  0  0  0  0  0  0
   20.1357    8.7171   50.4215 H   0  0  0  0  0  0  0  0  0  0  0  0
   19.9644    6.6886   52.8556 C   0  0  0  0  0  0  0  0  0  0  0  0
   20.1258    5.3461   53.1526 O   0  0  0  0  0  0  0  0  0  0  0  0
   18.9801    7.2426   53.4113 O   0  0  0  0  0  0  0  0  0  0  0  0
   19.4030    4.7253   53.4230 H   0  0  0  0  0  0  0  0  0  0  0  0
   21.6323   11.2866   52.1072 C   0  0  0  0  0  0  0  0  0  0  0  0
   21.6742   12.3275   51.1910 O   0  0  0  0  0  0  0  0  0  0  0  0
   21.3610   11.5214   53.3129 O   0  0  0  0  0  0  0  0  0  0  0  0
   21.1887   12.2910   50.3124 H   0  0  0  0  0  0  0  0  0  0  0  0
   23.8473    6.9403   53.0705 C   0  0  0  0  0  0  0  0  0  0  0  0
   24.3434    7.1419   54.4927 C   0  0  0  0  0  0  0  0  0  0  0  0
   23.3169    8.0170   55.1550 C   0  0  0  0  0  0  0  0  0  0  0  0
   21.9922    7.5147   55.2069 C   0  0  0  0  0  0  0  0  0  0  0  0
   20.9887    8.3161   55.6833 C   0  0  0  0  0  0  0  0  0  0  0  0
   21.2799    9.5936   56.1036 C   0  0  0  0  0  0  0  0  0  0  0  0
   22.5633   10.0785   56.0555 C   0  0  0  0  0  0  0  0  0  0  0  0
   23.6110    9.2617   55.5682 C   0  0  0  0  0  0  0  0  0  0  0  0
   24.8975    9.7785   55.5547 O   0  0  0  0  0  0  0  0  0  0  0  0
   25.9164    8.9321   55.0884 C   0  0  0  0  0  0  0  0  0  0  0  0
   27.2237    9.4384   55.1129 C   0  0  0  0  0  0  0  0  0  0  0  0
   28.3149    8.7070   54.7177 C   0  0  0  0  0  0  0  0  0  0  0  0
   28.0891    7.4251   54.2844 C   0  0  0  0  0  0  0  0  0  0  0  0
   26.8174    6.9397   54.2596 C   0  0  0  0  0  0  0  0  0  0  0  0
   25.6839    7.6542   54.6472 C   0  0  0  0  0  0  0  0  0  0  0  0
  5  6  1  0  0  0
  6  2  1  0  0  0
  2  3  1  0  0  0
  3  1  1  0  0  0
  1 17  1  0  0  0
 17 18  1  0  0  0
 18 19  1  0  0  0
 19 20  2  0  0  0
 20 21  1  0  0  0
 21 22  2  0  0  0
 22 23  1  0  0  0
 23 24  2  0  0  0
 24 25  1  0  0  0
 25 26  1  0  0  0
 26 27  2  0  0  0
 27 28  1  0  0  0
 28 29  2  0  0  0
 29 30  1  0  0  0
 30 31  2  0  0  0
  3  4  1  0  0  0
  4 13  1  0  0  0
 13 14  1  0  0  0
 13 15  2  0  0  0
  6  9  1  0  0  0
  9 10  1  0  0  0
  9 11  2  0  0  0
  4  2  1  0  0  0
 31 18  1  0  0  0
 24 19  1  0  0  0
 31 26  1  0  0  0
  5  7  1  0  0  0
  5  8  1  0  0  0
 14 16  1  0  0  0
 10 12  1  0  0  0
M  END
> <minimizedAffinity>
10.06884

> <CNNscore>
0.6960389614

> <CNNaffinity>
6.4873132706

> <CNN_VS>
4.5154228210

> <CNNaffinity_variance>
0.3595907390

$$$$
[H]OC(=O)C([H])(N([H])[H])[C@]1([H])[C@@]([H])(C(=O)O[H])[C@]1([H])C([H])([H])C([H])([H])C1([H])c2c([H])c([H])c([H])c([H])c2Oc2c([H])c([H])c([H])c([H])c21


 31 34  0  0  0  0  0  0  0  0999 V2000
   22.7374    9.2255   55.4722 C   0  0  0  0  0  0  0  0  0  0  0  0
   20.6289    9.2670   53.9061 C   0  0  0  0  0  0  0  0  0  0  0  0
   21.6830    9.9837   54.6687 C   0  0  0  0  0  0  0  0  0  0  0  0
   21.7212    9.8261   53.1378 C   0  0  0  0  0  0  0  0  0  0  0  0
   21.3332    7.2980   55.0321 N   0  0  0  0  0  0  0  0  0  0  0  0
   20.3350    7.8273   54.1231 C   0  0  0  0  0  0  0  0  0  0  0  0
   21.8361    6.4866   54.6420 H   0  0  0  0  0  0  0  0  0  0  0  0
   22.0226    8.0033   55.3585 H   0  0  0  0  0  0  0  0  0  0  0  0
   20.2100    6.9811   52.9630 C   0  0  0  0  0  0  0  0  0  0  0  0
   20.2365    7.3764   51.6365 O   0  0  0  0  0  0  0  0  0  0  0  0
   20.0594    5.7450   53.1476 O   0  0  0  0  0  0  0  0  0  0  0  0
   19.8055    6.8976   50.8842 H   0  0  0  0  0  0  0  0  0  0  0  0
   21.5131   11.0917   52.3712 C   0  0  0  0  0  0  0  0  0  0  0  0
   21.5872   12.3528   52.9443 O   0  0  0  0  0  0  0  0  0  0  0  0
   21.2592   10.9727   51.1449 O   0  0  0  0  0  0  0  0  0  0  0  0
   22.3593   12.6378   53.5203 H   0  0  0  0  0  0  0  0  0  0  0  0
   23.8119   10.1313   55.8349 C   0  0  0  0  0  0  0  0  0  0  0  0
   25.1399    9.8544   55.1500 C   0  0  0  0  0  0  0  0  0  0  0  0
   24.9340    8.5833   54.3754 C   0  0  0  0  0  0  0  0  0  0  0  0
   23.9139    8.5974   53.3910 C   0  0  0  0  0  0  0  0  0  0  0  0
   23.5930    7.4356   52.7403 C   0  0  0  0  0  0  0  0  0  0  0  0
   24.2636    6.2748   53.0502 C   0  0  0  0  0  0  0  0  0  0  0  0
   25.2532    6.2623   54.0016 C   0  0  0  0  0  0  0  0  0  0  0  0
   25.5975    7.4550   54.6807 C   0  0  0  0  0  0  0  0  0  0  0  0
   26.6165    7.4078   55.6197 O   0  0  0  0  0  0  0  0  0  0  0  0
   26.9492    8.6146   56.2562 C   0  0  0  0  0  0  0  0  0  0  0  0
   28.0070    8.5772   57.1757 C   0  0  0  0  0  0  0  0  0  0  0  0
   28.4560    9.6889   57.8424 C   0  0  0  0  0  0  0  0  0  0  0  0
   27.8248   10.8780   57.5784 C   0  0  0  0  0  0  0  0  0  0  0  0
   26.7962   10.9079   56.6872 C   0  0  0  0  0  0  0  0  0  0  0  0
   26.3084    9.7991   55.9955 C   0  0  0  0  0  0  0  0  0  0  0  0
  5  6  1  0  0  0
  6  2  1  0  0  0
  2  3  1  0  0  0
  3  1  1  0  0  0
  1 17  1  0  0  0
 17 18  1  0  0  0
 18 19  1  0  0  0
 19 20  2  0  0  0
 20 21  1  0  0  0
 21 22  2  0  0  0
 22 23  1  0  0  0
 23 24  2  0  0  0
 24 25  1  0  0  0
 25 26  1  0  0  0
 26 27  2  0  0  0
 27 28  1  0  0  0
 28 29  2  0  0  0
 29 30  1  0  0  0
 30 31  2  0  0  0
  3  4  1  0  0  0
  4 13  1  0  0  0
 13 14  1  0  0  0
 13 15  2  0  0  0
  6  9  1  0  0  0
  9 10  1  0  0  0
  9 11  2  0  0  0
  4  2  1  0  0  0
 31 18  1  0  0  0
 24 19  1  0  0  0
 31 26  1  0  0  0
  5  7  1  0  0  0
  5  8  1  0  0  0
 14 16  1  0  0  0
 10 12  1  0  0  0
M  END
> <minimizedAffinity>
16.73662

> <CNNscore>
0.6874243021

> <CNNaffinity>
6.3185071945

> <CNN_VS>
4.3434953690

> <CNNaffinity_variance>
0.4464498162

$$$$
[H]OC(=O)C([H])(N([H])[H])[C@]1([H])[C@@]([H])(C(=O)O[H])[C@]1([H])C([H])([H])C([H])([H])C1([H])c2c([H])c([H])c([H])c([H])c2Oc2c([H])c([H])c([H])c([H])c21


 31 34  0  0  0  0  0  0  0  0999 V2000
   23.4184    6.7112   52.6162 C   0  0  0  0  0  0  0  0  0  0  0  0
   21.2608    6.3002   54.0570 C   0  0  0  0  0  0  0  0  0  0  0  0
   22.6323    5.9039   53.6469 C   0  0  0  0  0  0  0  0  0  0  0  0
   22.3283    6.5902   54.9910 C   0  0  0  0  0  0  0  0  0  0  0  0
   19.0549    7.0083   53.5338 N   0  0  0  0  0  0  0  0  0  0  0  0
   20.4570    7.2834   53.2865 C   0  0  0  0  0  0  0  0  0  0  0  0
   18.5224    6.8447   52.6659 H   0  0  0  0  0  0  0  0  0  0  0  0
   18.8892    6.2206   54.1906 H   0  0  0  0  0  0  0  0  0  0  0  0
   20.7064    7.3990   51.8716 C   0  0  0  0  0  0  0  0  0  0  0  0
   21.8589    7.0355   51.1962 O   0  0  0  0  0  0  0  0  0  0  0  0
   19.7944    7.8790   51.1488 O   0  0  0  0  0  0  0  0  0  0  0  0
   22.1736    7.4265   50.3424 H   0  0  0  0  0  0  0  0  0  0  0  0
   22.5125    5.7234   56.1942 C   0  0  0  0  0  0  0  0  0  0  0  0
   21.6117    5.6781   57.2481 O   0  0  0  0  0  0  0  0  0  0  0  0
   23.5483    5.0101   56.2218 O   0  0  0  0  0  0  0  0  0  0  0  0
   20.6250    5.5524   57.1078 H   0  0  0  0  0  0  0  0  0  0  0  0
   24.6935    7.1086   53.1845 C   0  0  0  0  0  0  0  0  0  0  0  0
   24.8402    8.5985   53.4460 C   0  0  0  0  0  0  0  0  0  0  0  0
   26.0424    8.7325   54.3374 C   0  0  0  0  0  0  0  0  0  0  0  0
   27.2703    8.2419   53.8261 C   0  0  0  0  0  0  0  0  0  0  0  0
   28.3741    8.2199   54.6368 C   0  0  0  0  0  0  0  0  0  0  0  0
   28.2757    8.6733   55.9323 C   0  0  0  0  0  0  0  0  0  0  0  0
   27.0871    9.1508   56.4261 C   0  0  0  0  0  0  0  0  0  0  0  0
   25.9388    9.1819   55.5999 C   0  0  0  0  0  0  0  0  0  0  0  0
   24.7616    9.6907   56.1269 O   0  0  0  0  0  0  0  0  0  0  0  0
   23.6484    9.7300   55.2717 C   0  0  0  0  0  0  0  0  0  0  0  0
   22.4685   10.2824   55.7899 C   0  0  0  0  0  0  0  0  0  0  0  0
   21.3187   10.4121   55.0530 C   0  0  0  0  0  0  0  0  0  0  0  0
   21.3522    9.9746   53.7532 C   0  0  0  0  0  0  0  0  0  0  0  0
   22.4996    9.4361   53.2562 C   0  0  0  0  0  0  0  0  0  0  0  0
   23.6848    9.2825   53.9756 C   0  0  0  0  0  0  0  0  0  0  0  0
  5  6  1  0  0  0
  6  2  1  0  0  0
  2  3  1  0  0  0
  3  1  1  0  0  0
  1 17  1  0  0  0
 17 18  1  0  0  0
 18 19  1  0  0  0
 19 20  2  0  0  0
 20 21  1  0  0  0
 21 22  2  0  0  0
 22 23  1  0  0  0
 23 24  2  0  0  0
 24 25  1  0  0  0
 25 26  1  0  0  0
 26 27  2  0  0  0
 27 28  1  0  0  0
 28 29  2  0  0  0
 29 30  1  0  0  0
 30 31  2  0  0  0
  3  4  1  0  0  0
  4 13  1  0  0  0
 13 14  1  0  0  0
 13 15  2  0  0  0
  6  9  1  0  0  0
  9 10  1  0  0  0
  9 11  2  0  0  0
  4  2  1  0  0  0
 31 18  1  0  0  0
 24 19  1  0  0  0
 31 26  1  0  0  0
  5  7  1  0  0  0
  5  8  1  0  0  0
 14 16  1  0  0  0
 10 12  1  0  0  0
M  END
> <minimizedAffinity>
4.28391

> <CNNscore>
0.6736346483

> <CNNaffinity>
6.8154497147

> <CNN_VS>
4.5911231041

> <CNNaffinity_variance>
0.5315952301

$$$$
[H]OC(=O)C([H])(N([H])[H])[C@]1([H])[C@@]([H])(C(=O)O[H])[C@]1([H])C([H])([H])C([H])([H])C1([H])c2c([H])c([H])c([H])c([H])c2Oc2c([H])c([H])c([H])c([H])c21


 31 34  0  0  0  0  0  0  0  0999 V2000
   23.1543    8.5751   52.2862 C   0  0  0  0  0  0  0  0  0  0  0  0
   21.0635    8.5082   53.8749 C   0  0  0  0  0  0  0  0  0  0  0  0
   22.5331    8.6018   53.6811 C   0  0  0  0  0  0  0  0  0  0  0  0
   21.6587    9.8181   54.0356 C   0  0  0  0  0  0  0  0  0  0  0  0
   19.8796    6.6572   52.9732 N   0  0  0  0  0  0  0  0  0  0  0  0
   20.1480    8.0705   52.7902 C   0  0  0  0  0  0  0  0  0  0  0  0
   20.1130    6.0967   52.1395 H   0  0  0  0  0  0  0  0  0  0  0  0
   20.3450    6.2437   53.8048 H   0  0  0  0  0  0  0  0  0  0  0  0
   20.5376    8.3377   51.4285 C   0  0  0  0  0  0  0  0  0  0  0  0
   20.9354    7.4123   50.4787 O   0  0  0  0  0  0  0  0  0  0  0  0
   20.5234    9.5331   51.0343 O   0  0  0  0  0  0  0  0  0  0  0  0
   21.5271    7.5978   49.7064 H   0  0  0  0  0  0  0  0  0  0  0  0
   21.8748   10.3677   55.4083 C   0  0  0  0  0  0  0  0  0  0  0  0
   22.9939   10.0839   56.1772 O   0  0  0  0  0  0  0  0  0  0  0  0
   20.9767   11.1235   55.8608 O   0  0  0  0  0  0  0  0  0  0  0  0
   23.9287   10.1699   55.8195 H   0  0  0  0  0  0  0  0  0  0  0  0
   24.5702    8.8797   52.3821 C   0  0  0  0  0  0  0  0  0  0  0  0
   25.4108    7.8061   53.0530 C   0  0  0  0  0  0  0  0  0  0  0  0
   24.4264    6.8600   53.6805 C   0  0  0  0  0  0  0  0  0  0  0  0
   23.5051    6.2299   52.8064 C   0  0  0  0  0  0  0  0  0  0  0  0
   22.5040    5.4558   53.3308 C   0  0  0  0  0  0  0  0  0  0  0  0
   22.4073    5.3012   54.6947 C   0  0  0  0  0  0  0  0  0  0  0  0
   23.3012    5.9095   55.5405 C   0  0  0  0  0  0  0  0  0  0  0  0
   24.3422    6.7101   55.0135 C   0  0  0  0  0  0  0  0  0  0  0  0
   25.2385    7.2910   55.8976 O   0  0  0  0  0  0  0  0  0  0  0  0
   26.2736    8.0583   55.3391 C   0  0  0  0  0  0  0  0  0  0  0  0
   27.2050    8.6121   56.2289 C   0  0  0  0  0  0  0  0  0  0  0  0
   28.2823    9.3540   55.8155 C   0  0  0  0  0  0  0  0  0  0  0  0
   28.4322    9.5468   54.4656 C   0  0  0  0  0  0  0  0  0  0  0  0
   27.5231    9.0095   53.6063 C   0  0  0  0  0  0  0  0  0  0  0  0
   26.4135    8.2558   53.9889 C   0  0  0  0  0  0  0  0  0  0  0  0
  5  6  1  0  0  0
  6  2  1  0  0  0
  2  3  1  0  0  0
  3  1  1  0  0  0
  1 17  1  0  0  0
 17 18  1  0  0  0
 18 19  1  0  0  0
 19 20  2  0  0  0
 20 21  1  0  0  0
 21 22  2  0  0  0
 22 23  1  0  0  0
 23 24  2  0  0  0
 24 25  1  0  0  0
 25 26  1  0  0  0
 26 27  2  0  0  0
 27 28  1  0  0  0
 28 29  2  0  0  0
 29 30  1  0  0  0
 30 31  2  0  0  0
  3  4  1  0  0  0
  4 13  1  0  0  0
 13 14  1  0  0  0
 13 15  2  0  0  0
  6  9  1  0  0  0
  9 10  1  0  0  0
  9 11  2  0  0  0
  4  2  1  0  0  0
 31 18  1  0  0  0
 24 19  1  0  0  0
 31 26  1  0  0  0
  5  7  1  0  0  0
  5  8  1  0  0  0
 14 16  1  0  0  0
 10 12  1  0  0  0
M  END
> <minimizedAffinity>
11.43736

> <CNNscore>
0.6618110538

> <CNNaffinity>
6.6125016212

> <CNN_VS>
4.3762269020

> <CNNaffinity_variance>
0.4456099570

$$$$
[H]OC(=O)C([H])(N([H])[H])[C@]1([H])[C@@]([H])(C(=O)O[H])[C@]1([H])C([H])([H])C([H])([H])C1([H])c2c([H])c([H])c([H])c([H])c2Oc2c([H])c([H])c([H])c([H])c21


 31 34  0  0  0  0  0  0  0  0999 V2000
   24.5740    9.7583   55.5990 C   0  0  0  0  0  0  0  0  0  0  0  0
   26.9890    8.8561   56.1029 C   0  0  0  0  0  0  0  0  0  0  0  0
   25.6851    8.7290   55.4031 C   0  0  0  0  0  0  0  0  0  0  0  0
   26.9675    9.2076   54.6987 C   0  0  0  0  0  0  0  0  0  0  0  0
   27.5947   11.0663   56.7268 N   0  0  0  0  0  0  0  0  0  0  0  0
   27.1849    9.7778   57.2511 C   0  0  0  0  0  0  0  0  0  0  0  0
   28.4871   11.3931   57.1273 H   0  0  0  0  0  0  0  0  0  0  0  0
   27.6517   11.1009   55.6901 H   0  0  0  0  0  0  0  0  0  0  0  0
   28.0690    9.3597   58.3099 C   0  0  0  0  0  0  0  0  0  0  0  0
   28.2420    8.0735   58.7918 O   0  0  0  0  0  0  0  0  0  0  0  0
   28.7711   10.2390   58.8743 O   0  0  0  0  0  0  0  0  0  0  0  0
   28.5420    7.8363   59.7054 H   0  0  0  0  0  0  0  0  0  0  0  0
   27.5226    8.2548   53.6903 C   0  0  0  0  0  0  0  0  0  0  0  0
   28.3199    7.1694   54.0229 O   0  0  0  0  0  0  0  0  0  0  0  0
   27.2334    8.4763   52.4863 O   0  0  0  0  0  0  0  0  0  0  0  0
   28.0656    6.5147   54.7412 H   0  0  0  0  0  0  0  0  0  0  0  0
   23.4293    9.1205   56.2229 C   0  0  0  0  0  0  0  0  0  0  0  0
   22.2991    8.7639   55.2716 C   0  0  0  0  0  0  0  0  0  0  0  0
   22.7119    7.4718   54.6251 C   0  0  0  0  0  0  0  0  0  0  0  0
   22.9361    6.3716   55.4907 C   0  0  0  0  0  0  0  0  0  0  0  0
   23.4350    5.2040   54.9768 C   0  0  0  0  0  0  0  0  0  0  0  0
   23.7105    5.1159   53.6315 C   0  0  0  0  0  0  0  0  0  0  0  0
   23.4908    6.1807   52.7934 C   0  0  0  0  0  0  0  0  0  0  0  0
   22.9735    7.3926   53.3092 C   0  0  0  0  0  0  0  0  0  0  0  0
   22.7447    8.4389   52.4287 O   0  0  0  0  0  0  0  0  0  0  0  0
   22.2074    9.6179   52.9702 C   0  0  0  0  0  0  0  0  0  0  0  0
   21.9366   10.6624   52.0748 C   0  0  0  0  0  0  0  0  0  0  0  0
   21.3812   11.8546   52.4648 C   0  0  0  0  0  0  0  0  0  0  0  0
   21.0861   12.0051   53.7960 C   0  0  0  0  0  0  0  0  0  0  0  0
   21.3542   10.9890   54.6615 C   0  0  0  0  0  0  0  0  0  0  0  0
   21.9231    9.7667   54.3039 C   0  0  0  0  0  0  0  0  0  0  0  0
  5  6  1  0  0  0
  6  2  1  0  0  0
  2  3  1  0  0  0
  3  1  1  0  0  0
  1 17  1  0  0  0
 17 18  1  0  0  0
 18 19  1  0  0  0
 19 20  2  0  0  0
 20 21  1  0  0  0
 21 22  2  0  0  0
 22 23  1  0  0  0
 23 24  2  0  0  0
 24 25  1  0  0  0
 25 26  1  0  0  0
 26 27  2  0  0  0
 27 28  1  0  0  0
 28 29  2  0  0  0
 29 30  1  0  0  0
 30 31  2  0  0  0
  3  4  1  0  0  0
  4 13  1  0  0  0
 13 14  1  0  0  0
 13 15  2  0  0  0
  6  9  1  0  0  0
  9 10  1  0  0  0
  9 11  2  0  0  0
  4  2  1  0  0  0
 31 18  1  0  0  0
 24 19  1  0  0  0
 31 26  1  0  0  0
  5  7  1  0  0  0
  5  8  1  0  0  0
 14 16  1  0  0  0
 10 12  1  0  0  0
M  END
> <minimizedAffinity>
11.52584

> <CNNscore>
0.6395590305

> <CNNaffinity>
6.3547697067

> <CNN_VS>
4.0642504692

> <CNNaffinity_variance>
0.3206205368

$$$$
[H]OC(=O)[C@]1(N([H])[H])[C@@]([H])(F)C([H])([H])[C@@]2([H])[C@]([H])(C(=O)O[H])[C@@]12[H]


 18 19  0  0  0  0  0  0  0  0999 V2000
   21.0816    6.4910   53.3688 N   0  0  0  0  0  0  0  0  0  0  0  0
   21.4285    7.9018   53.2228 C   0  0  0  0  0  0  0  0  0  0  0  0
   22.9043    8.1292   53.2916 C   0  0  0  0  0  0  0  0  0  0  0  0
   23.0609    9.4029   54.0192 C   0  0  0  0  0  0  0  0  0  0  0  0
   21.7352    9.7931   54.5969 C   0  0  0  0  0  0  0  0  0  0  0  0
   20.7839    8.6695   54.3395 C   0  0  0  0  0  0  0  0  0  0  0  0
   20.5301    7.8897   55.4346 F   0  0  0  0  0  0  0  0  0  0  0  0
   23.6542    8.1459   54.5585 C   0  0  0  0  0  0  0  0  0  0  0  0
   21.9501    5.8897   53.4376 H   0  0  0  0  0  0  0  0  0  0  0  0
   20.5119    6.1596   52.5452 H   0  0  0  0  0  0  0  0  0  0  0  0
   25.1415    8.0626   54.4151 C   0  0  0  0  0  0  0  0  0  0  0  0
   25.9550    8.7490   55.3231 O   0  0  0  0  0  0  0  0  0  0  0  0
   25.6648    7.3948   53.5040 O   0  0  0  0  0  0  0  0  0  0  0  0
   26.4112    8.2601   56.0775 H   0  0  0  0  0  0  0  0  0  0  0  0
   20.9464    8.4133   51.9181 C   0  0  0  0  0  0  0  0  0  0  0  0
   20.1321    7.6400   51.1286 O   0  0  0  0  0  0  0  0  0  0  0  0
   21.2867    9.5545   51.5413 O   0  0  0  0  0  0  0  0  0  0  0  0
   19.1738    7.4610   51.3976 H   0  0  0  0  0  0  0  0  0  0  0  0
  1  2  1  0  0  0
  2  3  1  0  0  0
  3  4  1  0  0  0
  4  5  1  0  0  0
  5  6  1  0  0  0
  6  7  1  0  0  0
  4  8  1  0  0  0
  8 11  1  0  0  0
 11 12  1  0  0  0
 11 13  2  0  0  0
  2 15  1  0  0  0
 15 16  1  0  0  0
 15 17  2  0  0  0
  6  2  1  0  0  0
  8  3  1  0  0  0
  1  9  1  0  0  0
  1 10  1  0  0  0
 12 14  1  0  0  0
 16 18  1  0  0  0
M  END
> <minimizedAffinity>
-6.76041

> <CNNscore>
0.9059818983

> <CNNaffinity>
5.7691493034

> <CNN_VS>
5.2267446518

> <CNNaffinity_variance>
0.0892482772

$$$$
[H]OC(=O)[C@]1(N([H])[H])[C@@]([H])(F)C([H])([H])[C@@]2([H])[C@]([H])(C(=O)O[H])[C@@]12[H]


 18 19  0  0  0  0  0  0  0  0999 V2000
   19.7122    7.4719   53.2765 N   0  0  0  0  0  0  0  0  0  0  0  0
   20.9811    8.1774   53.1207 C   0  0  0  0  0  0  0  0  0  0  0  0
   22.1555    7.2857   53.3658 C   0  0  0  0  0  0  0  0  0  0  0  0
   23.1429    8.1360   54.0573 C   0  0  0  0  0  0  0  0  0  0  0  0
   22.4809    9.4215   54.4481 C   0  0  0  0  0  0  0  0  0  0  0  0
   21.0288    9.2988   54.1168 C   0  0  0  0  0  0  0  0  0  0  0  0
   20.2251    9.0727   55.2007 F   0  0  0  0  0  0  0  0  0  0  0  0
   22.6082    6.9097   54.7153 C   0  0  0  0  0  0  0  0  0  0  0  0
   19.8692    6.4444   53.4773 H   0  0  0  0  0  0  0  0  0  0  0  0
   19.1294    7.5546   52.4013 H   0  0  0  0  0  0  0  0  0  0  0  0
   23.5779    5.7708   54.7635 C   0  0  0  0  0  0  0  0  0  0  0  0
   23.8074    5.1198   55.9804 O   0  0  0  0  0  0  0  0  0  0  0  0
   24.1816    5.3946   53.7418 O   0  0  0  0  0  0  0  0  0  0  0  0
   23.3803    4.2278   56.1760 H   0  0  0  0  0  0  0  0  0  0  0  0
   21.0972    8.7209   51.7469 C   0  0  0  0  0  0  0  0  0  0  0  0
   21.0000    7.8868   50.6610 O   0  0  0  0  0  0  0  0  0  0  0  0
   21.2846    9.9450   51.5837 O   0  0  0  0  0  0  0  0  0  0  0  0
   20.1127    7.4727   50.4080 H   0  0  0  0  0  0  0  0  0  0  0  0
  1  2  1  0  0  0
  2  3  1  0  0  0
  3  4  1  0  0  0
  4  5  1  0  0  0
  5  6  1  0  0  0
  6  7  1  0  0  0
  4  8  1  0  0  0
  8 11  1  0  0  0
 11 12  1  0  0  0
 11 13  2  0  0  0
  2 15  1  0  0  0
 15 16  1  0  0  0
 15 17  2  0  0  0
  6  2  1  0  0  0
  8  3  1  0  0  0
  1  9  1  0  0  0
  1 10  1  0  0  0
 12 14  1  0  0  0
 16 18  1  0  0  0
M  END
> <minimizedAffinity>
-6.62359

> <CNNscore>
0.9014496207

> <CNNaffinity>
5.7228631973

> <CNN_VS>
5.1588730812

> <CNNaffinity_variance>
0.1345302761

$$$$
[H]OC(=O)[C@]1(N([H])[H])[C@@]([H])(F)C([H])([H])[C@@]2([H])[C@]([H])(C(=O)O[H])[C@@]12[H]


 18 19  0  0  0  0  0  0  0  0999 V2000
   21.3241    8.1304   51.2050 N   0  0  0  0  0  0  0  0  0  0  0  0
   21.4433    8.7327   52.5297 C   0  0  0  0  0  0  0  0  0  0  0  0
   22.7173    8.3488   53.2107 C   0  0  0  0  0  0  0  0  0  0  0  0
   22.3576    8.1900   54.6325 C   0  0  0  0  0  0  0  0  0  0  0  0
   20.8653    8.2207   54.7575 C   0  0  0  0  0  0  0  0  0  0  0  0
   20.2986    8.2563   53.3751 C   0  0  0  0  0  0  0  0  0  0  0  0
   19.7926    7.0593   52.9472 F   0  0  0  0  0  0  0  0  0  0  0  0
   22.9163    7.0430   53.8610 C   0  0  0  0  0  0  0  0  0  0  0  0
   22.1940    7.5811   50.9560 H   0  0  0  0  0  0  0  0  0  0  0  0
   21.1771    8.8722   50.4697 H   0  0  0  0  0  0  0  0  0  0  0  0
   24.3365    6.7141   54.1994 C   0  0  0  0  0  0  0  0  0  0  0  0
   25.3693    7.3204   53.4761 O   0  0  0  0  0  0  0  0  0  0  0  0
   24.6129    5.9124   55.1109 O   0  0  0  0  0  0  0  0  0  0  0  0
   25.8859    8.0936   53.8655 H   0  0  0  0  0  0  0  0  0  0  0  0
   21.4078   10.2104   52.4234 C   0  0  0  0  0  0  0  0  0  0  0  0
   21.4945   10.9888   53.5508 O   0  0  0  0  0  0  0  0  0  0  0  0
   21.2982   10.7436   51.2991 O   0  0  0  0  0  0  0  0  0  0  0  0
   22.3645   11.0596   54.0615 H   0  0  0  0  0  0  0  0  0  0  0  0
  1  2  1  0  0  0
  2  3  1  0  0  0
  3  4  1  0  0  0
  4  5  1  0  0  0
  5  6  1  0  0  0
  6  7  1  0  0  0
  4  8  1  0  0  0
  8 11  1  0  0  0
 11 12  1  0  0  0
 11 13  2  0  0  0
  2 15  1  0  0  0
 15 16  1  0  0  0
 15 17  2  0  0  0
  6  2  1  0  0  0
  8  3  1  0  0  0
  1  9  1  0  0  0
  1 10  1  0  0  0
 12 14  1  0  0  0
 16 18  1  0  0  0
M  END
> <minimizedAffinity>
-5.80670

> <CNNscore>
0.7050986290

> <CNNaffinity>
5.3831686974

> <CNN_VS>
3.7956647873

> <CNNaffinity_variance>
0.2022457570

$$$$
[H]OC(=O)[C@]1(N([H])[H])[C@@]([H])(F)C([H])([H])[C@@]2([H])[C@]([H])(C(=O)O[H])[C@@]12[H]


 18 19  0  0  0  0  0  0  0  0999 V2000
   20.4469    8.0934   54.9953 N   0  0  0  0  0  0  0  0  0  0  0  0
   21.0611    8.0761   53.6707 C   0  0  0  0  0  0  0  0  0  0  0  0
   22.4338    7.4851   53.6937 C   0  0  0  0  0  0  0  0  0  0  0  0
   23.2096    8.2832   52.7256 C   0  0  0  0  0  0  0  0  0  0  0  0
   22.3997    9.4795   52.3298 C   0  0  0  0  0  0  0  0  0  0  0  0
   21.1679    9.4888   53.1760 C   0  0  0  0  0  0  0  0  0  0  0  0
   21.1965   10.4012   54.1951 F   0  0  0  0  0  0  0  0  0  0  0  0
   23.6177    8.2266   54.1584 C   0  0  0  0  0  0  0  0  0  0  0  0
   21.0721    7.6284   55.7118 H   0  0  0  0  0  0  0  0  0  0  0  0
   19.5210    7.5883   54.9839 H   0  0  0  0  0  0  0  0  0  0  0  0
   24.8300    7.3874   54.4149 C   0  0  0  0  0  0  0  0  0  0  0  0
   26.0893    7.8769   54.0513 O   0  0  0  0  0  0  0  0  0  0  0  0
   24.7366    6.2647   54.9446 O   0  0  0  0  0  0  0  0  0  0  0  0
   26.7125    8.2609   54.7445 H   0  0  0  0  0  0  0  0  0  0  0  0
   20.2340    7.2778   52.7353 C   0  0  0  0  0  0  0  0  0  0  0  0
   19.7755    6.0369   53.1017 O   0  0  0  0  0  0  0  0  0  0  0  0
   19.9568    7.7425   51.6095 O   0  0  0  0  0  0  0  0  0  0  0  0
   19.0519    5.9417   53.8018 H   0  0  0  0  0  0  0  0  0  0  0  0
  1  2  1  0  0  0
  2  3  1  0  0  0
  3  4  1  0  0  0
  4  5  1  0  0  0
  5  6  1  0  0  0
  6  7  1  0  0  0
  4  8  1  0  0  0
  8 11  1  0  0  0
 11 12  1  0  0  0
 11 13  2  0  0  0
  2 15  1  0  0  0
 15 16  1  0  0  0
 15 17  2  0  0  0
  6  2  1  0  0  0
  8  3  1  0  0  0
  1  9  1  0  0  0
  1 10  1  0  0  0
 12 14  1  0  0  0
 16 18  1  0  0  0
M  END
> <minimizedAffinity>
-6.30716

> <CNNscore>
0.5998165011

> <CNNaffinity>
5.4132895470

> <CNN_VS>
3.2469804287

> <CNNaffinity_variance>
0.1068854332

$$$$
[H]OC(=O)[C@]1(N([H])[H])[C@@]([H])(F)C([H])([H])[C@@]2([H])[C@]([H])(C(=O)O[H])[C@@]12[H]


 18 19  0  0  0  0  0  0  0  0999 V2000
   19.9305    6.9176   53.2183 N   0  0  0  0  0  0  0  0  0  0  0  0
   21.3794    6.9976   53.3812 C   0  0  0  0  0  0  0  0  0  0  0  0
   21.7744    7.9782   54.4379 C   0  0  0  0  0  0  0  0  0  0  0  0
   23.0011    8.6179   53.9260 C   0  0  0  0  0  0  0  0  0  0  0  0
   23.1882    8.2221   52.4936 C   0  0  0  0  0  0  0  0  0  0  0  0
   21.9817    7.4426   52.0808 C   0  0  0  0  0  0  0  0  0  0  0  0
   21.0994    8.1459   51.3070 F   0  0  0  0  0  0  0  0  0  0  0  0
   21.7872    9.4336   54.2159 C   0  0  0  0  0  0  0  0  0  0  0  0
   19.4330    7.5301   53.9238 H   0  0  0  0  0  0  0  0  0  0  0  0
   19.5951    5.9255   53.3438 H   0  0  0  0  0  0  0  0  0  0  0  0
   21.8913   10.2626   55.4575 C   0  0  0  0  0  0  0  0  0  0  0  0
   20.8504   11.1389   55.7833 O   0  0  0  0  0  0  0  0  0  0  0  0
   22.8857   10.1855   56.2025 O   0  0  0  0  0  0  0  0  0  0  0  0
   20.1768   10.8971   56.4933 H   0  0  0  0  0  0  0  0  0  0  0  0
   21.9241    5.6723   53.7593 C   0  0  0  0  0  0  0  0  0  0  0  0
   23.1663    5.5721   54.3350 O   0  0  0  0  0  0  0  0  0  0  0  0
   21.2443    4.6455   53.5501 O   0  0  0  0  0  0  0  0  0  0  0  0
   23.3219    5.8915   55.2819 H   0  0  0  0  0  0  0  0  0  0  0  0
  1  2  1  0  0  0
  2  3  1  0  0  0
  3  4  1  0  0  0
  4  5  1  0  0  0
  5  6  1  0  0  0
  6  7  1  0  0  0
  4  8  1  0  0  0
  8 11  1  0  0  0
 11 12  1  0  0  0
 11 13  2  0  0  0
  2 15  1  0  0  0
 15 16  1  0  0  0
 15 17  2  0  0  0
  6  2  1  0  0  0
  8  3  1  0  0  0
  1  9  1  0  0  0
  1 10  1  0  0  0
 12 14  1  0  0  0
 16 18  1  0  0  0
M  END
> <minimizedAffinity>
-1.87546

> <CNNscore>
0.5343304873

> <CNNaffinity>
5.1773452759

> <CNN_VS>
2.7664134502

> <CNNaffinity_variance>
0.1298016757

$$$$
[H]OC(=O)[C@]1(N([H])[H])[C@@]([H])(F)C([H])([H])[C@@]2([H])[C@]([H])(C(=O)O[H])[C@@]12[H]


 18 19  0  0  0  0  0  0  0  0999 V2000
   22.4139    9.9048   51.9250 N   0  0  0  0  0  0  0  0  0  0  0  0
   21.8002    9.4613   53.1735 C   0  0  0  0  0  0  0  0  0  0  0  0
   22.6766    8.5132   53.9267 C   0  0  0  0  0  0  0  0  0  0  0  0
   21.7526    7.5285   54.5204 C   0  0  0  0  0  0  0  0  0  0  0  0
   20.3918    7.7269   53.9268 C   0  0  0  0  0  0  0  0  0  0  0  0
   20.5164    8.7551   52.8494 C   0  0  0  0  0  0  0  0  0  0  0  0
   20.5057    8.2408   51.5817 F   0  0  0  0  0  0  0  0  0  0  0  0
   22.8136    7.0919   53.5682 C   0  0  0  0  0  0  0  0  0  0  0  0
   23.3917    9.5129   51.8203 H   0  0  0  0  0  0  0  0  0  0  0  0
   22.4719   10.9574   51.8910 H   0  0  0  0  0  0  0  0  0  0  0  0
   23.9612    6.3831   54.2166 C   0  0  0  0  0  0  0  0  0  0  0  0
   25.2164    7.0004   54.2469 O   0  0  0  0  0  0  0  0  0  0  0  0
   23.8176    5.2570   54.7276 O   0  0  0  0  0  0  0  0  0  0  0  0
   25.5505    7.4473   55.0866 H   0  0  0  0  0  0  0  0  0  0  0  0
   21.5258   10.6253   54.0487 C   0  0  0  0  0  0  0  0  0  0  0  0
   20.8476   11.7147   53.5608 O   0  0  0  0  0  0  0  0  0  0  0  0
   21.9165   10.6085   55.2350 O   0  0  0  0  0  0  0  0  0  0  0  0
   19.8597   11.6549   53.3528 H   0  0  0  0  0  0  0  0  0  0  0  0
  1  2  1  0  0  0
  2  3  1  0  0  0
  3  4  1  0  0  0
  4  5  1  0  0  0
  5  6  1  0  0  0
  6  7  1  0  0  0
  4  8  1  0  0  0
  8 11  1  0  0  0
 11 12  1  0  0  0
 11 13  2  0  0  0
  2 15  1  0  0  0
 15 16  1  0  0  0
 15 17  2  0  0  0
  6  2  1  0  0  0
  8  3  1  0  0  0
  1  9  1  0  0  0
  1 10  1  0  0  0
 12 14  1  0  0  0
 16 18  1  0  0  0
M  END
> <minimizedAffinity>
-1.97384

> <CNNscore>
0.5033818483

> <CNNaffinity>
5.1183934212

> <CNN_VS>
2.5765063763

> <CNNaffinity_variance>
0.2254119813

$$$$
[H]OC(=O)[C@]1(N([H])[H])[C@@]([H])(F)C([H])([H])[C@@]2([H])[C@]([H])(C(=O)O[H])[C@@]12[H]


 18 19  0  0  0  0  0  0  0  0999 V2000
   21.8441    7.3318   55.8349 N   0  0  0  0  0  0  0  0  0  0  0  0
   22.8025    7.9312   54.9106 C   0  0  0  0  0  0  0  0  0  0  0  0
   22.1388    8.4834   53.6904 C   0  0  0  0  0  0  0  0  0  0  0  0
   23.0726    8.1970   52.5850 C   0  0  0  0  0  0  0  0  0  0  0  0
   24.1392    7.2713   53.0839 C   0  0  0  0  0  0  0  0  0  0  0  0
   23.7732    6.8722   54.4768 C   0  0  0  0  0  0  0  0  0  0  0  0
   23.2539    5.6105   54.5788 F   0  0  0  0  0  0  0  0  0  0  0  0
   21.6900    7.6392   52.5708 C   0  0  0  0  0  0  0  0  0  0  0  0
   20.8515    7.4557   55.4887 H   0  0  0  0  0  0  0  0  0  0  0  0
   21.9209    7.7728   56.7900 H   0  0  0  0  0  0  0  0  0  0  0  0
   20.7708    8.3113   51.5998 C   0  0  0  0  0  0  0  0  0  0  0  0
   20.9180    9.6809   51.3554 O   0  0  0  0  0  0  0  0  0  0  0  0
   19.8802    7.6736   51.0081 O   0  0  0  0  0  0  0  0  0  0  0  0
   21.3760   10.0086   50.5193 H   0  0  0  0  0  0  0  0  0  0  0  0
   23.5304    9.0370   55.5765 C   0  0  0  0  0  0  0  0  0  0  0  0
   24.9030    9.0540   55.5905 O   0  0  0  0  0  0  0  0  0  0  0  0
   22.8854    9.9548   56.1259 O   0  0  0  0  0  0  0  0  0  0  0  0
   25.4239    9.2387   54.7436 H   0  0  0  0  0  0  0  0  0  0  0  0
  1  2  1  0  0  0
  2  3  1  0  0  0
  3  4  1  0  0  0
  4  5  1  0  0  0
  5  6  1  0  0  0
  6  7  1  0  0  0
  4  8  1  0  0  0
  8 11  1  0  0  0
 11 12  1  0  0  0
 11 13  2  0  0  0
  2 15  1  0  0  0
 15 16  1  0  0  0
 15 17  2  0  0  0
  6  2  1  0  0  0
  8  3  1  0  0  0
  1  9  1  0  0  0
  1 10  1  0  0  0
 12 14  1  0  0  0
 16 18  1  0  0  0
M  END
> <minimizedAffinity>
-5.15950

> <CNNscore>
0.4940909445

> <CNNaffinity>
4.9955635071

> <CNN_VS>
2.4682626724

> <CNNaffinity_variance>
0.1969188750

$$$$
[H]OC(=O)[C@]1(N([H])[H])[C@@]([H])(F)C([H])([H])[C@@]2([H])[C@]([H])(C(=O)O[H])[C@@]12[H]


 18 19  0  0  0  0  0  0  0  0999 V2000
   23.7223    8.9660   55.2582 N   0  0  0  0  0  0  0  0  0  0  0  0
   23.3076    7.8489   54.4143 C   0  0  0  0  0  0  0  0  0  0  0  0
   22.7154    8.3088   53.1213 C   0  0  0  0  0  0  0  0  0  0  0  0
   21.6180    7.3623   52.8457 C   0  0  0  0  0  0  0  0  0  0  0  0
   21.3912    6.5208   54.0639 C   0  0  0  0  0  0  0  0  0  0  0  0
   22.2674    7.0559   55.1499 C   0  0  0  0  0  0  0  0  0  0  0  0
   21.6048    7.8008   56.0869 F   0  0  0  0  0  0  0  0  0  0  0  0
   21.3387    8.8179   53.0067 C   0  0  0  0  0  0  0  0  0  0  0  0
   23.5764    9.8913   54.7650 H   0  0  0  0  0  0  0  0  0  0  0  0
   24.7423    8.8823   55.5135 H   0  0  0  0  0  0  0  0  0  0  0  0
   21.0299    9.5255   51.7247 C   0  0  0  0  0  0  0  0  0  0  0  0
   20.2464    8.8819   50.7606 O   0  0  0  0  0  0  0  0  0  0  0  0
   21.4574   10.6735   51.5028 O   0  0  0  0  0  0  0  0  0  0  0  0
   19.2724    9.1165   50.6481 H   0  0  0  0  0  0  0  0  0  0  0  0
   24.4710    6.9848   54.1039 C   0  0  0  0  0  0  0  0  0  0  0  0
   24.3451    5.6181   54.1275 O   0  0  0  0  0  0  0  0  0  0  0  0
   25.5684    7.5096   53.8202 O   0  0  0  0  0  0  0  0  0  0  0  0
   23.8144    5.1377   53.4131 H   0  0  0  0  0  0  0  0  0  0  0  0
  1  2  1  0  0  0
  2  3  1  0  0  0
  3  4  1  0  0  0
  4  5  1  0  0  0
  5  6  1  0  0  0
  6  7  1  0  0  0
  4  8  1  0  0  0
  8 11  1  0  0  0
 11 12  1  0  0  0
 11 13  2  0  0  0
  2 15  1  0  0  0
 15 16  1  0  0  0
 15 17  2  0  0  0
  6  2  1  0  0  0
  8  3  1  0  0  0
  1  9  1  0  0  0
  1 10  1  0  0  0
 12 14  1  0  0  0
 16 18  1  0  0  0
M  END
> <minimizedAffinity>
-4.58313

> <CNNscore>
0.4772427082

> <CNNaffinity>
4.9620389938

> <CNN_VS>
2.3680968285

> <CNNaffinity_variance>
0.2760826945

$$$$
[H]OC(=O)[C@]1(N([H])[H])[C@@]([H])(F)C([H])([H])[C@@]2([H])[C@]([H])(C(=O)O[H])[C@@]12[H]


 18 19  0  0  0  0  0  0  0  0999 V2000
   24.4823    8.0727   54.1535 N   0  0  0  0  0  0  0  0  0  0  0  0
   23.1009    7.7510   54.5003 C   0  0  0  0  0  0  0  0  0  0  0  0
   22.1856    7.8548   53.3232 C   0  0  0  0  0  0  0  0  0  0  0  0
   20.9293    8.4077   53.8638 C   0  0  0  0  0  0  0  0  0  0  0  0
   21.1710    8.8661   55.2692 C   0  0  0  0  0  0  0  0  0  0  0  0
   22.6328    8.7219   55.5444 C   0  0  0  0  0  0  0  0  0  0  0  0
   23.3265    9.9007   55.5139 F   0  0  0  0  0  0  0  0  0  0  0  0
   21.6855    9.1402   52.8080 C   0  0  0  0  0  0  0  0  0  0  0  0
   24.5811    8.2623   53.1168 H   0  0  0  0  0  0  0  0  0  0  0  0
   25.1261    7.2772   54.4091 H   0  0  0  0  0  0  0  0  0  0  0  0
   21.0561    9.0770   51.4517 C   0  0  0  0  0  0  0  0  0  0  0  0
   20.8768    7.8320   50.8390 O   0  0  0  0  0  0  0  0  0  0  0  0
   20.6907   10.1106   50.8618 O   0  0  0  0  0  0  0  0  0  0  0  0
   19.9716    7.3883   50.8292 H   0  0  0  0  0  0  0  0  0  0  0  0
   23.0158    6.3682   55.0264 C   0  0  0  0  0  0  0  0  0  0  0  0
   22.1932    6.0795   56.0868 O   0  0  0  0  0  0  0  0  0  0  0  0
   23.6988    5.4659   54.4977 O   0  0  0  0  0  0  0  0  0  0  0  0
   21.1881    6.0846   55.9747 H   0  0  0  0  0  0  0  0  0  0  0  0
  1  2  1  0  0  0
  2  3  1  0  0  0
  3  4  1  0  0  0
  4  5  1  0  0  0
  5  6  1  0  0  0
  6  7  1  0  0  0
  4  8  1  0  0  0
  8 11  1  0  0  0
 11 12  1  0  0  0
 11 13  2  0  0  0
  2 15  1  0  0  0
 15 16  1  0  0  0
 15 17  2  0  0  0
  6  2  1  0  0  0
  8  3  1  0  0  0
  1  9  1  0  0  0
  1 10  1  0  0  0
 12 14  1  0  0  0
 16 18  1  0  0  0
M  END
> <minimizedAffinity>
-5.97050

> <CNNscore>
0.4760351181

> <CNNaffinity>
5.1604981422

> <CNN_VS>
2.4565782547

> <CNNaffinity_variance>
0.2175739557

$$$$
[H]OC(=O)[C@@]1(F)[C@]2([H])C([H])([H])[C@@]([H])(OC([H])([H])c3c([H])c([H])c(Cl)c(Cl)c3[H])[C@](C(=O)O[H])(N([H])[H])[C@]12[H]


 28 30  0  0  0  0  0  0  0  0999 V2000
   20.0739    6.9564   52.9910 N   0  0  0  0  0  0  0  0  0  0  0  0
   21.1583    7.9040   53.1671 C   0  0  0  0  0  0  0  0  0  0  0  0
   22.4474    7.1142   53.1236 C   0  0  0  0  0  0  0  0  0  0  0  0
   22.8941    6.9134   54.5322 C   0  0  0  0  0  0  0  0  0  0  0  0
   21.7778    7.4842   55.3809 C   0  0  0  0  0  0  0  0  0  0  0  0
   21.0812    8.5168   54.5454 C   0  0  0  0  0  0  0  0  0  0  0  0
   22.5347    5.7466   53.6352 C   0  0  0  0  0  0  0  0  0  0  0  0
   21.3966    5.0726   54.0393 F   0  0  0  0  0  0  0  0  0  0  0  0
   20.2359    6.3977   52.1221 H   0  0  0  0  0  0  0  0  0  0  0  0
   19.1565    7.4592   52.8199 H   0  0  0  0  0  0  0  0  0  0  0  0
   23.6811    4.9213   53.2322 C   0  0  0  0  0  0  0  0  0  0  0  0
   24.5235    5.2947   52.1936 O   0  0  0  0  0  0  0  0  0  0  0  0
   23.9359    3.8406   53.8223 O   0  0  0  0  0  0  0  0  0  0  0  0
   24.7090    4.7039   51.3915 H   0  0  0  0  0  0  0  0  0  0  0  0
   21.1502    8.8901   52.0934 C   0  0  0  0  0  0  0  0  0  0  0  0
   21.5087   10.1970   52.3411 O   0  0  0  0  0  0  0  0  0  0  0  0
   20.8149    8.5456   50.9379 O   0  0  0  0  0  0  0  0  0  0  0  0
   21.3711   10.9314   51.6467 H   0  0  0  0  0  0  0  0  0  0  0  0
   21.5263    9.7730   54.6478 O   0  0  0  0  0  0  0  0  0  0  0  0
   22.4457   10.1418   55.5523 C   0  0  0  0  0  0  0  0  0  0  0  0
   23.7798    9.5952   55.1772 C   0  0  0  0  0  0  0  0  0  0  0  0
   24.0408    9.0373   53.9490 C   0  0  0  0  0  0  0  0  0  0  0  0
   25.2841    8.5458   53.6453 C   0  0  0  0  0  0  0  0  0  0  0  0
   26.3037    8.6008   54.5692 C   0  0  0  0  0  0  0  0  0  0  0  0
   27.9019    7.9613   54.1591 Cl  0  0  0  0  0  0  0  0  0  0  0  0
   26.0597    9.1552   55.8011 C   0  0  0  0  0  0  0  0  0  0  0  0
   27.3826    9.2046   56.9437 Cl  0  0  0  0  0  0  0  0  0  0  0  0
   24.8075    9.6448   56.0933 C   0  0  0  0  0  0  0  0  0  0  0  0
  1  2  1  0  0  0
  2  3  1  0  0  0
  3  4  1  0  0  0
  4  5  1  0  0  0
  5  6  1  0  0  0
  6 19  1  0  0  0
 19 20  1  0  0  0
 20 21  1  0  0  0
 21 22  2  0  0  0
 22 23  1  0  0  0
 23 24  2  0  0  0
 24 25  1  0  0  0
 24 26  1  0  0  0
 26 27  1  0  0  0
 26 28  2  0  0  0
  4  7  1  0  0  0
  7  8  1  0  0  0
  7 11  1  0  0  0
 11 12  1  0  0  0
 11 13  2  0  0  0
  2 15  1  0  0  0
 15 16  1  0  0  0
 15 17  2  0  0  0
  6  2  1  0  0  0
 28 21  1  0  0  0
  7  3  1  0  0  0
  1  9  1  0  0  0
  1 10  1  0  0  0
 12 14  1  0  0  0
 16 18  1  0  0  0
M  END
> <minimizedAffinity>
4.79721

> <CNNscore>
0.7313693166

> <CNNaffinity>
6.4742431641

> <CNN_VS>
4.7350625992

> <CNNaffinity_variance>
0.3577077091

$$$$
[H]OC(=O)[C@@]1(F)[C@]2([H])C([H])([H])[C@@]([H])(OC([H])([H])c3c([H])c([H])c(Cl)c(Cl)c3[H])[C@](C(=O)O[H])(N([H])[H])[C@]12[H]


 28 30  0  0  0  0  0  0  0  0999 V2000
   20.1045    7.6136   53.7311 N   0  0  0  0  0  0  0  0  0  0  0  0
   21.5069    7.8161   54.0426 C   0  0  0  0  0  0  0  0  0  0  0  0
   21.8801    9.1894   53.5305 C   0  0  0  0  0  0  0  0  0  0  0  0
   22.5828    9.0030   52.2283 C   0  0  0  0  0  0  0  0  0  0  0  0
   22.4894    7.5190   51.9431 C   0  0  0  0  0  0  0  0  0  0  0  0
   22.3489    6.8300   53.2679 C   0  0  0  0  0  0  0  0  0  0  0  0
   21.2729    9.7579   52.3272 C   0  0  0  0  0  0  0  0  0  0  0  0
   20.2200    9.1165   51.7001 F   0  0  0  0  0  0  0  0  0  0  0  0
   19.5436    8.4092   54.1128 H   0  0  0  0  0  0  0  0  0  0  0  0
   19.7270    6.7563   54.2274 H   0  0  0  0  0  0  0  0  0  0  0  0
   21.3927   11.2041   52.1003 C   0  0  0  0  0  0  0  0  0  0  0  0
   21.4092   11.7462   50.8221 O   0  0  0  0  0  0  0  0  0  0  0  0
   21.4848   12.0025   53.0674 O   0  0  0  0  0  0  0  0  0  0  0  0
   22.1576   12.3385   50.4816 H   0  0  0  0  0  0  0  0  0  0  0  0
   21.7212    7.7544   55.4833 C   0  0  0  0  0  0  0  0  0  0  0  0
   21.8991    6.5421   56.1129 O   0  0  0  0  0  0  0  0  0  0  0  0
   21.7435    8.8118   56.1524 O   0  0  0  0  0  0  0  0  0  0  0  0
   21.9035    6.4617   57.1298 H   0  0  0  0  0  0  0  0  0  0  0  0
   23.4789    6.4374   53.8642 O   0  0  0  0  0  0  0  0  0  0  0  0
   24.6906    6.6619   53.3342 C   0  0  0  0  0  0  0  0  0  0  0  0
   25.4797    7.5585   54.2244 C   0  0  0  0  0  0  0  0  0  0  0  0
   24.9020    8.3681   55.1724 C   0  0  0  0  0  0  0  0  0  0  0  0
   25.6665    9.1785   55.9714 C   0  0  0  0  0  0  0  0  0  0  0  0
   27.0371    9.1991   55.8405 C   0  0  0  0  0  0  0  0  0  0  0  0
   28.0074   10.2517   56.8807 Cl  0  0  0  0  0  0  0  0  0  0  0  0
   27.6304    8.3963   54.8982 C   0  0  0  0  0  0  0  0  0  0  0  0
   29.3732    8.4538   54.7660 Cl  0  0  0  0  0  0  0  0  0  0  0  0
   26.8516    7.5876   54.1027 C   0  0  0  0  0  0  0  0  0  0  0  0
  1  2  1  0  0  0
  2  3  1  0  0  0
  3  4  1  0  0  0
  4  5  1  0  0  0
  5  6  1  0  0  0
  6 19  1  0  0  0
 19 20  1  0  0  0
 20 21  1  0  0  0
 21 22  2  0  0  0
 22 23  1  0  0  0
 23 24  2  0  0  0
 24 25  1  0  0  0
 24 26  1  0  0  0
 26 27  1  0  0  0
 26 28  2  0  0  0
  4  7  1  0  0  0
  7  8  1  0  0  0
  7 11  1  0  0  0
 11 12  1  0  0  0
 11 13  2  0  0  0
  2 15  1  0  0  0
 15 16  1  0  0  0
 15 17  2  0  0  0
  6  2  1  0  0  0
 28 21  1  0  0  0
  7  3  1  0  0  0
  1  9  1  0  0  0
  1 10  1  0  0  0
 12 14  1  0  0  0
 16 18  1  0  0  0
M  END
> <minimizedAffinity>
2.46675

> <CNNscore>
0.7125099897

> <CNNaffinity>
6.1428675652

> <CNN_VS>
4.3768544197

> <CNNaffinity_variance>
0.2245154828

$$$$
[H]OC(=O)[C@@]1(F)[C@]2([H])C([H])([H])[C@@]([H])(OC([H])([H])c3c([H])c([H])c(Cl)c(Cl)c3[H])[C@](C(=O)O[H])(N([H])[H])[C@]12[H]


 28 30  0  0  0  0  0  0  0  0999 V2000
   19.8072    8.9916   52.4515 N   0  0  0  0  0  0  0  0  0  0  0  0
   21.1350    8.9060   53.0299 C   0  0  0  0  0  0  0  0  0  0  0  0
   21.4224    7.4396   53.2630 C   0  0  0  0  0  0  0  0  0  0  0  0
   21.1830    7.1635   54.7089 C   0  0  0  0  0  0  0  0  0  0  0  0
   20.6313    8.4580   55.2675 C   0  0  0  0  0  0  0  0  0  0  0  0
   21.1419    9.5623   54.3903 C   0  0  0  0  0  0  0  0  0  0  0  0
   20.3676    6.4920   53.6229 C   0  0  0  0  0  0  0  0  0  0  0  0
   19.0400    6.8798   53.6129 F   0  0  0  0  0  0  0  0  0  0  0  0
   19.7540    8.3778   51.6067 H   0  0  0  0  0  0  0  0  0  0  0  0
   19.6161    9.9683   52.0865 H   0  0  0  0  0  0  0  0  0  0  0  0
   20.6358    5.0560   53.4692 C   0  0  0  0  0  0  0  0  0  0  0  0
   19.6101    4.1281   53.3484 O   0  0  0  0  0  0  0  0  0  0  0  0
   21.8150    4.6202   53.4424 O   0  0  0  0  0  0  0  0  0  0  0  0
   19.5095    3.3305   53.9654 H   0  0  0  0  0  0  0  0  0  0  0  0
   22.1244    9.4607   52.1142 C   0  0  0  0  0  0  0  0  0  0  0  0
   23.3307    8.8248   51.9185 O   0  0  0  0  0  0  0  0  0  0  0  0
   21.8749   10.5231   51.5013 O   0  0  0  0  0  0  0  0  0  0  0  0
   24.0913    9.2655   51.4010 H   0  0  0  0  0  0  0  0  0  0  0  0
   22.2943   10.1341   54.7530 O   0  0  0  0  0  0  0  0  0  0  0  0
   22.9843    9.7446   55.8355 C   0  0  0  0  0  0  0  0  0  0  0  0
   24.3212    9.2270   55.4306 C   0  0  0  0  0  0  0  0  0  0  0  0
   24.5105    8.4228   54.3327 C   0  0  0  0  0  0  0  0  0  0  0  0
   25.7593    7.9683   53.9958 C   0  0  0  0  0  0  0  0  0  0  0  0
   26.8569    8.3095   54.7542 C   0  0  0  0  0  0  0  0  0  0  0  0
   28.4609    7.7133   54.3037 Cl  0  0  0  0  0  0  0  0  0  0  0  0
   26.6851    9.1124   55.8544 C   0  0  0  0  0  0  0  0  0  0  0  0
   28.1057    9.5210   56.7888 Cl  0  0  0  0  0  0  0  0  0  0  0  0
   25.4265    9.5618   56.1816 C   0  0  0  0  0  0  0  0  0  0  0  0
  1  2  1  0  0  0
  2  3  1  0  0  0
  3  4  1  0  0  0
  4  5  1  0  0  0
  5  6  1  0  0  0
  6 19  1  0  0  0
 19 20  1  0  0  0
 20 21  1  0  0  0
 21 22  2  0  0  0
 22 23  1  0  0  0
 23 24  2  0  0  0
 24 25  1  0  0  0
 24 26  1  0  0  0
 26 27  1  0  0  0
 26 28  2  0  0  0
  4  7  1  0  0  0
  7  8  1  0  0  0
  7 11  1  0  0  0
 11 12  1  0  0  0
 11 13  2  0  0  0
  2 15  1  0  0  0
 15 16  1  0  0  0
 15 17  2  0  0  0
  6  2  1  0  0  0
 28 21  1  0  0  0
  7  3  1  0  0  0
  1  9  1  0  0  0
  1 10  1  0  0  0
 12 14  1  0  0  0
 16 18  1  0  0  0
M  END
> <minimizedAffinity>
10.47059

> <CNNscore>
0.6754550934

> <CNNaffinity>
6.0870604515

> <CNN_VS>
4.1115360260

> <CNNaffinity_variance>
0.4379524291

$$$$
[H]OC(=O)[C@@]1(F)[C@]2([H])C([H])([H])[C@@]([H])(OC([H])([H])c3c([H])c([H])c(Cl)c(Cl)c3[H])[C@](C(=O)O[H])(N([H])[H])[C@]12[H]


 28 30  0  0  0  0  0  0  0  0999 V2000
   20.1535    8.1387   54.1411 N   0  0  0  0  0  0  0  0  0  0  0  0
   21.5597    8.3857   54.3990 C   0  0  0  0  0  0  0  0  0  0  0  0
   21.9414    9.6249   53.6206 C   0  0  0  0  0  0  0  0  0  0  0  0
   22.6337    9.1747   52.3787 C   0  0  0  0  0  0  0  0  0  0  0  0
   22.5256    7.6647   52.3969 C   0  0  0  0  0  0  0  0  0  0  0  0
   22.3879    7.2562   53.8335 C   0  0  0  0  0  0  0  0  0  0  0  0
   21.3312    9.9469   52.3306 C   0  0  0  0  0  0  0  0  0  0  0  0
   20.2687    9.2034   51.8497 F   0  0  0  0  0  0  0  0  0  0  0  0
   19.6021    9.0001   54.3583 H   0  0  0  0  0  0  0  0  0  0  0  0
   19.7719    7.4019   54.8008 H   0  0  0  0  0  0  0  0  0  0  0  0
   21.4619   11.3173   51.8181 C   0  0  0  0  0  0  0  0  0  0  0  0
   21.1961   11.6319   50.4922 O   0  0  0  0  0  0  0  0  0  0  0  0
   21.8225   12.2558   52.5733 O   0  0  0  0  0  0  0  0  0  0  0  0
   21.8680   12.0880   49.8860 H   0  0  0  0  0  0  0  0  0  0  0  0
   21.7829    8.6116   55.8219 C   0  0  0  0  0  0  0  0  0  0  0  0
   21.5223    7.6161   56.7377 O   0  0  0  0  0  0  0  0  0  0  0  0
   22.2149    9.7191   56.2133 O   0  0  0  0  0  0  0  0  0  0  0  0
   21.5299    7.7959   57.7417 H   0  0  0  0  0  0  0  0  0  0  0  0
   23.5184    6.9799   54.4910 O   0  0  0  0  0  0  0  0  0  0  0  0
   24.6186    6.5222   53.8748 C   0  0  0  0  0  0  0  0  0  0  0  0
   25.7480    7.4733   54.0719 C   0  0  0  0  0  0  0  0  0  0  0  0
   26.4956    7.9719   53.0324 C   0  0  0  0  0  0  0  0  0  0  0  0
   27.5274    8.8459   53.2589 C   0  0  0  0  0  0  0  0  0  0  0  0
   27.8386    9.2452   54.5395 C   0  0  0  0  0  0  0  0  0  0  0  0
   29.1738   10.3740   54.8121 Cl  0  0  0  0  0  0  0  0  0  0  0  0
   27.1015    8.7564   55.5893 C   0  0  0  0  0  0  0  0  0  0  0  0
   27.5309    9.2897   57.1985 Cl  0  0  0  0  0  0  0  0  0  0  0  0
   26.0686    7.8799   55.3484 C   0  0  0  0  0  0  0  0  0  0  0  0
  1  2  1  0  0  0
  2  3  1  0  0  0
  3  4  1  0  0  0
  4  5  1  0  0  0
  5  6  1  0  0  0
  6 19  1  0  0  0
 19 20  1  0  0  0
 20 21  1  0  0  0
 21 22  2  0  0  0
 22 23  1  0  0  0
 23 24  2  0  0  0
 24 25  1  0  0  0
 24 26  1  0  0  0
 26 27  1  0  0  0
 26 28  2  0  0  0
  4  7  1  0  0  0
  7  8  1  0  0  0
  7 11  1  0  0  0
 11 12  1  0  0  0
 11 13  2  0  0  0
  2 15  1  0  0  0
 15 16  1  0  0  0
 15 17  2  0  0  0
  6  2  1  0  0  0
 28 21  1  0  0  0
  7  3  1  0  0  0
  1  9  1  0  0  0
  1 10  1  0  0  0
 12 14  1  0  0  0
 16 18  1  0  0  0
M  END
> <minimizedAffinity>
4.81425

> <CNNscore>
0.6606854796

> <CNNaffinity>
6.1995058060

> <CNN_VS>
4.0959234238

> <CNNaffinity_variance>
0.2458034456

$$$$
[H]OC(=O)[C@@]1(F)[C@]2([H])C([H])([H])[C@@]([H])(OC([H])([H])c3c([H])c([H])c(Cl)c(Cl)c3[H])[C@](C(=O)O[H])(N([H])[H])[C@]12[H]


 28 30  0  0  0  0  0  0  0  0999 V2000
   19.8817    8.2103   54.2127 N   0  0  0  0  0  0  0  0  0  0  0  0
   21.3298    8.1668   54.2902 C   0  0  0  0  0  0  0  0  0  0  0  0
   21.8497    9.3674   53.5315 C   0  0  0  0  0  0  0  0  0  0  0  0
   22.2818    8.8907   52.1860 C   0  0  0  0  0  0  0  0  0  0  0  0
   21.8811    7.4314   52.1416 C   0  0  0  0  0  0  0  0  0  0  0  0
   21.8432    6.9478   53.5609 C   0  0  0  0  0  0  0  0  0  0  0  0
   21.1612    9.8964   52.3542 C   0  0  0  0  0  0  0  0  0  0  0  0
   19.9221    9.4058   51.9842 F   0  0  0  0  0  0  0  0  0  0  0  0
   19.5419    9.1412   54.5462 H   0  0  0  0  0  0  0  0  0  0  0  0
   19.4463    7.5106   54.8795 H   0  0  0  0  0  0  0  0  0  0  0  0
   21.4957   11.2524   51.8993 C   0  0  0  0  0  0  0  0  0  0  0  0
   21.3833   11.6267   50.5670 O   0  0  0  0  0  0  0  0  0  0  0  0
   21.8980   12.1235   52.7119 O   0  0  0  0  0  0  0  0  0  0  0  0
   22.1536   12.0125   50.0335 H   0  0  0  0  0  0  0  0  0  0  0  0
   21.7662    8.2372   55.6794 C   0  0  0  0  0  0  0  0  0  0  0  0
   21.6192    7.1518   56.5148 O   0  0  0  0  0  0  0  0  0  0  0  0
   22.2785    9.2927   56.1154 O   0  0  0  0  0  0  0  0  0  0  0  0
   21.7795    7.2231   57.5196 H   0  0  0  0  0  0  0  0  0  0  0  0
   22.9690    6.4136   54.0444 O   0  0  0  0  0  0  0  0  0  0  0  0
   24.0736    6.2604   53.2988 C   0  0  0  0  0  0  0  0  0  0  0  0
   25.1561    7.1530   53.7995 C   0  0  0  0  0  0  0  0  0  0  0  0
   25.3779    7.3823   55.1360 C   0  0  0  0  0  0  0  0  0  0  0  0
   26.3863    8.2120   55.5535 C   0  0  0  0  0  0  0  0  0  0  0  0
   27.2032    8.8369   54.6378 C   0  0  0  0  0  0  0  0  0  0  0  0
   28.4997    9.9043   55.1956 Cl  0  0  0  0  0  0  0  0  0  0  0  0
   26.9952    8.6185   53.2986 C   0  0  0  0  0  0  0  0  0  0  0  0
   28.0556    9.4320   52.1708 Cl  0  0  0  0  0  0  0  0  0  0  0  0
   25.9797    7.7836   52.8929 C   0  0  0  0  0  0  0  0  0  0  0  0
  1  2  1  0  0  0
  2  3  1  0  0  0
  3  4  1  0  0  0
  4  5  1  0  0  0
  5  6  1  0  0  0
  6 19  1  0  0  0
 19 20  1  0  0  0
 20 21  1  0  0  0
 21 22  2  0  0  0
 22 23  1  0  0  0
 23 24  2  0  0  0
 24 25  1  0  0  0
 24 26  1  0  0  0
 26 27  1  0  0  0
 26 28  2  0  0  0
  4  7  1  0  0  0
  7  8  1  0  0  0
  7 11  1  0  0  0
 11 12  1  0  0  0
 11 13  2  0  0  0
  2 15  1  0  0  0
 15 16  1  0  0  0
 15 17  2  0  0  0
  6  2  1  0  0  0
 28 21  1  0  0  0
  7  3  1  0  0  0
  1  9  1  0  0  0
  1 10  1  0  0  0
 12 14  1  0  0  0
 16 18  1  0  0  0
M  END
> <minimizedAffinity>
7.50029

> <CNNscore>
0.6602271199

> <CNNaffinity>
6.1744308472

> <CNN_VS>
4.0765266418

> <CNNaffinity_variance>
0.2645034790

$$$$
[H]OC(=O)[C@@]1(F)[C@]2([H])C([H])([H])[C@@]([H])(OC([H])([H])c3c([H])c([H])c(Cl)c(Cl)c3[H])[C@](C(=O)O[H])(N([H])[H])[C@]12[H]


 28 30  0  0  0  0  0  0  0  0999 V2000
   20.9194    6.5741   53.8125 N   0  0  0  0  0  0  0  0  0  0  0  0
   22.2622    6.9299   54.2311 C   0  0  0  0  0  0  0  0  0  0  0  0
   22.2636    8.4192   54.4943 C   0  0  0  0  0  0  0  0  0  0  0  0
   22.8640    9.0816   53.3005 C   0  0  0  0  0  0  0  0  0  0  0  0
   23.0836    7.9640   52.3031 C   0  0  0  0  0  0  0  0  0  0  0  0
   23.2291    6.6980   53.0941 C   0  0  0  0  0  0  0  0  0  0  0  0
   21.4322    9.3423   53.7219 C   0  0  0  0  0  0  0  0  0  0  0  0
   20.4982    8.8627   52.8216 F   0  0  0  0  0  0  0  0  0  0  0  0
   20.2311    6.9109   54.5239 H   0  0  0  0  0  0  0  0  0  0  0  0
   20.7952    5.5215   53.7957 H   0  0  0  0  0  0  0  0  0  0  0  0
   21.1983   10.6892   54.2593 C   0  0  0  0  0  0  0  0  0  0  0  0
   20.9258   10.9043   55.6036 O   0  0  0  0  0  0  0  0  0  0  0  0
   21.2384   11.6978   53.5096 O   0  0  0  0  0  0  0  0  0  0  0  0
   20.0986   11.3903   55.9299 H   0  0  0  0  0  0  0  0  0  0  0  0
   22.6200    6.2155   55.4505 C   0  0  0  0  0  0  0  0  0  0  0  0
   21.8785    6.3786   56.6000 O   0  0  0  0  0  0  0  0  0  0  0  0
   23.6087    5.4481   55.4519 O   0  0  0  0  0  0  0  0  0  0  0  0
   22.1919    6.0079   57.4972 H   0  0  0  0  0  0  0  0  0  0  0  0
   24.4699    6.3502   53.4492 O   0  0  0  0  0  0  0  0  0  0  0  0
   25.5601    6.9324   52.9276 C   0  0  0  0  0  0  0  0  0  0  0  0
   26.2596    7.7343   53.9701 C   0  0  0  0  0  0  0  0  0  0  0  0
   27.6280    7.8351   54.0428 C   0  0  0  0  0  0  0  0  0  0  0  0
   28.2311    8.5848   55.0195 C   0  0  0  0  0  0  0  0  0  0  0  0
   27.4747    9.2564   55.9539 C   0  0  0  0  0  0  0  0  0  0  0  0
   28.2709   10.2191   57.2072 Cl  0  0  0  0  0  0  0  0  0  0  0  0
   26.1062    9.1663   55.8954 C   0  0  0  0  0  0  0  0  0  0  0  0
   25.1847   10.0351   57.1013 Cl  0  0  0  0  0  0  0  0  0  0  0  0
   25.5135    8.4106   54.9101 C   0  0  0  0  0  0  0  0  0  0  0  0
  1  2  1  0  0  0
  2  3  1  0  0  0
  3  4  1  0  0  0
  4  5  1  0  0  0
  5  6  1  0  0  0
  6 19  1  0  0  0
 19 20  1  0  0  0
 20 21  1  0  0  0
 21 22  2  0  0  0
 22 23  1  0  0  0
 23 24  2  0  0  0
 24 25  1  0  0  0
 24 26  1  0  0  0
 26 27  1  0  0  0
 26 28  2  0  0  0
  4  7  1  0  0  0
  7  8  1  0  0  0
  7 11  1  0  0  0
 11 12  1  0  0  0
 11 13  2  0  0  0
  2 15  1  0  0  0
 15 16  1  0  0  0
 15 17  2  0  0  0
  6  2  1  0  0  0
 28 21  1  0  0  0
  7  3  1  0  0  0
  1  9  1  0  0  0
  1 10  1  0  0  0
 12 14  1  0  0  0
 16 18  1  0  0  0
M  END
> <minimizedAffinity>
5.06054

> <CNNscore>
0.5647600293

> <CNNaffinity>
6.3203988075

> <CNN_VS>
3.5695085526

> <CNNaffinity_variance>
0.2710412443

$$$$
[H]OC(=O)[C@@]1(F)[C@]2([H])C([H])([H])[C@@]([H])(OC([H])([H])c3c([H])c([H])c(Cl)c(Cl)c3[H])[C@](C(=O)O[H])(N([H])[H])[C@]12[H]


 28 30  0  0  0  0  0  0  0  0999 V2000
   20.8260    6.5970   53.8348 N   0  0  0  0  0  0  0  0  0  0  0  0
   22.1797    6.9149   54.2485 C   0  0  0  0  0  0  0  0  0  0  0  0
   22.2231    8.4031   54.5148 C   0  0  0  0  0  0  0  0  0  0  0  0
   22.8364    9.0513   53.3199 C   0  0  0  0  0  0  0  0  0  0  0  0
   23.0212    7.9302   52.3193 C   0  0  0  0  0  0  0  0  0  0  0  0
   23.1352    6.6590   53.1070 C   0  0  0  0  0  0  0  0  0  0  0  0
   21.4141    9.3503   53.7478 C   0  0  0  0  0  0  0  0  0  0  0  0
   20.4636    8.8984   52.8504 F   0  0  0  0  0  0  0  0  0  0  0  0
   20.1500    6.9510   54.5497 H   0  0  0  0  0  0  0  0  0  0  0  0
   20.6728    5.5482   53.8163 H   0  0  0  0  0  0  0  0  0  0  0  0
   21.2195   10.7019   54.2890 C   0  0  0  0  0  0  0  0  0  0  0  0
   20.9458   10.9206   55.6325 O   0  0  0  0  0  0  0  0  0  0  0  0
   21.2958   11.7115   53.5433 O   0  0  0  0  0  0  0  0  0  0  0  0
   20.1325   11.4312   55.9558 H   0  0  0  0  0  0  0  0  0  0  0  0
   22.5228    6.1883   55.4650 C   0  0  0  0  0  0  0  0  0  0  0  0
   21.7810    6.3570   56.6134 O   0  0  0  0  0  0  0  0  0  0  0  0
   23.4991    5.4052   55.4647 O   0  0  0  0  0  0  0  0  0  0  0  0
   22.0860    5.9766   57.5093 H   0  0  0  0  0  0  0  0  0  0  0  0
   24.3674    6.2766   53.4562 O   0  0  0  0  0  0  0  0  0  0  0  0
   25.4700    6.8913   53.0024 C   0  0  0  0  0  0  0  0  0  0  0  0
   26.0368    7.7722   54.0616 C   0  0  0  0  0  0  0  0  0  0  0  0
   25.3958    8.0178   55.2519 C   0  0  0  0  0  0  0  0  0  0  0  0
   25.9539    8.8358   56.2001 C   0  0  0  0  0  0  0  0  0  0  0  0
   27.1752    9.4322   55.9792 C   0  0  0  0  0  0  0  0  0  0  0  0
   27.8798   10.4850   57.2148 Cl  0  0  0  0  0  0  0  0  0  0  0  0
   27.8290    9.1972   54.7952 C   0  0  0  0  0  0  0  0  0  0  0  0
   29.3771    9.9747   54.5564 Cl  0  0  0  0  0  0  0  0  0  0  0  0
   27.2579    8.3742   53.8519 C   0  0  0  0  0  0  0  0  0  0  0  0
  1  2  1  0  0  0
  2  3  1  0  0  0
  3  4  1  0  0  0
  4  5  1  0  0  0
  5  6  1  0  0  0
  6 19  1  0  0  0
 19 20  1  0  0  0
 20 21  1  0  0  0
 21 22  2  0  0  0
 22 23  1  0  0  0
 23 24  2  0  0  0
 24 25  1  0  0  0
 24 26  1  0  0  0
 26 27  1  0  0  0
 26 28  2  0  0  0
  4  7  1  0  0  0
  7  8  1  0  0  0
  7 11  1  0  0  0
 11 12  1  0  0  0
 11 13  2  0  0  0
  2 15  1  0  0  0
 15 16  1  0  0  0
 15 17  2  0  0  0
  6  2  1  0  0  0
 28 21  1  0  0  0
  7  3  1  0  0  0
  1  9  1  0  0  0
  1 10  1  0  0  0
 12 14  1  0  0  0
 16 18  1  0  0  0
M  END
> <minimizedAffinity>
3.90565

> <CNNscore>
0.5498476624

> <CNNaffinity>
6.2286696434

> <CNN_VS>
3.4248194695

> <CNNaffinity_variance>
0.1814033836

$$$$
[H]OC(=O)[C@@]1(F)[C@]2([H])C([H])([H])[C@@]([H])(OC([H])([H])c3c([H])c([H])c(Cl)c(Cl)c3[H])[C@](C(=O)O[H])(N([H])[H])[C@]12[H]


 28 30  0  0  0  0  0  0  0  0999 V2000
   29.0612    7.7984   54.3287 N   0  0  0  0  0  0  0  0  0  0  0  0
   27.8104    8.4970   54.1000 C   0  0  0  0  0  0  0  0  0  0  0  0
   27.6220    9.4563   55.2540 C   0  0  0  0  0  0  0  0  0  0  0  0
   26.6622    8.8251   56.2051 C   0  0  0  0  0  0  0  0  0  0  0  0
   26.4083    7.4423   55.6435 C   0  0  0  0  0  0  0  0  0  0  0  0
   26.6608    7.5198   54.1671 C   0  0  0  0  0  0  0  0  0  0  0  0
   28.0886    9.1431   56.6046 C   0  0  0  0  0  0  0  0  0  0  0  0
   28.8574    8.0177   56.8401 F   0  0  0  0  0  0  0  0  0  0  0  0
   29.8287    8.4939   54.4719 H   0  0  0  0  0  0  0  0  0  0  0  0
   29.3515    7.2514   53.4683 H   0  0  0  0  0  0  0  0  0  0  0  0
   28.2124   10.2402   57.5733 C   0  0  0  0  0  0  0  0  0  0  0  0
   28.8984   10.0864   58.7706 O   0  0  0  0  0  0  0  0  0  0  0  0
   27.6951   11.3632   57.3444 O   0  0  0  0  0  0  0  0  0  0  0  0
   28.4800   10.2674   59.6756 H   0  0  0  0  0  0  0  0  0  0  0  0
   27.8660    9.2408   52.8474 C   0  0  0  0  0  0  0  0  0  0  0  0
   28.7316   10.3025   52.7019 O   0  0  0  0  0  0  0  0  0  0  0  0
   27.1210    8.9113   51.8972 O   0  0  0  0  0  0  0  0  0  0  0  0
   28.6854   10.9253   51.8954 H   0  0  0  0  0  0  0  0  0  0  0  0
   25.6101    7.8055   53.3917 O   0  0  0  0  0  0  0  0  0  0  0  0
   24.4030    7.2510   53.5785 C   0  0  0  0  0  0  0  0  0  0  0  0
   23.3928    8.3087   53.8611 C   0  0  0  0  0  0  0  0  0  0  0  0
   23.0306    8.6756   55.1347 C   0  0  0  0  0  0  0  0  0  0  0  0
   22.0957    9.6550   55.3498 C   0  0  0  0  0  0  0  0  0  0  0  0
   21.4960   10.2958   54.2886 C   0  0  0  0  0  0  0  0  0  0  0  0
   20.2914   11.5575   54.5858 Cl  0  0  0  0  0  0  0  0  0  0  0  0
   21.8466    9.9412   53.0096 C   0  0  0  0  0  0  0  0  0  0  0  0
   21.0605   10.7804   51.6920 Cl  0  0  0  0  0  0  0  0  0  0  0  0
   22.7863    8.9567   52.8075 C   0  0  0  0  0  0  0  0  0  0  0  0
  1  2  1  0  0  0
  2  3  1  0  0  0
  3  4  1  0  0  0
  4  5  1  0  0  0
  5  6  1  0  0  0
  6 19  1  0  0  0
 19 20  1  0  0  0
 20 21  1  0  0  0
 21 22  2  0  0  0
 22 23  1  0  0  0
 23 24  2  0  0  0
 24 25  1  0  0  0
 24 26  1  0  0  0
 26 27  1  0  0  0
 26 28  2  0  0  0
  4  7  1  0  0  0
  7  8  1  0  0  0
  7 11  1  0  0  0
 11 12  1  0  0  0
 11 13  2  0  0  0
  2 15  1  0  0  0
 15 16  1  0  0  0
 15 17  2  0  0  0
  6  2  1  0  0  0
 28 21  1  0  0  0
  7  3  1  0  0  0
  1  9  1  0  0  0
  1 10  1  0  0  0
 12 14  1  0  0  0
 16 18  1  0  0  0
M  END
> <minimizedAffinity>
15.67148

> <CNNscore>
0.5475296378

> <CNNaffinity>
5.5415096283

> <CNN_VS>
3.0341408253

> <CNNaffinity_variance>
0.1430406570

$$$$
[H]OC(=O)[C@@]1(F)[C@]2([H])C([H])([H])[C@@]([H])(OC([H])([H])c3c([H])c([H])c(Cl)c(Cl)c3[H])[C@](C(=O)O[H])(N([H])[H])[C@]12[H]


 28 30  0  0  0  0  0  0  0  0999 V2000
   20.1322    7.9167   51.4605 N   0  0  0  0  0  0  0  0  0  0  0  0
   20.9192    7.8320   52.6764 C   0  0  0  0  0  0  0  0  0  0  0  0
   21.2529    9.2488   53.0872 C   0  0  0  0  0  0  0  0  0  0  0  0
   22.6514    9.5221   52.6469 C   0  0  0  0  0  0  0  0  0  0  0  0
   23.0628    8.2914   51.8669 C   0  0  0  0  0  0  0  0  0  0  0  0
   22.2362    7.1522   52.3851 C   0  0  0  0  0  0  0  0  0  0  0  0
   21.4757   10.3077   52.1028 C   0  0  0  0  0  0  0  0  0  0  0  0
   21.2375   10.0810   50.7594 F   0  0  0  0  0  0  0  0  0  0  0  0
   19.3146    8.5495   51.6171 H   0  0  0  0  0  0  0  0  0  0  0  0
   19.7031    6.9773   51.2217 H   0  0  0  0  0  0  0  0  0  0  0  0
   21.4237   11.7044   52.5547 C   0  0  0  0  0  0  0  0  0  0  0  0
   21.5872   12.7657   51.6745 O   0  0  0  0  0  0  0  0  0  0  0  0
   21.2275   11.9829   53.7651 O   0  0  0  0  0  0  0  0  0  0  0  0
   22.2906   13.4845   51.7986 H   0  0  0  0  0  0  0  0  0  0  0  0
   20.1531    7.1821   53.7328 C   0  0  0  0  0  0  0  0  0  0  0  0
   19.6270    5.9233   53.5424 O   0  0  0  0  0  0  0  0  0  0  0  0
   19.9727    7.7733   54.8211 O   0  0  0  0  0  0  0  0  0  0  0  0
   18.9693    5.5114   54.2043 H   0  0  0  0  0  0  0  0  0  0  0  0
   22.7564    6.4401   53.3895 O   0  0  0  0  0  0  0  0  0  0  0  0
   24.0541    6.1041   53.4400 C   0  0  0  0  0  0  0  0  0  0  0  0
   24.8190    7.1314   54.2007 C   0  0  0  0  0  0  0  0  0  0  0  0
   24.2252    8.0126   55.0718 C   0  0  0  0  0  0  0  0  0  0  0  0
   24.9675    8.9431   55.7522 C   0  0  0  0  0  0  0  0  0  0  0  0
   26.3314    9.0153   55.5764 C   0  0  0  0  0  0  0  0  0  0  0  0
   27.2729   10.2229   56.4633 Cl  0  0  0  0  0  0  0  0  0  0  0  0
   26.9404    8.1421   54.7098 C   0  0  0  0  0  0  0  0  0  0  0  0
   28.6738    8.2688   54.5169 Cl  0  0  0  0  0  0  0  0  0  0  0  0
   26.1839    7.2131   54.0331 C   0  0  0  0  0  0  0  0  0  0  0  0
  1  2  1  0  0  0
  2  3  1  0  0  0
  3  4  1  0  0  0
  4  5  1  0  0  0
  5  6  1  0  0  0
  6 19  1  0  0  0
 19 20  1  0  0  0
 20 21  1  0  0  0
 21 22  2  0  0  0
 22 23  1  0  0  0
 23 24  2  0  0  0
 24 25  1  0  0  0
 24 26  1  0  0  0
 26 27  1  0  0  0
 26 28  2  0  0  0
  4  7  1  0  0  0
  7  8  1  0  0  0
  7 11  1  0  0  0
 11 12  1  0  0  0
 11 13  2  0  0  0
  2 15  1  0  0  0
 15 16  1  0  0  0
 15 17  2  0  0  0
  6  2  1  0  0  0
 28 21  1  0  0  0
  7  3  1  0  0  0
  1  9  1  0  0  0
  1 10  1  0  0  0
 12 14  1  0  0  0
 16 18  1  0  0  0
M  END
> <minimizedAffinity>
8.33575

> <CNNscore>
0.5218768120

> <CNNaffinity>
5.8351893425

> <CNN_VS>
3.0452499390

> <CNNaffinity_variance>
0.2129508704

$$$$
[H]OC(=O)[C@@]1(F)[C@]2([H])C([H])([H])[C@@]([H])(OC([H])(c3c([H])c([H])c([H])c([H])c3[H])c3c([H])c([H])c([H])c([H])c3[H])[C@](C(=O)O[H])(N([H])[H])[C@]12[H]


 32 35  0  0  0  0  0  0  0  0999 V2000
   22.9200    8.3215   52.5608 N   0  0  0  0  0  0  0  0  0  0  0  0
   22.0946    9.1342   53.4354 C   0  0  0  0  0  0  0  0  0  0  0  0
   21.4224   10.2598   52.7156 C   0  0  0  0  0  0  0  0  0  0  0  0
   21.2813   11.3162   53.7297 C   0  0  0  0  0  0  0  0  0  0  0  0
   22.1065   10.9760   54.9248 C   0  0  0  0  0  0  0  0  0  0  0  0
   22.8765    9.7293   54.5755 C   0  0  0  0  0  0  0  0  0  0  0  0
   22.0900   11.5540   52.4663 C   0  0  0  0  0  0  0  0  0  0  0  0
   23.4615   11.6725   52.5896 F   0  0  0  0  0  0  0  0  0  0  0  0
   23.9201    8.6322   52.5546 H   0  0  0  0  0  0  0  0  0  0  0  0
   22.8477    7.3108   52.8749 H   0  0  0  0  0  0  0  0  0  0  0  0
   21.4252   12.4496   51.5010 C   0  0  0  0  0  0  0  0  0  0  0  0
   21.1853   12.0121   50.2161 O   0  0  0  0  0  0  0  0  0  0  0  0
   21.0738   13.6025   51.8282 O   0  0  0  0  0  0  0  0  0  0  0  0
   20.2198   11.8188   49.9150 H   0  0  0  0  0  0  0  0  0  0  0  0
   21.0373    8.2743   54.0176 C   0  0  0  0  0  0  0  0  0  0  0  0
   20.4269    7.3455   53.1937 O   0  0  0  0  0  0  0  0  0  0  0  0
   20.6982    8.3730   55.2089 O   0  0  0  0  0  0  0  0  0  0  0  0
   20.8537    6.4786   52.9250 H   0  0  0  0  0  0  0  0  0  0  0  0
   22.8261    8.8437   55.6705 O   0  0  0  0  0  0  0  0  0  0  0  0
   23.8148    7.8700   55.5746 C   0  0  0  0  0  0  0  0  0  0  0  0
   25.1466    8.3979   55.2183 C   0  0  0  0  0  0  0  0  0  0  0  0
   25.8375    9.1831   56.1164 C   0  0  0  0  0  0  0  0  0  0  0  0
   27.0947    9.6907   55.7897 C   0  0  0  0  0  0  0  0  0  0  0  0
   27.6693    9.4143   54.5578 C   0  0  0  0  0  0  0  0  0  0  0  0
   26.9901    8.6406   53.6711 C   0  0  0  0  0  0  0  0  0  0  0  0
   25.7484    8.1468   54.0098 C   0  0  0  0  0  0  0  0  0  0  0  0
   23.4064    6.8738   54.5559 C   0  0  0  0  0  0  0  0  0  0  0  0
   22.2577    6.0932   54.7278 C   0  0  0  0  0  0  0  0  0  0  0  0
   21.8844    5.1783   53.7800 C   0  0  0  0  0  0  0  0  0  0  0  0
   22.6432    5.0191   52.6421 C   0  0  0  0  0  0  0  0  0  0  0  0
   23.7743    5.7586   52.4284 C   0  0  0  0  0  0  0  0  0  0  0  0
   24.1303    6.6831   53.4110 C   0  0  0  0  0  0  0  0  0  0  0  0
  1  2  1  0  0  0
  2  3  1  0  0  0
  3  4  1  0  0  0
  4  5  1  0  0  0
  5  6  1  0  0  0
  6 19  1  0  0  0
 19 20  1  0  0  0
 20 21  1  0  0  0
 21 22  2  0  0  0
 22 23  1  0  0  0
 23 24  2  0  0  0
 24 25  1  0  0  0
 25 26  2  0  0  0
 20 27  1  0  0  0
 27 28  2  0  0  0
 28 29  1  0  0  0
 29 30  2  0  0  0
 30 31  1  0  0  0
 31 32  2  0  0  0
  4  7  1  0  0  0
  7  8  1  0  0  0
  7 11  1  0  0  0
 11 12  1  0  0  0
 11 13  2  0  0  0
  2 15  1  0  0  0
 15 16  1  0  0  0
 15 17  2  0  0  0
  6  2  1  0  0  0
 26 21  1  0  0  0
 32 27  1  0  0  0
  7  3  1  0  0  0
  1  9  1  0  0  0
  1 10  1  0  0  0
 12 14  1  0  0  0
 16 18  1  0  0  0
M  END
> <minimizedAffinity>
17.21581

> <CNNscore>
0.6605744362

> <CNNaffinity>
6.1096048355

> <CNN_VS>
4.0358486176

> <CNNaffinity_variance>
0.5401801467

$$$$
[H]OC(=O)[C@@]1(F)[C@]2([H])C([H])([H])[C@@]([H])(OC([H])(c3c([H])c([H])c([H])c([H])c3[H])c3c([H])c([H])c([H])c([H])c3[H])[C@](C(=O)O[H])(N([H])[H])[C@]12[H]


 32 35  0  0  0  0  0  0  0  0999 V2000
   20.6593    8.4972   54.1276 N   0  0  0  0  0  0  0  0  0  0  0  0
   21.3910    9.7164   54.4189 C   0  0  0  0  0  0  0  0  0  0  0  0
   21.0698   10.8254   53.4681 C   0  0  0  0  0  0  0  0  0  0  0  0
   22.3009   11.6285   53.4064 C   0  0  0  0  0  0  0  0  0  0  0  0
   23.4215   10.8761   54.0413 C   0  0  0  0  0  0  0  0  0  0  0  0
   22.8821    9.5136   54.3902 C   0  0  0  0  0  0  0  0  0  0  0  0
   21.7400   10.9678   52.1591 C   0  0  0  0  0  0  0  0  0  0  0  0
   22.4468    9.9131   51.6130 F   0  0  0  0  0  0  0  0  0  0  0  0
   21.2023    7.8431   53.5159 H   0  0  0  0  0  0  0  0  0  0  0  0
   20.4119    8.0268   55.0458 H   0  0  0  0  0  0  0  0  0  0  0  0
   21.1220   11.9187   51.2159 C   0  0  0  0  0  0  0  0  0  0  0  0
   20.5130   11.4486   50.0722 O   0  0  0  0  0  0  0  0  0  0  0  0
   21.1402   13.1480   51.4357 O   0  0  0  0  0  0  0  0  0  0  0  0
   19.4881   11.4940   49.9845 H   0  0  0  0  0  0  0  0  0  0  0  0
   21.0263   10.1698   55.7820 C   0  0  0  0  0  0  0  0  0  0  0  0
   22.0236   10.2204   56.7396 O   0  0  0  0  0  0  0  0  0  0  0  0
   19.8633   10.4979   56.0713 O   0  0  0  0  0  0  0  0  0  0  0  0
   22.7129   10.9476   56.7831 H   0  0  0  0  0  0  0  0  0  0  0  0
   23.3178    9.1718   55.6861 O   0  0  0  0  0  0  0  0  0  0  0  0
   24.1739    8.0760   55.6551 C   0  0  0  0  0  0  0  0  0  0  0  0
   25.5807    8.4194   55.3677 C   0  0  0  0  0  0  0  0  0  0  0  0
   26.3370    9.0712   56.3183 C   0  0  0  0  0  0  0  0  0  0  0  0
   27.6659    9.4043   56.0570 C   0  0  0  0  0  0  0  0  0  0  0  0
   28.2470    9.0858   54.8385 C   0  0  0  0  0  0  0  0  0  0  0  0
   27.5034    8.4434   53.9001 C   0  0  0  0  0  0  0  0  0  0  0  0
   26.1914    8.1214   54.1745 C   0  0  0  0  0  0  0  0  0  0  0  0
   23.6936    7.1240   54.6255 C   0  0  0  0  0  0  0  0  0  0  0  0
   22.6983    6.1845   54.9177 C   0  0  0  0  0  0  0  0  0  0  0  0
   22.2566    5.3115   53.9599 C   0  0  0  0  0  0  0  0  0  0  0  0
   22.7933    5.3526   52.6925 C   0  0  0  0  0  0  0  0  0  0  0  0
   23.7681    6.2526   52.3583 C   0  0  0  0  0  0  0  0  0  0  0  0
   24.1987    7.1298   53.3543 C   0  0  0  0  0  0  0  0  0  0  0  0
  1  2  1  0  0  0
  2  3  1  0  0  0
  3  4  1  0  0  0
  4  5  1  0  0  0
  5  6  1  0  0  0
  6 19  1  0  0  0
 19 20  1  0  0  0
 20 21  1  0  0  0
 21 22  2  0  0  0
 22 23  1  0  0  0
 23 24  2  0  0  0
 24 25  1  0  0  0
 25 26  2  0  0  0
 20 27  1  0  0  0
 27 28  2  0  0  0
 28 29  1  0  0  0
 29 30  2  0  0  0
 30 31  1  0  0  0
 31 32  2  0  0  0
  4  7  1  0  0  0
  7  8  1  0  0  0
  7 11  1  0  0  0
 11 12  1  0  0  0
 11 13  2  0  0  0
  2 15  1  0  0  0
 15 16  1  0  0  0
 15 17  2  0  0  0
  6  2  1  0  0  0
 26 21  1  0  0  0
 32 27  1  0  0  0
  7  3  1  0  0  0
  1  9  1  0  0  0
  1 10  1  0  0  0
 12 14  1  0  0  0
 16 18  1  0  0  0
M  END
> <minimizedAffinity>
19.45953

> <CNNscore>
0.6568810940

> <CNNaffinity>
6.4239921570

> <CNN_VS>
4.2197990417

> <CNNaffinity_variance>
0.6071031690

$$$$
[H]OC(=O)[C@@]1(F)[C@]2([H])C([H])([H])[C@@]([H])(OC([H])(c3c([H])c([H])c([H])c([H])c3[H])c3c([H])c([H])c([H])c([H])c3[H])[C@](C(=O)O[H])(N([H])[H])[C@]12[H]


 32 35  0  0  0  0  0  0  0  0999 V2000
   26.6403    6.6700   54.9073 N   0  0  0  0  0  0  0  0  0  0  0  0
   26.3064    8.0782   54.7965 C   0  0  0  0  0  0  0  0  0  0  0  0
   27.2014    8.9515   55.6170 C   0  0  0  0  0  0  0  0  0  0  0  0
   26.3621   10.1034   55.9816 C   0  0  0  0  0  0  0  0  0  0  0  0
   24.9354    9.8025   55.6668 C   0  0  0  0  0  0  0  0  0  0  0  0
   24.8886    8.3678   55.2104 C   0  0  0  0  0  0  0  0  0  0  0  0
   26.9618    9.2083   57.0522 C   0  0  0  0  0  0  0  0  0  0  0  0
   26.1035    8.4029   57.7765 F   0  0  0  0  0  0  0  0  0  0  0  0
   26.0801    6.1846   55.6473 H   0  0  0  0  0  0  0  0  0  0  0  0
   26.4827    6.2125   53.9632 H   0  0  0  0  0  0  0  0  0  0  0  0
   28.0729    9.8370   57.7912 C   0  0  0  0  0  0  0  0  0  0  0  0
   28.7901    9.0969   58.7065 O   0  0  0  0  0  0  0  0  0  0  0  0
   28.3774   11.0333   57.6018 O   0  0  0  0  0  0  0  0  0  0  0  0
   29.7627    8.8312   58.4978 H   0  0  0  0  0  0  0  0  0  0  0  0
   26.4520    8.4862   53.3792 C   0  0  0  0  0  0  0  0  0  0  0  0
   25.3745    8.2946   52.5329 O   0  0  0  0  0  0  0  0  0  0  0  0
   27.5048    8.9869   52.9492 O   0  0  0  0  0  0  0  0  0  0  0  0
   24.5657    8.8876   52.5233 H   0  0  0  0  0  0  0  0  0  0  0  0
   24.0583    8.2801   54.0751 O   0  0  0  0  0  0  0  0  0  0  0  0
   22.7191    8.4292   54.4198 C   0  0  0  0  0  0  0  0  0  0  0  0
   21.8648    7.2934   54.0201 C   0  0  0  0  0  0  0  0  0  0  0  0
   20.5520    7.5136   53.6616 C   0  0  0  0  0  0  0  0  0  0  0  0
   19.7342    6.4482   53.2859 C   0  0  0  0  0  0  0  0  0  0  0  0
   20.2277    5.1520   53.2669 C   0  0  0  0  0  0  0  0  0  0  0  0
   21.5213    4.9327   53.6199 C   0  0  0  0  0  0  0  0  0  0  0  0
   22.3161    5.9969   53.9887 C   0  0  0  0  0  0  0  0  0  0  0  0
   22.1985    9.6651   53.7886 C   0  0  0  0  0  0  0  0  0  0  0  0
   21.8318   10.7725   54.5617 C   0  0  0  0  0  0  0  0  0  0  0  0
   21.3561   11.9124   53.9709 C   0  0  0  0  0  0  0  0  0  0  0  0
   21.2343   11.9770   52.6009 C   0  0  0  0  0  0  0  0  0  0  0  0
   21.5796   10.9210   51.8024 C   0  0  0  0  0  0  0  0  0  0  0  0
   22.0614    9.7727   52.4319 C   0  0  0  0  0  0  0  0  0  0  0  0
  1  2  1  0  0  0
  2  3  1  0  0  0
  3  4  1  0  0  0
  4  5  1  0  0  0
  5  6  1  0  0  0
  6 19  1  0  0  0
 19 20  1  0  0  0
 20 21  1  0  0  0
 21 22  2  0  0  0
 22 23  1  0  0  0
 23 24  2  0  0  0
 24 25  1  0  0  0
 25 26  2  0  0  0
 20 27  1  0  0  0
 27 28  2  0  0  0
 28 29  1  0  0  0
 29 30  2  0  0  0
 30 31  1  0  0  0
 31 32  2  0  0  0
  4  7  1  0  0  0
  7  8  1  0  0  0
  7 11  1  0  0  0
 11 12  1  0  0  0
 11 13  2  0  0  0
  2 15  1  0  0  0
 15 16  1  0  0  0
 15 17  2  0  0  0
  6  2  1  0  0  0
 26 21  1  0  0  0
 32 27  1  0  0  0
  7  3  1  0  0  0
  1  9  1  0  0  0
  1 10  1  0  0  0
 12 14  1  0  0  0
 16 18  1  0  0  0
M  END
> <minimizedAffinity>
16.05169

> <CNNscore>
0.5162561536

> <CNNaffinity>
5.4606180191

> <CNN_VS>
2.8190777302

> <CNNaffinity_variance>
0.0956575051

$$$$
[H]OC(=O)[C@@]1(F)[C@]2([H])C([H])([H])[C@@]([H])(OC([H])(c3c([H])c([H])c([H])c([H])c3[H])c3c([H])c([H])c([H])c([H])c3[H])[C@](C(=O)O[H])(N([H])[H])[C@]12[H]


 32 35  0  0  0  0  0  0  0  0999 V2000
   19.9661    7.8264   54.0900 N   0  0  0  0  0  0  0  0  0  0  0  0
   20.5966    6.7805   53.3058 C   0  0  0  0  0  0  0  0  0  0  0  0
   19.6791    5.6325   53.0279 C   0  0  0  0  0  0  0  0  0  0  0  0
   20.5676    4.4644   52.9261 C   0  0  0  0  0  0  0  0  0  0  0  0
   21.9258    4.8237   53.4273 C   0  0  0  0  0  0  0  0  0  0  0  0
   21.8273    6.2251   53.9709 C   0  0  0  0  0  0  0  0  0  0  0  0
   19.4808    4.5248   53.9854 C   0  0  0  0  0  0  0  0  0  0  0  0
   19.8709    4.6580   55.3046 F   0  0  0  0  0  0  0  0  0  0  0  0
   20.1410    7.7152   55.1166 H   0  0  0  0  0  0  0  0  0  0  0  0
   20.3285    8.7643   53.7516 H   0  0  0  0  0  0  0  0  0  0  0  0
   18.3410    3.6294   53.7119 C   0  0  0  0  0  0  0  0  0  0  0  0
   17.1235    3.8702   54.3116 O   0  0  0  0  0  0  0  0  0  0  0  0
   18.4592    2.6524   52.9430 O   0  0  0  0  0  0  0  0  0  0  0  0
   16.3320    4.2033   53.7435 H   0  0  0  0  0  0  0  0  0  0  0  0
   21.0108    7.3537   52.0034 C   0  0  0  0  0  0  0  0  0  0  0  0
   22.2925    7.0898   51.5543 O   0  0  0  0  0  0  0  0  0  0  0  0
   20.2407    8.0527   51.3235 O   0  0  0  0  0  0  0  0  0  0  0  0
   22.5685    6.2141   51.1509 H   0  0  0  0  0  0  0  0  0  0  0  0
   22.9482    6.9599   53.5356 O   0  0  0  0  0  0  0  0  0  0  0  0
   23.2806    7.9560   54.4477 C   0  0  0  0  0  0  0  0  0  0  0  0
   22.5707    9.2321   54.2304 C   0  0  0  0  0  0  0  0  0  0  0  0
   22.0222    9.9046   55.3016 C   0  0  0  0  0  0  0  0  0  0  0  0
   21.3459   11.1089   55.1083 C   0  0  0  0  0  0  0  0  0  0  0  0
   21.2144   11.6485   53.8372 C   0  0  0  0  0  0  0  0  0  0  0  0
   21.7542   10.9874   52.7800 C   0  0  0  0  0  0  0  0  0  0  0  0
   22.4194    9.7981   52.9885 C   0  0  0  0  0  0  0  0  0  0  0  0
   24.7404    8.2019   54.3751 C   0  0  0  0  0  0  0  0  0  0  0  0
   25.4365    8.0710   53.1681 C   0  0  0  0  0  0  0  0  0  0  0  0
   26.7843    8.3044   53.1081 C   0  0  0  0  0  0  0  0  0  0  0  0
   27.4693    8.6724   54.2445 C   0  0  0  0  0  0  0  0  0  0  0  0
   26.8335    8.8135   55.4477 C   0  0  0  0  0  0  0  0  0  0  0  0
   25.4600    8.5694   55.4789 C   0  0  0  0  0  0  0  0  0  0  0  0
  1  2  1  0  0  0
  2  3  1  0  0  0
  3  4  1  0  0  0
  4  5  1  0  0  0
  5  6  1  0  0  0
  6 19  1  0  0  0
 19 20  1  0  0  0
 20 21  1  0  0  0
 21 22  2  0  0  0
 22 23  1  0  0  0
 23 24  2  0  0  0
 24 25  1  0  0  0
 25 26  2  0  0  0
 20 27  1  0  0  0
 27 28  2  0  0  0
 28 29  1  0  0  0
 29 30  2  0  0  0
 30 31  1  0  0  0
 31 32  2  0  0  0
  4  7  1  0  0  0
  7  8  1  0  0  0
  7 11  1  0  0  0
 11 12  1  0  0  0
 11 13  2  0  0  0
  2 15  1  0  0  0
 15 16  1  0  0  0
 15 17  2  0  0  0
  6  2  1  0  0  0
 26 21  1  0  0  0
 32 27  1  0  0  0
  7  3  1  0  0  0
  1  9  1  0  0  0
  1 10  1  0  0  0
 12 14  1  0  0  0
 16 18  1  0  0  0
M  END
> <minimizedAffinity>
15.32963

> <CNNscore>
0.5058306456

> <CNNaffinity>
5.8864731789

> <CNN_VS>
2.9775586128

> <CNNaffinity_variance>
0.3289098144

$$$$
[H]OC(=O)[C@@]1(F)[C@]2([H])C([H])([H])[C@@]([H])(OC([H])(c3c([H])c([H])c([H])c([H])c3[H])c3c([H])c([H])c([H])c([H])c3[H])[C@](C(=O)O[H])(N([H])[H])[C@]12[H]


 32 35  0  0  0  0  0  0  0  0999 V2000
   22.0655    7.6617   56.3739 N   0  0  0  0  0  0  0  0  0  0  0  0
   22.5432    8.5333   55.3161 C   0  0  0  0  0  0  0  0  0  0  0  0
   21.7317    8.4230   54.0646 C   0  0  0  0  0  0  0  0  0  0  0  0
   22.6797    8.7242   52.9807 C   0  0  0  0  0  0  0  0  0  0  0  0
   24.0720    8.7110   53.5157 C   0  0  0  0  0  0  0  0  0  0  0  0
   23.9777    8.2617   54.9504 C   0  0  0  0  0  0  0  0  0  0  0  0
   21.9777    7.3790   53.0483 C   0  0  0  0  0  0  0  0  0  0  0  0
   22.7397    6.2671   53.3534 F   0  0  0  0  0  0  0  0  0  0  0  0
   22.5634    6.7405   56.3864 H   0  0  0  0  0  0  0  0  0  0  0  0
   22.1876    8.1619   57.3015 H   0  0  0  0  0  0  0  0  0  0  0  0
   20.9273    7.2106   52.0265 C   0  0  0  0  0  0  0  0  0  0  0  0
   21.1266    7.7020   50.7542 O   0  0  0  0  0  0  0  0  0  0  0  0
   19.8556    6.6280   52.2941 O   0  0  0  0  0  0  0  0  0  0  0  0
   21.2699    7.0484   49.9716 H   0  0  0  0  0  0  0  0  0  0  0  0
   22.4584    9.9358   55.7876 C   0  0  0  0  0  0  0  0  0  0  0  0
   21.6710   10.8175   55.0690 O   0  0  0  0  0  0  0  0  0  0  0  0
   23.0710   10.3230   56.7970 O   0  0  0  0  0  0  0  0  0  0  0  0
   20.6698   10.8368   55.1239 H   0  0  0  0  0  0  0  0  0  0  0  0
   24.8092    9.0828   55.7380 O   0  0  0  0  0  0  0  0  0  0  0  0
   26.0926    8.5547   55.8318 C   0  0  0  0  0  0  0  0  0  0  0  0
   26.9384    9.2064   56.8513 C   0  0  0  0  0  0  0  0  0  0  0  0
   27.5215    8.4507   57.8460 C   0  0  0  0  0  0  0  0  0  0  0  0
   28.3193    9.0556   58.8169 C   0  0  0  0  0  0  0  0  0  0  0  0
   28.5386   10.4251   58.7975 C   0  0  0  0  0  0  0  0  0  0  0  0
   27.9648   11.1719   57.8181 C   0  0  0  0  0  0  0  0  0  0  0  0
   27.1790   10.5583   56.8661 C   0  0  0  0  0  0  0  0  0  0  0  0
   26.7557    8.6747   54.5117 C   0  0  0  0  0  0  0  0  0  0  0  0
   26.0646    8.3949   53.3274 C   0  0  0  0  0  0  0  0  0  0  0  0
   26.6828    8.5125   52.1114 C   0  0  0  0  0  0  0  0  0  0  0  0
   27.9995    8.9101   52.0454 C   0  0  0  0  0  0  0  0  0  0  0  0
   28.7173    9.1949   53.1748 C   0  0  0  0  0  0  0  0  0  0  0  0
   28.0616    9.0664   54.3998 C   0  0  0  0  0  0  0  0  0  0  0  0
  1  2  1  0  0  0
  2  3  1  0  0  0
  3  4  1  0  0  0
  4  5  1  0  0  0
  5  6  1  0  0  0
  6 19  1  0  0  0
 19 20  1  0  0  0
 20 21  1  0  0  0
 21 22  2  0  0  0
 22 23  1  0  0  0
 23 24  2  0  0  0
 24 25  1  0  0  0
 25 26  2  0  0  0
 20 27  1  0  0  0
 27 28  2  0  0  0
 28 29  1  0  0  0
 29 30  2  0  0  0
 30 31  1  0  0  0
 31 32  2  0  0  0
  4  7  1  0  0  0
  7  8  1  0  0  0
  7 11  1  0  0  0
 11 12  1  0  0  0
 11 13  2  0  0  0
  2 15  1  0  0  0
 15 16  1  0  0  0
 15 17  2  0  0  0
  6  2  1  0  0  0
 26 21  1  0  0  0
 32 27  1  0  0  0
  7  3  1  0  0  0
  1  9  1  0  0  0
  1 10  1  0  0  0
 12 14  1  0  0  0
 16 18  1  0  0  0
M  END
> <minimizedAffinity>
16.14128

> <CNNscore>
0.4926525056

> <CNNaffinity>
5.8538832664

> <CNN_VS>
2.8839302063

> <CNNaffinity_variance>
0.1421658844

$$$$
[H]OC(=O)[C@@]1(F)[C@]2([H])C([H])([H])[C@@]([H])(OC([H])(c3c([H])c([H])c([H])c([H])c3[H])c3c([H])c([H])c([H])c([H])c3[H])[C@](C(=O)O[H])(N([H])[H])[C@]12[H]


 32 35  0  0  0  0  0  0  0  0999 V2000
   20.4973    8.4196   55.2328 N   0  0  0  0  0  0  0  0  0  0  0  0
   21.2982    9.1124   54.2402 C   0  0  0  0  0  0  0  0  0  0  0  0
   20.6321    9.1788   52.9028 C   0  0  0  0  0  0  0  0  0  0  0  0
   21.7417    9.1999   51.9370 C   0  0  0  0  0  0  0  0  0  0  0  0
   23.0147    8.8471   52.6298 C   0  0  0  0  0  0  0  0  0  0  0  0
   22.6473    8.4751   54.0425 C   0  0  0  0  0  0  0  0  0  0  0  0
   20.7160    8.0799   51.9186 C   0  0  0  0  0  0  0  0  0  0  0  0
   21.1287    6.8192   52.3065 F   0  0  0  0  0  0  0  0  0  0  0  0
   20.7382    7.4026   55.3002 H   0  0  0  0  0  0  0  0  0  0  0  0
   20.6377    8.8967   56.1699 H   0  0  0  0  0  0  0  0  0  0  0  0
   19.7798    8.1570   50.7814 C   0  0  0  0  0  0  0  0  0  0  0  0
   18.4435    8.4042   51.0119 O   0  0  0  0  0  0  0  0  0  0  0  0
   20.1775    8.0019   49.6078 O   0  0  0  0  0  0  0  0  0  0  0  0
   18.0379    9.3106   50.7395 H   0  0  0  0  0  0  0  0  0  0  0  0
   21.5224   10.5023   54.7032 C   0  0  0  0  0  0  0  0  0  0  0  0
   21.7383   10.7117   56.0536 O   0  0  0  0  0  0  0  0  0  0  0  0
   21.5192   11.4617   53.9134 O   0  0  0  0  0  0  0  0  0  0  0  0
   22.6091   10.5177   56.5116 H   0  0  0  0  0  0  0  0  0  0  0  0
   23.5668    9.0783   54.9238 O   0  0  0  0  0  0  0  0  0  0  0  0
   24.4755    8.1472   55.4157 C   0  0  0  0  0  0  0  0  0  0  0  0
   25.8892    8.5295   55.2292 C   0  0  0  0  0  0  0  0  0  0  0  0
   26.5811    9.1282   56.2605 C   0  0  0  0  0  0  0  0  0  0  0  0
   27.9158    9.4973   56.0949 C   0  0  0  0  0  0  0  0  0  0  0  0
   28.5676    9.2685   54.8920 C   0  0  0  0  0  0  0  0  0  0  0  0
   27.8875    8.6786   53.8743 C   0  0  0  0  0  0  0  0  0  0  0  0
   26.5687    8.3200   54.0545 C   0  0  0  0  0  0  0  0  0  0  0  0
   24.2383    6.8476   54.7436 C   0  0  0  0  0  0  0  0  0  0  0  0
   23.5444    5.8168   55.3873 C   0  0  0  0  0  0  0  0  0  0  0  0
   23.3253    4.6207   54.7581 C   0  0  0  0  0  0  0  0  0  0  0  0
   23.7902    4.4227   53.4772 C   0  0  0  0  0  0  0  0  0  0  0  0
   24.4737    5.3997   52.8063 C   0  0  0  0  0  0  0  0  0  0  0  0
   24.6822    6.6080   53.4721 C   0  0  0  0  0  0  0  0  0  0  0  0
  1  2  1  0  0  0
  2  3  1  0  0  0
  3  4  1  0  0  0
  4  5  1  0  0  0
  5  6  1  0  0  0
  6 19  1  0  0  0
 19 20  1  0  0  0
 20 21  1  0  0  0
 21 22  2  0  0  0
 22 23  1  0  0  0
 23 24  2  0  0  0
 24 25  1  0  0  0
 25 26  2  0  0  0
 20 27  1  0  0  0
 27 28  2  0  0  0
 28 29  1  0  0  0
 29 30  2  0  0  0
 30 31  1  0  0  0
 31 32  2  0  0  0
  4  7  1  0  0  0
  7  8  1  0  0  0
  7 11  1  0  0  0
 11 12  1  0  0  0
 11 13  2  0  0  0
  2 15  1  0  0  0
 15 16  1  0  0  0
 15 17  2  0  0  0
  6  2  1  0  0  0
 26 21  1  0  0  0
 32 27  1  0  0  0
  7  3  1  0  0  0
  1  9  1  0  0  0
  1 10  1  0  0  0
 12 14  1  0  0  0
 16 18  1  0  0  0
M  END
> <minimizedAffinity>
16.06624

> <CNNscore>
0.4871600568

> <CNNaffinity>
5.9798154831

> <CNN_VS>
2.9131271839

> <CNNaffinity_variance>
0.6766012907

$$$$
[H]OC(=O)[C@@]1(F)[C@]2([H])C([H])([H])[C@@]([H])(OC([H])(c3c([H])c([H])c([H])c([H])c3[H])c3c([H])c([H])c([H])c([H])c3[H])[C@](C(=O)O[H])(N([H])[H])[C@]12[H]


 32 35  0  0  0  0  0  0  0  0999 V2000
   21.8717    7.4828   55.7504 N   0  0  0  0  0  0  0  0  0  0  0  0
   22.2259    6.3014   54.9852 C   0  0  0  0  0  0  0  0  0  0  0  0
   22.3398    5.0750   55.8335 C   0  0  0  0  0  0  0  0  0  0  0  0
   23.3412    4.2427   55.1488 C   0  0  0  0  0  0  0  0  0  0  0  0
   24.0363    5.0522   54.1065 C   0  0  0  0  0  0  0  0  0  0  0  0
   23.5274    6.4630   54.2466 C   0  0  0  0  0  0  0  0  0  0  0  0
   23.5743    4.7298   56.5684 C   0  0  0  0  0  0  0  0  0  0  0  0
   24.5588    5.6780   56.7728 F   0  0  0  0  0  0  0  0  0  0  0  0
   22.7127    8.0291   56.0522 H   0  0  0  0  0  0  0  0  0  0  0  0
   21.2305    8.0862   55.1586 H   0  0  0  0  0  0  0  0  0  0  0  0
   23.4470    3.6678   57.5841 C   0  0  0  0  0  0  0  0  0  0  0  0
   23.9285    2.4044   57.3158 O   0  0  0  0  0  0  0  0  0  0  0  0
   22.9086    3.8932   58.6882 O   0  0  0  0  0  0  0  0  0  0  0  0
   24.7644    2.0615   57.8096 H   0  0  0  0  0  0  0  0  0  0  0  0
   21.1661    6.0578   53.9782 C   0  0  0  0  0  0  0  0  0  0  0  0
   20.4944    7.1519   53.4627 O   0  0  0  0  0  0  0  0  0  0  0  0
   20.8782    4.9103   53.5985 O   0  0  0  0  0  0  0  0  0  0  0  0
   20.8827    7.7636   52.7692 H   0  0  0  0  0  0  0  0  0  0  0  0
   23.2587    6.9776   52.9624 O   0  0  0  0  0  0  0  0  0  0  0  0
   23.8650    8.2162   52.7810 C   0  0  0  0  0  0  0  0  0  0  0  0
   25.1162    8.3912   53.5447 C   0  0  0  0  0  0  0  0  0  0  0  0
   25.0654    8.6358   54.9005 C   0  0  0  0  0  0  0  0  0  0  0  0
   26.2405    8.8067   55.6319 C   0  0  0  0  0  0  0  0  0  0  0  0
   27.4773    8.7336   55.0080 C   0  0  0  0  0  0  0  0  0  0  0  0
   27.5297    8.4927   53.6719 C   0  0  0  0  0  0  0  0  0  0  0  0
   26.3587    8.3262   52.9637 C   0  0  0  0  0  0  0  0  0  0  0  0
   22.9097    9.2779   53.1773 C   0  0  0  0  0  0  0  0  0  0  0  0
   22.1305    9.9422   52.2233 C   0  0  0  0  0  0  0  0  0  0  0  0
   21.2469   10.9187   52.5978 C   0  0  0  0  0  0  0  0  0  0  0  0
   21.1181   11.2562   53.9265 C   0  0  0  0  0  0  0  0  0  0  0  0
   21.8574   10.6357   54.8962 C   0  0  0  0  0  0  0  0  0  0  0  0
   22.7496    9.6446   54.4854 C   0  0  0  0  0  0  0  0  0  0  0  0
  1  2  1  0  0  0
  2  3  1  0  0  0
  3  4  1  0  0  0
  4  5  1  0  0  0
  5  6  1  0  0  0
  6 19  1  0  0  0
 19 20  1  0  0  0
 20 21  1  0  0  0
 21 22  2  0  0  0
 22 23  1  0  0  0
 23 24  2  0  0  0
 24 25  1  0  0  0
 25 26  2  0  0  0
 20 27  1  0  0  0
 27 28  2  0  0  0
 28 29  1  0  0  0
 29 30  2  0  0  0
 30 31  1  0  0  0
 31 32  2  0  0  0
  4  7  1  0  0  0
  7  8  1  0  0  0
  7 11  1  0  0  0
 11 12  1  0  0  0
 11 13  2  0  0  0
  2 15  1  0  0  0
 15 16  1  0  0  0
 15 17  2  0  0  0
  6  2  1  0  0  0
 26 21  1  0  0  0
 32 27  1  0  0  0
  7  3  1  0  0  0
  1  9  1  0  0  0
  1 10  1  0  0  0
 12 14  1  0  0  0
 16 18  1  0  0  0
M  END
> <minimizedAffinity>
23.23573

> <CNNscore>
0.4787073135

> <CNNaffinity>
5.6567873955

> <CNN_VS>
2.7079455853

> <CNNaffinity_variance>
0.2482327521

$$$$
[H]OC(=O)[C@@]1(F)[C@]2([H])C([H])([H])[C@@]([H])(OC([H])(c3c([H])c([H])c([H])c([H])c3[H])c3c([H])c([H])c([H])c([H])c3[H])[C@](C(=O)O[H])(N([H])[H])[C@]12[H]


 32 35  0  0  0  0  0  0  0  0999 V2000
   22.0704    7.6147   56.3109 N   0  0  0  0  0  0  0  0  0  0  0  0
   22.5224    8.5271   55.2766 C   0  0  0  0  0  0  0  0  0  0  0  0
   21.6959    8.4471   54.0326 C   0  0  0  0  0  0  0  0  0  0  0  0
   22.6254    8.7969   52.9473 C   0  0  0  0  0  0  0  0  0  0  0  0
   24.0247    8.7849   53.4636 C   0  0  0  0  0  0  0  0  0  0  0  0
   23.9554    8.2873   54.8837 C   0  0  0  0  0  0  0  0  0  0  0  0
   21.9421    7.4408   52.9792 C   0  0  0  0  0  0  0  0  0  0  0  0
   22.7227    6.3298   53.2374 F   0  0  0  0  0  0  0  0  0  0  0  0
   22.5805    6.7004   56.2865 H   0  0  0  0  0  0  0  0  0  0  0  0
   22.1981    8.0855   57.2530 H   0  0  0  0  0  0  0  0  0  0  0  0
   20.8807    7.2919   51.9659 C   0  0  0  0  0  0  0  0  0  0  0  0
   21.1285    7.6521   50.6587 O   0  0  0  0  0  0  0  0  0  0  0  0
   19.7561    6.8431   52.2720 O   0  0  0  0  0  0  0  0  0  0  0  0
   21.2062    6.9239   49.9349 H   0  0  0  0  0  0  0  0  0  0  0  0
   22.4254    9.9120   55.7955 C   0  0  0  0  0  0  0  0  0  0  0  0
   23.1905   10.2489   56.8978 O   0  0  0  0  0  0  0  0  0  0  0  0
   21.6832   10.7565   55.2666 O   0  0  0  0  0  0  0  0  0  0  0  0
   24.1751   10.4342   56.8527 H   0  0  0  0  0  0  0  0  0  0  0  0
   24.7864    9.0932   55.6875 O   0  0  0  0  0  0  0  0  0  0  0  0
   26.0624    8.5498   55.7932 C   0  0  0  0  0  0  0  0  0  0  0  0
   26.9048    9.1883   56.8238 C   0  0  0  0  0  0  0  0  0  0  0  0
   27.1188   10.5498   56.7900 C   0  0  0  0  0  0  0  0  0  0  0  0
   27.9158   11.1638   57.7558 C   0  0  0  0  0  0  0  0  0  0  0  0
   28.5052   10.4158   58.7643 C   0  0  0  0  0  0  0  0  0  0  0  0
   28.2957    9.0738   58.7996 C   0  0  0  0  0  0  0  0  0  0  0  0
   27.5052    8.4826   57.8372 C   0  0  0  0  0  0  0  0  0  0  0  0
   26.7410    8.6662   54.4806 C   0  0  0  0  0  0  0  0  0  0  0  0
   28.0938    9.0142   54.3945 C   0  0  0  0  0  0  0  0  0  0  0  0
   28.7147    9.1152   53.1784 C   0  0  0  0  0  0  0  0  0  0  0  0
   28.0063    8.8731   52.0227 C   0  0  0  0  0  0  0  0  0  0  0  0
   26.6823    8.5299   52.0551 C   0  0  0  0  0  0  0  0  0  0  0  0
   26.0758    8.4344   53.3081 C   0  0  0  0  0  0  0  0  0  0  0  0
  1  2  1  0  0  0
  2  3  1  0  0  0
  3  4  1  0  0  0
  4  5  1  0  0  0
  5  6  1  0  0  0
  6 19  1  0  0  0
 19 20  1  0  0  0
 20 21  1  0  0  0
 21 22  2  0  0  0
 22 23  1  0  0  0
 23 24  2  0  0  0
 24 25  1  0  0  0
 25 26  2  0  0  0
 20 27  1  0  0  0
 27 28  2  0  0  0
 28 29  1  0  0  0
 29 30  2  0  0  0
 30 31  1  0  0  0
 31 32  2  0  0  0
  4  7  1  0  0  0
  7  8  1  0  0  0
  7 11  1  0  0  0
 11 12  1  0  0  0
 11 13  2  0  0  0
  2 15  1  0  0  0
 15 16  1  0  0  0
 15 17  2  0  0  0
  6  2  1  0  0  0
 26 21  1  0  0  0
 32 27  1  0  0  0
  7  3  1  0  0  0
  1  9  1  0  0  0
  1 10  1  0  0  0
 12 14  1  0  0  0
 16 18  1  0  0  0
M  END
> <minimizedAffinity>
16.15199

> <CNNscore>
0.4774115980

> <CNNaffinity>
5.8606004715

> <CNN_VS>
2.7979185581

> <CNNaffinity_variance>
0.1521348655

$$$$
[H]OC(=O)[C@@]1(F)[C@]2([H])C([H])([H])[C@@]([H])(OC([H])(c3c([H])c([H])c([H])c([H])c3[H])c3c([H])c([H])c([H])c([H])c3[H])[C@](C(=O)O[H])(N([H])[H])[C@]12[H]


 32 35  0  0  0  0  0  0  0  0999 V2000
   27.4976    6.8254   54.1656 N   0  0  0  0  0  0  0  0  0  0  0  0
   26.9736    8.1749   54.2699 C   0  0  0  0  0  0  0  0  0  0  0  0
   27.4941    8.9071   55.4657 C   0  0  0  0  0  0  0  0  0  0  0  0
   26.4156    9.8400   55.8273 C   0  0  0  0  0  0  0  0  0  0  0  0
   25.1727    9.4796   55.0854 C   0  0  0  0  0  0  0  0  0  0  0  0
   25.4704    8.2048   54.3404 C   0  0  0  0  0  0  0  0  0  0  0  0
   26.8836    8.7759   56.8048 C   0  0  0  0  0  0  0  0  0  0  0  0
   26.0222    7.7322   57.0851 F   0  0  0  0  0  0  0  0  0  0  0  0
   26.8658    6.1172   54.6083 H   0  0  0  0  0  0  0  0  0  0  0  0
   27.6446    6.6010   53.1392 H   0  0  0  0  0  0  0  0  0  0  0  0
   27.6704    9.3149   57.9301 C   0  0  0  0  0  0  0  0  0  0  0  0
   28.2911   10.5393   57.8055 O   0  0  0  0  0  0  0  0  0  0  0  0
   27.7849    8.6793   58.9990 O   0  0  0  0  0  0  0  0  0  0  0  0
   27.9395   11.3462   58.3396 H   0  0  0  0  0  0  0  0  0  0  0  0
   27.3810    8.9326   53.0631 C   0  0  0  0  0  0  0  0  0  0  0  0
   28.4348    9.8216   53.1779 O   0  0  0  0  0  0  0  0  0  0  0  0
   26.8027    8.7844   51.9734 O   0  0  0  0  0  0  0  0  0  0  0  0
   29.3965    9.5390   53.2111 H   0  0  0  0  0  0  0  0  0  0  0  0
   24.9577    8.3139   53.0322 O   0  0  0  0  0  0  0  0  0  0  0  0
   23.8091    7.5449   52.8774 C   0  0  0  0  0  0  0  0  0  0  0  0
   22.6375    8.3035   52.3963 C   0  0  0  0  0  0  0  0  0  0  0  0
   21.6604    7.6661   51.6617 C   0  0  0  0  0  0  0  0  0  0  0  0
   20.5510    8.3730   51.1984 C   0  0  0  0  0  0  0  0  0  0  0  0
   20.4129    9.7264   51.4689 C   0  0  0  0  0  0  0  0  0  0  0  0
   21.3747   10.3566   52.1927 C   0  0  0  0  0  0  0  0  0  0  0  0
   22.4650    9.6432   52.6430 C   0  0  0  0  0  0  0  0  0  0  0  0
   23.4736    6.9207   54.1792 C   0  0  0  0  0  0  0  0  0  0  0  0
   22.4987    7.4746   55.0167 C   0  0  0  0  0  0  0  0  0  0  0  0
   22.1912    6.8894   56.2157 C   0  0  0  0  0  0  0  0  0  0  0  0
   22.8444    5.7427   56.6085 C   0  0  0  0  0  0  0  0  0  0  0  0
   23.8047    5.1635   55.8248 C   0  0  0  0  0  0  0  0  0  0  0  0
   24.0974    5.7815   54.6085 C   0  0  0  0  0  0  0  0  0  0  0  0
  1  2  1  0  0  0
  2  3  1  0  0  0
  3  4  1  0  0  0
  4  5  1  0  0  0
  5  6  1  0  0  0
  6 19  1  0  0  0
 19 20  1  0  0  0
 20 21  1  0  0  0
 21 22  2  0  0  0
 22 23  1  0  0  0
 23 24  2  0  0  0
 24 25  1  0  0  0
 25 26  2  0  0  0
 20 27  1  0  0  0
 27 28  2  0  0  0
 28 29  1  0  0  0
 29 30  2  0  0  0
 30 31  1  0  0  0
 31 32  2  0  0  0
  4  7  1  0  0  0
  7  8  1  0  0  0
  7 11  1  0  0  0
 11 12  1  0  0  0
 11 13  2  0  0  0
  2 15  1  0  0  0
 15 16  1  0  0  0
 15 17  2  0  0  0
  6  2  1  0  0  0
 26 21  1  0  0  0
 32 27  1  0  0  0
  7  3  1  0  0  0
  1  9  1  0  0  0
  1 10  1  0  0  0
 12 14  1  0  0  0
 16 18  1  0  0  0
M  END
> <minimizedAffinity>
21.95289

> <CNNscore>
0.4721769691

> <CNNaffinity>
5.4699950218

> <CNN_VS>
2.5828056335

> <CNNaffinity_variance>
0.2651880682

$$$$
[H]OC(=O)C(N([H])[H])(C([H])([H])C1([H])c2c([H])c([H])c([H])c([H])c2Oc2c([H])c([H])c([H])c([H])c21)[C@]1([H])[C@@]([H])(C(=O)O[H])[C@@]1([H])C([H])([H])C([H])([H])[H]


 32 35  0  0  0  0  0  0  0  0999 V2000
   22.1552   10.2656   55.1523 C   0  0  0  0  0  0  0  0  0  0  0  0
   22.0588   11.5566   55.9342 N   0  0  0  0  0  0  0  0  0  0  0  0
   22.3363   11.2874   56.8923 H   0  0  0  0  0  0  0  0  0  0  0  0
   22.7393   12.2090   55.5410 H   0  0  0  0  0  0  0  0  0  0  0  0
   20.7971    9.6373   55.4196 C   0  0  0  0  0  0  0  0  0  0  0  0
   20.4289    8.3966   55.0073 O   0  0  0  0  0  0  0  0  0  0  0  0
   19.9832   10.3411   56.0690 O   0  0  0  0  0  0  0  0  0  0  0  0
   19.7267    8.2203   54.3119 H   0  0  0  0  0  0  0  0  0  0  0  0
   21.1247    9.7522   52.9460 C   0  0  0  0  0  0  0  0  0  0  0  0
   21.1412   11.2260   52.9090 C   0  0  0  0  0  0  0  0  0  0  0  0
   22.1614   10.6136   53.7391 C   0  0  0  0  0  0  0  0  0  0  0  0
   21.6293   11.9857   51.7184 C   0  0  0  0  0  0  0  0  0  0  0  0
   21.1574   11.5984   50.4614 O   0  0  0  0  0  0  0  0  0  0  0  0
   22.4319   12.9338   51.8366 O   0  0  0  0  0  0  0  0  0  0  0  0
   21.4551   11.9877   49.5992 H   0  0  0  0  0  0  0  0  0  0  0  0
   20.7821    7.9552   51.2054 C   0  0  0  0  0  0  0  0  0  0  0  0
   21.7186    8.8493   51.9423 C   0  0  0  0  0  0  0  0  0  0  0  0
   23.1764    9.4107   55.8166 C   0  0  0  0  0  0  0  0  0  0  0  0
   23.9723    8.4253   55.1261 C   0  0  0  0  0  0  0  0  0  0  0  0
   23.5279    7.2406   54.4319 C   0  0  0  0  0  0  0  0  0  0  0  0
   22.2155    6.7878   54.4514 C   0  0  0  0  0  0  0  0  0  0  0  0
   21.7849    5.7745   53.6426 C   0  0  0  0  0  0  0  0  0  0  0  0
   22.6261    5.1434   52.7666 C   0  0  0  0  0  0  0  0  0  0  0  0
   23.9196    5.5723   52.7452 C   0  0  0  0  0  0  0  0  0  0  0  0
   24.4007    6.6126   53.5687 C   0  0  0  0  0  0  0  0  0  0  0  0
   25.7604    6.8912   53.4587 O   0  0  0  0  0  0  0  0  0  0  0  0
   26.2661    7.8706   54.3050 C   0  0  0  0  0  0  0  0  0  0  0  0
   27.6343    8.1518   54.2625 C   0  0  0  0  0  0  0  0  0  0  0  0
   28.2291    9.0674   55.0761 C   0  0  0  0  0  0  0  0  0  0  0  0
   27.4377    9.7295   55.9667 C   0  0  0  0  0  0  0  0  0  0  0  0
   26.0857    9.4658   56.0177 C   0  0  0  0  0  0  0  0  0  0  0  0
   25.4659    8.5469   55.1986 C   0  0  0  0  0  0  0  0  0  0  0  0
 16 17  1  0  0  0
 17  9  1  0  0  0
  9 10  1  0  0  0
 10 11  1  0  0  0
 11  1  1  0  0  0
  1  2  1  0  0  0
  1 18  1  0  0  0
 18 19  1  0  0  0
 19 20  1  0  0  0
 20 21  2  0  0  0
 21 22  1  0  0  0
 22 23  2  0  0  0
 23 24  1  0  0  0
 24 25  2  0  0  0
 25 26  1  0  0  0
 26 27  1  0  0  0
 27 28  2  0  0  0
 28 29  1  0  0  0
 29 30  2  0  0  0
 30 31  1  0  0  0
 31 32  2  0  0  0
  1  5  1  0  0  0
  5  6  1  0  0  0
  5  7  2  0  0  0
 10 12  1  0  0  0
 12 13  1  0  0  0
 12 14  2  0  0  0
 11  9  1  0  0  0
 32 19  1  0  0  0
 25 20  1  0  0  0
 32 27  1  0  0  0
  2  3  1  0  0  0
  2  4  1  0  0  0
  6  8  1  0  0  0
 13 15  1  0  0  0
M  END
> <minimizedAffinity>
12.26182

> <CNNscore>
0.6528201103

> <CNNaffinity>
6.5461072922

> <CNN_VS>
4.2734303474

> <CNNaffinity_variance>
0.2538372874

$$$$
[H]OC(=O)C(N([H])[H])(C([H])([H])C1([H])c2c([H])c([H])c([H])c([H])c2Oc2c([H])c([H])c([H])c([H])c21)[C@]1([H])[C@@]([H])(C(=O)O[H])[C@@]1([H])C([H])([H])C([H])([H])[H]


 32 35  0  0  0  0  0  0  0  0999 V2000
   22.0757    9.4915   55.3548 C   0  0  0  0  0  0  0  0  0  0  0  0
   21.3817   10.5954   56.1211 N   0  0  0  0  0  0  0  0  0  0  0  0
   21.7574   10.5059   57.0794 H   0  0  0  0  0  0  0  0  0  0  0  0
   21.6700   11.4857   55.7119 H   0  0  0  0  0  0  0  0  0  0  0  0
   21.1790    8.2990   55.6455 C   0  0  0  0  0  0  0  0  0  0  0  0
   19.8437    8.2627   55.3999 O   0  0  0  0  0  0  0  0  0  0  0  0
   21.7441    7.2948   56.1472 O   0  0  0  0  0  0  0  0  0  0  0  0
   19.1408    8.2290   56.1159 H   0  0  0  0  0  0  0  0  0  0  0  0
   20.5099    9.3015   53.4299 C   0  0  0  0  0  0  0  0  0  0  0  0
   21.0045   10.6789   53.2511 C   0  0  0  0  0  0  0  0  0  0  0  0
   21.9106    9.7773   53.9372 C   0  0  0  0  0  0  0  0  0  0  0  0
   21.4647   11.1923   51.9254 C   0  0  0  0  0  0  0  0  0  0  0  0
   21.4344   10.3119   50.8407 O   0  0  0  0  0  0  0  0  0  0  0  0
   21.8645   12.3661   51.7861 O   0  0  0  0  0  0  0  0  0  0  0  0
   21.7692   10.5211   49.9309 H   0  0  0  0  0  0  0  0  0  0  0  0
   19.6903    7.0360   52.6737 C   0  0  0  0  0  0  0  0  0  0  0  0
   20.5562    8.2225   52.4254 C   0  0  0  0  0  0  0  0  0  0  0  0
   23.3828    9.2341   56.0183 C   0  0  0  0  0  0  0  0  0  0  0  0
   24.5424    8.7143   55.3356 C   0  0  0  0  0  0  0  0  0  0  0  0
   25.9301    9.0546   55.5393 C   0  0  0  0  0  0  0  0  0  0  0  0
   26.3527   10.0846   56.3689 C   0  0  0  0  0  0  0  0  0  0  0  0
   27.6689   10.2678   56.6862 C   0  0  0  0  0  0  0  0  0  0  0  0
   28.6494    9.4460   56.2002 C   0  0  0  0  0  0  0  0  0  0  0  0
   28.2481    8.4368   55.3766 C   0  0  0  0  0  0  0  0  0  0  0  0
   26.8990    8.2199   55.0238 C   0  0  0  0  0  0  0  0  0  0  0  0
   26.6676    7.1769   54.1310 O   0  0  0  0  0  0  0  0  0  0  0  0
   25.3529    6.9857   53.7235 C   0  0  0  0  0  0  0  0  0  0  0  0
   25.0793    5.9801   52.7926 C   0  0  0  0  0  0  0  0  0  0  0  0
   23.8305    5.7395   52.3059 C   0  0  0  0  0  0  0  0  0  0  0  0
   22.8137    6.5263   52.7586 C   0  0  0  0  0  0  0  0  0  0  0  0
   23.0674    7.5197   53.6798 C   0  0  0  0  0  0  0  0  0  0  0  0
   24.3233    7.7738   54.1874 C   0  0  0  0  0  0  0  0  0  0  0  0
 16 17  1  0  0  0
 17  9  1  0  0  0
  9 10  1  0  0  0
 10 11  1  0  0  0
 11  1  1  0  0  0
  1  2  1  0  0  0
  1 18  1  0  0  0
 18 19  1  0  0  0
 19 20  1  0  0  0
 20 21  2  0  0  0
 21 22  1  0  0  0
 22 23  2  0  0  0
 23 24  1  0  0  0
 24 25  2  0  0  0
 25 26  1  0  0  0
 26 27  1  0  0  0
 27 28  2  0  0  0
 28 29  1  0  0  0
 29 30  2  0  0  0
 30 31  1  0  0  0
 31 32  2  0  0  0
  1  5  1  0  0  0
  5  6  1  0  0  0
  5  7  2  0  0  0
 10 12  1  0  0  0
 12 13  1  0  0  0
 12 14  2  0  0  0
 11  9  1  0  0  0
 32 19  1  0  0  0
 25 20  1  0  0  0
 32 27  1  0  0  0
  2  3  1  0  0  0
  2  4  1  0  0  0
  6  8  1  0  0  0
 13 15  1  0  0  0
M  END
> <minimizedAffinity>
14.66838

> <CNNscore>
0.6459499598

> <CNNaffinity>
6.2967972755

> <CNN_VS>
4.0674157143

> <CNNaffinity_variance>
0.3761990070

$$$$
[H]OC(=O)C(N([H])[H])(C([H])([H])C1([H])c2c([H])c([H])c([H])c([H])c2Oc2c([H])c([H])c([H])c([H])c21)[C@]1([H])[C@@]([H])(C(=O)O[H])[C@@]1([H])C([H])([H])C([H])([H])[H]


 32 35  0  0  0  0  0  0  0  0999 V2000
   22.8068    7.1259   52.6396 C   0  0  0  0  0  0  0  0  0  0  0  0
   23.0349    5.8765   51.8185 N   0  0  0  0  0  0  0  0  0  0  0  0
   23.8159    6.1308   51.1919 H   0  0  0  0  0  0  0  0  0  0  0  0
   23.3240    5.1338   52.4574 H   0  0  0  0  0  0  0  0  0  0  0  0
   21.8833    7.9277   51.7369 C   0  0  0  0  0  0  0  0  0  0  0  0
   21.0107    7.3828   50.8502 O   0  0  0  0  0  0  0  0  0  0  0  0
   21.9580    9.1777   51.8441 O   0  0  0  0  0  0  0  0  0  0  0  0
   21.1004    7.4595   49.8532 H   0  0  0  0  0  0  0  0  0  0  0  0
   21.5426    5.2562   53.6880 C   0  0  0  0  0  0  0  0  0  0  0  0
   22.2636    5.7937   54.8562 C   0  0  0  0  0  0  0  0  0  0  0  0
   22.0046    6.7465   53.7933 C   0  0  0  0  0  0  0  0  0  0  0  0
   21.5810    6.0584   56.1588 C   0  0  0  0  0  0  0  0  0  0  0  0
   21.5934    5.0423   57.1180 O   0  0  0  0  0  0  0  0  0  0  0  0
   21.0164    7.1475   56.3873 O   0  0  0  0  0  0  0  0  0  0  0  0
   21.1250    5.0810   57.9913 H   0  0  0  0  0  0  0  0  0  0  0  0
   19.5973    3.6877   53.3246 C   0  0  0  0  0  0  0  0  0  0  0  0
   20.0834    5.0737   53.5737 C   0  0  0  0  0  0  0  0  0  0  0  0
   24.0995    7.8597   52.7136 C   0  0  0  0  0  0  0  0  0  0  0  0
   24.6149    8.4605   53.9196 C   0  0  0  0  0  0  0  0  0  0  0  0
   25.9556    8.3978   54.4501 C   0  0  0  0  0  0  0  0  0  0  0  0
   26.9539    7.5935   53.9170 C   0  0  0  0  0  0  0  0  0  0  0  0
   28.2559    7.6887   54.3200 C   0  0  0  0  0  0  0  0  0  0  0  0
   28.6511    8.5828   55.2779 C   0  0  0  0  0  0  0  0  0  0  0  0
   27.6784    9.3713   55.8161 C   0  0  0  0  0  0  0  0  0  0  0  0
   26.3235    9.2979   55.4277 C   0  0  0  0  0  0  0  0  0  0  0  0
   25.4512   10.1380   56.1146 O   0  0  0  0  0  0  0  0  0  0  0  0
   24.1038   10.0371   55.7896 C   0  0  0  0  0  0  0  0  0  0  0  0
   23.1855   10.8278   56.4856 C   0  0  0  0  0  0  0  0  0  0  0  0
   21.8430   10.7742   56.2646 C   0  0  0  0  0  0  0  0  0  0  0  0
   21.3930    9.9030   55.3178 C   0  0  0  0  0  0  0  0  0  0  0  0
   22.2870    9.1193   54.6204 C   0  0  0  0  0  0  0  0  0  0  0  0
   23.6490    9.1641   54.8267 C   0  0  0  0  0  0  0  0  0  0  0  0
 16 17  1  0  0  0
 17  9  1  0  0  0
  9 10  1  0  0  0
 10 11  1  0  0  0
 11  1  1  0  0  0
  1  2  1  0  0  0
  1 18  1  0  0  0
 18 19  1  0  0  0
 19 20  1  0  0  0
 20 21  2  0  0  0
 21 22  1  0  0  0
 22 23  2  0  0  0
 23 24  1  0  0  0
 24 25  2  0  0  0
 25 26  1  0  0  0
 26 27  1  0  0  0
 27 28  2  0  0  0
 28 29  1  0  0  0
 29 30  2  0  0  0
 30 31  1  0  0  0
 31 32  2  0  0  0
  1  5  1  0  0  0
  5  6  1  0  0  0
  5  7  2  0  0  0
 10 12  1  0  0  0
 12 13  1  0  0  0
 12 14  2  0  0  0
 11  9  1  0  0  0
 32 19  1  0  0  0
 25 20  1  0  0  0
 32 27  1  0  0  0
  2  3  1  0  0  0
  2  4  1  0  0  0
  6  8  1  0  0  0
 13 15  1  0  0  0
M  END
> <minimizedAffinity>
19.05550

> <CNNscore>
0.5661676526

> <CNNaffinity>
6.3566479683

> <CNN_VS>
3.5989284515

> <CNNaffinity_variance>
0.5287538767

$$$$
[H]OC(=O)C(N([H])[H])(C([H])([H])C1([H])c2c([H])c([H])c([H])c([H])c2Oc2c([H])c([H])c([H])c([H])c21)[C@]1([H])[C@@]([H])(C(=O)O[H])[C@@]1([H])C([H])([H])C([H])([H])[H]


 32 35  0  0  0  0  0  0  0  0999 V2000
   22.1201    7.4434   51.7677 C   0  0  0  0  0  0  0  0  0  0  0  0
   22.3018    6.8799   50.3759 N   0  0  0  0  0  0  0  0  0  0  0  0
   22.9596    7.5375   49.9263 H   0  0  0  0  0  0  0  0  0  0  0  0
   22.7331    5.9587   50.4681 H   0  0  0  0  0  0  0  0  0  0  0  0
   21.0191    8.4680   51.5478 C   0  0  0  0  0  0  0  0  0  0  0  0
   19.7040    8.1637   51.3973 O   0  0  0  0  0  0  0  0  0  0  0  0
   21.3854    9.6696   51.5078 O   0  0  0  0  0  0  0  0  0  0  0  0
   19.1922    8.2878   50.5426 H   0  0  0  0  0  0  0  0  0  0  0  0
   21.4737    6.8236   54.0896 C   0  0  0  0  0  0  0  0  0  0  0  0
   20.2903    6.3645   53.3396 C   0  0  0  0  0  0  0  0  0  0  0  0
   21.5301    6.3948   52.5867 C   0  0  0  0  0  0  0  0  0  0  0  0
   19.6850    5.0159   53.5578 C   0  0  0  0  0  0  0  0  0  0  0  0
   18.3487    4.9604   53.9627 O   0  0  0  0  0  0  0  0  0  0  0  0
   20.3459    3.9714   53.3868 O   0  0  0  0  0  0  0  0  0  0  0  0
   17.8603    4.1289   54.1942 H   0  0  0  0  0  0  0  0  0  0  0  0
   23.7177    5.7753   54.5808 C   0  0  0  0  0  0  0  0  0  0  0  0
   22.3043    6.0044   54.9920 C   0  0  0  0  0  0  0  0  0  0  0  0
   23.3580    8.1923   52.1166 C   0  0  0  0  0  0  0  0  0  0  0  0
   23.6063    8.7757   53.4124 C   0  0  0  0  0  0  0  0  0  0  0  0
   22.6835    9.4793   54.2704 C   0  0  0  0  0  0  0  0  0  0  0  0
   21.3964    9.8311   53.8866 C   0  0  0  0  0  0  0  0  0  0  0  0
   20.4851   10.3305   54.7736 C   0  0  0  0  0  0  0  0  0  0  0  0
   20.7909   10.5163   56.0945 C   0  0  0  0  0  0  0  0  0  0  0  0
   22.0547   10.1839   56.4817 C   0  0  0  0  0  0  0  0  0  0  0  0
   23.0232    9.6698   55.5931 C   0  0  0  0  0  0  0  0  0  0  0  0
   24.2808    9.4317   56.1411 O   0  0  0  0  0  0  0  0  0  0  0  0
   25.2656    8.9832   55.2692 C   0  0  0  0  0  0  0  0  0  0  0  0
   26.5553    8.7747   55.7649 C   0  0  0  0  0  0  0  0  0  0  0  0
   27.5945    8.3711   54.9830 C   0  0  0  0  0  0  0  0  0  0  0  0
   27.3460    8.1668   53.6584 C   0  0  0  0  0  0  0  0  0  0  0  0
   26.0780    8.3645   53.1555 C   0  0  0  0  0  0  0  0  0  0  0  0
   25.0135    8.7674   53.9327 C   0  0  0  0  0  0  0  0  0  0  0  0
 16 17  1  0  0  0
 17  9  1  0  0  0
  9 10  1  0  0  0
 10 11  1  0  0  0
 11  1  1  0  0  0
  1  2  1  0  0  0
  1 18  1  0  0  0
 18 19  1  0  0  0
 19 20  1  0  0  0
 20 21  2  0  0  0
 21 22  1  0  0  0
 22 23  2  0  0  0
 23 24  1  0  0  0
 24 25  2  0  0  0
 25 26  1  0  0  0
 26 27  1  0  0  0
 27 28  2  0  0  0
 28 29  1  0  0  0
 29 30  2  0  0  0
 30 31  1  0  0  0
 31 32  2  0  0  0
  1  5  1  0  0  0
  5  6  1  0  0  0
  5  7  2  0  0  0
 10 12  1  0  0  0
 12 13  1  0  0  0
 12 14  2  0  0  0
 11  9  1  0  0  0
 32 19  1  0  0  0
 25 20  1  0  0  0
 32 27  1  0  0  0
  2  3  1  0  0  0
  2  4  1  0  0  0
  6  8  1  0  0  0
 13 15  1  0  0  0
M  END
> <minimizedAffinity>
15.65424

> <CNNscore>
0.5510678291

> <CNNaffinity>
6.6659507751

> <CNN_VS>
3.6733911037

> <CNNaffinity_variance>
0.5730322003

$$$$
[H]OC(=O)C(N([H])[H])(C([H])([H])C1([H])c2c([H])c([H])c([H])c([H])c2Oc2c([H])c([H])c([H])c([H])c21)[C@]1([H])[C@@]([H])(C(=O)O[H])[C@@]1([H])C([H])([H])C([H])([H])[H]


 32 35  0  0  0  0  0  0  0  0999 V2000
   22.1437   10.2097   55.1773 C   0  0  0  0  0  0  0  0  0  0  0  0
   22.1953   11.4704   56.0112 N   0  0  0  0  0  0  0  0  0  0  0  0
   22.4509   11.1337   56.9539 H   0  0  0  0  0  0  0  0  0  0  0  0
   22.9387   12.0611   55.6350 H   0  0  0  0  0  0  0  0  0  0  0  0
   20.7281    9.7213   55.4380 C   0  0  0  0  0  0  0  0  0  0  0  0
   20.2536    8.5041   55.0664 O   0  0  0  0  0  0  0  0  0  0  0  0
   19.9713   10.5235   56.0408 O   0  0  0  0  0  0  0  0  0  0  0  0
   19.5512    8.3651   54.3626 H   0  0  0  0  0  0  0  0  0  0  0  0
   21.1196    9.8157   52.9436 C   0  0  0  0  0  0  0  0  0  0  0  0
   21.1814   11.2887   52.9652 C   0  0  0  0  0  0  0  0  0  0  0  0
   22.1743   10.6129   53.7791 C   0  0  0  0  0  0  0  0  0  0  0  0
   21.7040   12.0793   51.8100 C   0  0  0  0  0  0  0  0  0  0  0  0
   21.2156   11.7719   50.5373 O   0  0  0  0  0  0  0  0  0  0  0  0
   22.5487   12.9836   51.9702 O   0  0  0  0  0  0  0  0  0  0  0  0
   21.5310   12.1865   49.6934 H   0  0  0  0  0  0  0  0  0  0  0  0
   20.7399    8.0957   51.1344 C   0  0  0  0  0  0  0  0  0  0  0  0
   21.6954    8.9353   51.9099 C   0  0  0  0  0  0  0  0  0  0  0  0
   23.0725    9.2231   55.7928 C   0  0  0  0  0  0  0  0  0  0  0  0
   23.9534    8.3675   55.0358 C   0  0  0  0  0  0  0  0  0  0  0  0
   25.3794    8.4889   54.8498 C   0  0  0  0  0  0  0  0  0  0  0  0
   26.1185    9.5816   55.2828 C   0  0  0  0  0  0  0  0  0  0  0  0
   27.4844    9.5899   55.2589 C   0  0  0  0  0  0  0  0  0  0  0  0
   28.2046    8.5195   54.8020 C   0  0  0  0  0  0  0  0  0  0  0  0
   27.4901    7.4443   54.3648 C   0  0  0  0  0  0  0  0  0  0  0  0
   26.0795    7.4018   54.3707 C   0  0  0  0  0  0  0  0  0  0  0  0
   25.5070    6.2486   53.8409 O   0  0  0  0  0  0  0  0  0  0  0  0
   24.1191    6.2128   53.7814 C   0  0  0  0  0  0  0  0  0  0  0  0
   23.5012    5.0946   53.2150 C   0  0  0  0  0  0  0  0  0  0  0  0
   22.1509    4.9823   53.0794 C   0  0  0  0  0  0  0  0  0  0  0  0
   21.3834    6.0183   53.5215 C   0  0  0  0  0  0  0  0  0  0  0  0
   21.9782    7.1262   54.0859 C   0  0  0  0  0  0  0  0  0  0  0  0
   23.3422    7.2548   54.2363 C   0  0  0  0  0  0  0  0  0  0  0  0
 16 17  1  0  0  0
 17  9  1  0  0  0
  9 10  1  0  0  0
 10 11  1  0  0  0
 11  1  1  0  0  0
  1  2  1  0  0  0
  1 18  1  0  0  0
 18 19  1  0  0  0
 19 20  1  0  0  0
 20 21  2  0  0  0
 21 22  1  0  0  0
 22 23  2  0  0  0
 23 24  1  0  0  0
 24 25  2  0  0  0
 25 26  1  0  0  0
 26 27  1  0  0  0
 27 28  2  0  0  0
 28 29  1  0  0  0
 29 30  2  0  0  0
 30 31  1  0  0  0
 31 32  2  0  0  0
  1  5  1  0  0  0
  5  6  1  0  0  0
  5  7  2  0  0  0
 10 12  1  0  0  0
 12 13  1  0  0  0
 12 14  2  0  0  0
 11  9  1  0  0  0
 32 19  1  0  0  0
 25 20  1  0  0  0
 32 27  1  0  0  0
  2  3  1  0  0  0
  2  4  1  0  0  0
  6  8  1  0  0  0
 13 15  1  0  0  0
M  END
> <minimizedAffinity>
15.28201

> <CNNscore>
0.5466920733

> <CNNaffinity>
6.3961458206

> <CNN_VS>
3.4967222214

> <CNNaffinity_variance>
0.2927389145

$$$$
[H]OC(=O)C(N([H])[H])(C([H])([H])C1([H])c2c([H])c([H])c([H])c([H])c2Oc2c([H])c([H])c([H])c([H])c21)[C@]1([H])[C@@]([H])(C(=O)O[H])[C@@]1([H])C([H])([H])C([H])([H])[H]


 32 35  0  0  0  0  0  0  0  0999 V2000
   21.9781    7.7024   51.5921 C   0  0  0  0  0  0  0  0  0  0  0  0
   22.1582    7.2977   50.1460 N   0  0  0  0  0  0  0  0  0  0  0  0
   22.7301    8.0590   49.7450 H   0  0  0  0  0  0  0  0  0  0  0  0
   22.6809    6.4203   50.1322 H   0  0  0  0  0  0  0  0  0  0  0  0
   20.7743    8.6267   51.5094 C   0  0  0  0  0  0  0  0  0  0  0  0
   20.8477    9.9810   51.4370 O   0  0  0  0  0  0  0  0  0  0  0  0
   19.6492    8.0666   51.5102 O   0  0  0  0  0  0  0  0  0  0  0  0
   20.5435   10.6006   52.1661 H   0  0  0  0  0  0  0  0  0  0  0  0
   22.0145    6.5634   53.8045 C   0  0  0  0  0  0  0  0  0  0  0  0
   20.5994    6.3928   53.4272 C   0  0  0  0  0  0  0  0  0  0  0  0
   21.5266    6.5251   52.3191 C   0  0  0  0  0  0  0  0  0  0  0  0
   19.8980    5.0787   53.5458 C   0  0  0  0  0  0  0  0  0  0  0  0
   18.5592    5.0898   53.9459 O   0  0  0  0  0  0  0  0  0  0  0  0
   20.4833    4.0048   53.2984 O   0  0  0  0  0  0  0  0  0  0  0  0
   18.0113    4.2807   54.1157 H   0  0  0  0  0  0  0  0  0  0  0  0
   23.7025    5.6515   55.4461 C   0  0  0  0  0  0  0  0  0  0  0  0
   22.9543    5.4865   54.1685 C   0  0  0  0  0  0  0  0  0  0  0  0
   23.1498    8.5355   51.9770 C   0  0  0  0  0  0  0  0  0  0  0  0
   23.5764    8.7421   53.3395 C   0  0  0  0  0  0  0  0  0  0  0  0
   24.8697    8.4793   53.9235 C   0  0  0  0  0  0  0  0  0  0  0  0
   25.8956    7.8276   53.2523 C   0  0  0  0  0  0  0  0  0  0  0  0
   27.1626    7.7541   53.7580 C   0  0  0  0  0  0  0  0  0  0  0  0
   27.4933    8.3174   54.9606 C   0  0  0  0  0  0  0  0  0  0  0  0
   26.4923    8.9517   55.6340 C   0  0  0  0  0  0  0  0  0  0  0  0
   25.1717    9.0438   55.1448 C   0  0  0  0  0  0  0  0  0  0  0  0
   24.2597    9.6805   55.9822 O   0  0  0  0  0  0  0  0  0  0  0  0
   22.9411    9.7277   55.5461 C   0  0  0  0  0  0  0  0  0  0  0  0
   21.9819   10.3163   56.3744 C   0  0  0  0  0  0  0  0  0  0  0  0
   20.6605   10.3784   56.0516 C   0  0  0  0  0  0  0  0  0  0  0  0
   20.2746    9.8357   54.8623 C   0  0  0  0  0  0  0  0  0  0  0  0
   21.2099    9.2551   54.0328 C   0  0  0  0  0  0  0  0  0  0  0  0
   22.5516    9.1881   54.3405 C   0  0  0  0  0  0  0  0  0  0  0  0
 16 17  1  0  0  0
 17  9  1  0  0  0
  9 10  1  0  0  0
 10 11  1  0  0  0
 11  1  1  0  0  0
  1  2  1  0  0  0
  1 18  1  0  0  0
 18 19  1  0  0  0
 19 20  1  0  0  0
 20 21  2  0  0  0
 21 22  1  0  0  0
 22 23  2  0  0  0
 23 24  1  0  0  0
 24 25  2  0  0  0
 25 26  1  0  0  0
 26 27  1  0  0  0
 27 28  2  0  0  0
 28 29  1  0  0  0
 29 30  2  0  0  0
 30 31  1  0  0  0
 31 32  2  0  0  0
  1  5  1  0  0  0
  5  6  1  0  0  0
  5  7  2  0  0  0
 10 12  1  0  0  0
 12 13  1  0  0  0
 12 14  2  0  0  0
 11  9  1  0  0  0
 32 19  1  0  0  0
 25 20  1  0  0  0
 32 27  1  0  0  0
  2  3  1  0  0  0
  2  4  1  0  0  0
  6  8  1  0  0  0
 13 15  1  0  0  0
M  END
> <minimizedAffinity>
16.52265

> <CNNscore>
0.5388710499

> <CNNaffinity>
6.6197347641

> <CNN_VS>
3.5671834946

> <CNNaffinity_variance>
0.5736749768

$$$$
[H]OC(=O)C(N([H])[H])(C([H])([H])C1([H])c2c([H])c([H])c([H])c([H])c2Oc2c([H])c([H])c([H])c([H])c21)[C@]1([H])[C@@]([H])(C(=O)O[H])[C@@]1([H])C([H])([H])C([H])([H])[H]


 32 35  0  0  0  0  0  0  0  0999 V2000
   22.5203    6.8213   52.7314 C   0  0  0  0  0  0  0  0  0  0  0  0
   22.9140    5.5478   52.0168 N   0  0  0  0  0  0  0  0  0  0  0  0
   23.6263    5.8563   51.3350 H   0  0  0  0  0  0  0  0  0  0  0  0
   23.3345    4.9224   52.7063 H   0  0  0  0  0  0  0  0  0  0  0  0
   21.4561    7.3833   51.8030 C   0  0  0  0  0  0  0  0  0  0  0  0
   21.6424    7.6329   50.4810 O   0  0  0  0  0  0  0  0  0  0  0  0
   20.3389    7.6221   52.3270 O   0  0  0  0  0  0  0  0  0  0  0  0
   21.6538    8.5525   50.0783 H   0  0  0  0  0  0  0  0  0  0  0  0
   21.5293    4.9013   53.9663 C   0  0  0  0  0  0  0  0  0  0  0  0
   22.2396    5.5957   55.0558 C   0  0  0  0  0  0  0  0  0  0  0  0
   21.8229    6.4373   53.9498 C   0  0  0  0  0  0  0  0  0  0  0  0
   21.5945    5.8739   56.3746 C   0  0  0  0  0  0  0  0  0  0  0  0
   21.4132    4.7995   57.2495 O   0  0  0  0  0  0  0  0  0  0  0  0
   21.2271    7.0243   56.6887 O   0  0  0  0  0  0  0  0  0  0  0  0
   20.9457    4.8518   58.1226 H   0  0  0  0  0  0  0  0  0  0  0  0
   19.7000    3.3966   53.0913 C   0  0  0  0  0  0  0  0  0  0  0  0
   20.0967    4.5511   53.9452 C   0  0  0  0  0  0  0  0  0  0  0  0
   23.6852    7.7462   52.6802 C   0  0  0  0  0  0  0  0  0  0  0  0
   24.0589    8.6288   53.7584 C   0  0  0  0  0  0  0  0  0  0  0  0
   23.2216    9.5378   54.5039 C   0  0  0  0  0  0  0  0  0  0  0  0
   21.8986    9.8037   54.1774 C   0  0  0  0  0  0  0  0  0  0  0  0
   21.0778   10.5218   55.0003 C   0  0  0  0  0  0  0  0  0  0  0  0
   21.5153   11.0247   56.1957 C   0  0  0  0  0  0  0  0  0  0  0  0
   22.8153   10.7787   56.5229 C   0  0  0  0  0  0  0  0  0  0  0  0
   23.6929   10.0450   55.6963 C   0  0  0  0  0  0  0  0  0  0  0  0
   25.0022    9.9305   56.1557 O   0  0  0  0  0  0  0  0  0  0  0  0
   25.8971    9.2641   55.3272 C   0  0  0  0  0  0  0  0  0  0  0  0
   27.2328    9.1648   55.7257 C   0  0  0  0  0  0  0  0  0  0  0  0
   28.1905    8.5634   54.9672 C   0  0  0  0  0  0  0  0  0  0  0  0
   27.8100    8.0409   53.7671 C   0  0  0  0  0  0  0  0  0  0  0  0
   26.4953    8.1277   53.3623 C   0  0  0  0  0  0  0  0  0  0  0  0
   25.5118    8.7275   54.1189 C   0  0  0  0  0  0  0  0  0  0  0  0
 16 17  1  0  0  0
 17  9  1  0  0  0
  9 10  1  0  0  0
 10 11  1  0  0  0
 11  1  1  0  0  0
  1  2  1  0  0  0
  1 18  1  0  0  0
 18 19  1  0  0  0
 19 20  1  0  0  0
 20 21  2  0  0  0
 21 22  1  0  0  0
 22 23  2  0  0  0
 23 24  1  0  0  0
 24 25  2  0  0  0
 25 26  1  0  0  0
 26 27  1  0  0  0
 27 28  2  0  0  0
 28 29  1  0  0  0
 29 30  2  0  0  0
 30 31  1  0  0  0
 31 32  2  0  0  0
  1  5  1  0  0  0
  5  6  1  0  0  0
  5  7  2  0  0  0
 10 12  1  0  0  0
 12 13  1  0  0  0
 12 14  2  0  0  0
 11  9  1  0  0  0
 32 19  1  0  0  0
 25 20  1  0  0  0
 32 27  1  0  0  0
  2  3  1  0  0  0
  2  4  1  0  0  0
  6  8  1  0  0  0
 13 15  1  0  0  0
M  END
> <minimizedAffinity>
22.46548

> <CNNscore>
0.5248517394

> <CNNaffinity>
6.4183211327

> <CNN_VS>
3.3686671257

> <CNNaffinity_variance>
0.4566727579

$$$$
[H]OC(=O)C(N([H])[H])(C([H])([H])C1([H])c2c([H])c([H])c([H])c([H])c2Oc2c([H])c([H])c([H])c([H])c21)[C@]1([H])[C@@]([H])(C(=O)O[H])[C@@]1([H])C([H])([H])C([H])([H])[H]


 32 35  0  0  0  0  0  0  0  0999 V2000
   21.3911    8.4152   52.2188 C   0  0  0  0  0  0  0  0  0  0  0  0
   20.5804    7.8714   53.3740 N   0  0  0  0  0  0  0  0  0  0  0  0
   20.9490    6.9155   53.5072 H   0  0  0  0  0  0  0  0  0  0  0  0
   20.7853    8.4449   54.1940 H   0  0  0  0  0  0  0  0  0  0  0  0
   20.6123    7.8974   51.0206 C   0  0  0  0  0  0  0  0  0  0  0  0
   21.1677    7.5707   49.8249 O   0  0  0  0  0  0  0  0  0  0  0  0
   19.3718    7.7750   51.1815 O   0  0  0  0  0  0  0  0  0  0  0  0
   21.0105    8.0796   48.9739 H   0  0  0  0  0  0  0  0  0  0  0  0
   22.0479   10.5291   53.3561 C   0  0  0  0  0  0  0  0  0  0  0  0
   22.1661   10.9263   51.9411 C   0  0  0  0  0  0  0  0  0  0  0  0
   21.2193    9.8605   52.2106 C   0  0  0  0  0  0  0  0  0  0  0  0
   21.5897   12.2040   51.4235 C   0  0  0  0  0  0  0  0  0  0  0  0
   20.8719   12.1555   50.2255 O   0  0  0  0  0  0  0  0  0  0  0  0
   21.7420   13.2808   52.0353 O   0  0  0  0  0  0  0  0  0  0  0  0
   20.4963   12.9449   49.7571 H   0  0  0  0  0  0  0  0  0  0  0  0
   21.0463   10.4814   55.6735 C   0  0  0  0  0  0  0  0  0  0  0  0
   21.2360   11.2051   54.3852 C   0  0  0  0  0  0  0  0  0  0  0  0
   22.7073    7.7206   52.2246 C   0  0  0  0  0  0  0  0  0  0  0  0
   23.4177    7.3542   53.4255 C   0  0  0  0  0  0  0  0  0  0  0  0
   22.9135    6.6694   54.5916 C   0  0  0  0  0  0  0  0  0  0  0  0
   21.5708    6.3754   54.7869 C   0  0  0  0  0  0  0  0  0  0  0  0
   21.1443    5.5697   55.8045 C   0  0  0  0  0  0  0  0  0  0  0  0
   22.0189    5.0075   56.6945 C   0  0  0  0  0  0  0  0  0  0  0  0
   23.3392    5.2966   56.5193 C   0  0  0  0  0  0  0  0  0  0  0  0
   23.8156    6.1276   55.4827 C   0  0  0  0  0  0  0  0  0  0  0  0
   25.1879    6.3622   55.4781 O   0  0  0  0  0  0  0  0  0  0  0  0
   25.6689    7.2268   54.5023 C   0  0  0  0  0  0  0  0  0  0  0  0
   27.0334    7.5282   54.4875 C   0  0  0  0  0  0  0  0  0  0  0  0
   27.5929    8.3907   53.5947 C   0  0  0  0  0  0  0  0  0  0  0  0
   26.7685    8.9777   52.6817 C   0  0  0  0  0  0  0  0  0  0  0  0
   25.4211    8.6872   52.6813 C   0  0  0  0  0  0  0  0  0  0  0  0
   24.8384    7.8131   53.5735 C   0  0  0  0  0  0  0  0  0  0  0  0
 16 17  1  0  0  0
 17  9  1  0  0  0
  9 10  1  0  0  0
 10 11  1  0  0  0
 11  1  1  0  0  0
  1  2  1  0  0  0
  1 18  1  0  0  0
 18 19  1  0  0  0
 19 20  1  0  0  0
 20 21  2  0  0  0
 21 22  1  0  0  0
 22 23  2  0  0  0
 23 24  1  0  0  0
 24 25  2  0  0  0
 25 26  1  0  0  0
 26 27  1  0  0  0
 27 28  2  0  0  0
 28 29  1  0  0  0
 29 30  2  0  0  0
 30 31  1  0  0  0
 31 32  2  0  0  0
  1  5  1  0  0  0
  5  6  1  0  0  0
  5  7  2  0  0  0
 10 12  1  0  0  0
 12 13  1  0  0  0
 12 14  2  0  0  0
 11  9  1  0  0  0
 32 19  1  0  0  0
 25 20  1  0  0  0
 32 27  1  0  0  0
  2  3  1  0  0  0
  2  4  1  0  0  0
  6  8  1  0  0  0
 13 15  1  0  0  0
M  END
> <minimizedAffinity>
20.77342

> <CNNscore>
0.5137111545

> <CNNaffinity>
6.4187188148

> <CNN_VS>
3.2973673344

> <CNNaffinity_variance>
0.5941686034

$$$$
[H]OC(=O)C(N([H])[H])(C([H])([H])C1([H])c2c([H])c([H])c([H])c([H])c2Oc2c([H])c([H])c([H])c([H])c21)[C@]1([H])[C@@]([H])(C(=O)O[H])[C@@]1([H])C([H])([H])C([H])([H])[H]


 32 35  0  0  0  0  0  0  0  0999 V2000
   23.1584    7.3106   52.5922 C   0  0  0  0  0  0  0  0  0  0  0  0
   23.3777    6.4941   51.3381 N   0  0  0  0  0  0  0  0  0  0  0  0
   22.4305    6.3955   50.9378 H   0  0  0  0  0  0  0  0  0  0  0  0
   23.9695    7.0417   50.7109 H   0  0  0  0  0  0  0  0  0  0  0  0
   22.7920    6.2364   53.6032 C   0  0  0  0  0  0  0  0  0  0  0  0
   21.5209    5.9183   53.9612 O   0  0  0  0  0  0  0  0  0  0  0  0
   23.7550    5.6197   54.1246 O   0  0  0  0  0  0  0  0  0  0  0  0
   21.1334    6.0893   54.8714 H   0  0  0  0  0  0  0  0  0  0  0  0
   24.6199    7.7345   54.5613 C   0  0  0  0  0  0  0  0  0  0  0  0
   25.5896    7.1522   53.6156 C   0  0  0  0  0  0  0  0  0  0  0  0
   24.4554    7.8231   53.0086 C   0  0  0  0  0  0  0  0  0  0  0  0
   26.9284    7.7686   53.3697 C   0  0  0  0  0  0  0  0  0  0  0  0
   28.0254    7.2349   54.0513 O   0  0  0  0  0  0  0  0  0  0  0  0
   27.0678    8.7282   52.5844 O   0  0  0  0  0  0  0  0  0  0  0  0
   28.9476    7.5975   54.0136 H   0  0  0  0  0  0  0  0  0  0  0  0
   25.9668    9.2589   56.0574 C   0  0  0  0  0  0  0  0  0  0  0  0
   24.7410    9.0385   55.2399 C   0  0  0  0  0  0  0  0  0  0  0  0
   21.9473    8.1489   52.3789 C   0  0  0  0  0  0  0  0  0  0  0  0
   21.7615    9.4557   52.9611 C   0  0  0  0  0  0  0  0  0  0  0  0
   21.6862   10.7324   52.2924 C   0  0  0  0  0  0  0  0  0  0  0  0
   21.9334   10.9034   50.9369 C   0  0  0  0  0  0  0  0  0  0  0  0
   21.6782   12.0822   50.2952 C   0  0  0  0  0  0  0  0  0  0  0  0
   21.1660   13.1665   50.9548 C   0  0  0  0  0  0  0  0  0  0  0  0
   20.9282   13.0143   52.2881 C   0  0  0  0  0  0  0  0  0  0  0  0
   21.1833   11.8137   52.9847 C   0  0  0  0  0  0  0  0  0  0  0  0
   20.9332   11.8442   54.3540 O   0  0  0  0  0  0  0  0  0  0  0  0
   21.2357   10.6912   55.0684 C   0  0  0  0  0  0  0  0  0  0  0  0
   21.0444   10.6910   56.4527 C   0  0  0  0  0  0  0  0  0  0  0  0
   21.3449    9.6235   57.2429 C   0  0  0  0  0  0  0  0  0  0  0  0
   21.8552    8.5137   56.6381 C   0  0  0  0  0  0  0  0  0  0  0  0
   22.0458    8.4976   55.2731 C   0  0  0  0  0  0  0  0  0  0  0  0
   21.7425    9.5661   54.4572 C   0  0  0  0  0  0  0  0  0  0  0  0
 16 17  1  0  0  0
 17  9  1  0  0  0
  9 10  1  0  0  0
 10 11  1  0  0  0
 11  1  1  0  0  0
  1  2  1  0  0  0
  1 18  1  0  0  0
 18 19  1  0  0  0
 19 20  1  0  0  0
 20 21  2  0  0  0
 21 22  1  0  0  0
 22 23  2  0  0  0
 23 24  1  0  0  0
 24 25  2  0  0  0
 25 26  1  0  0  0
 26 27  1  0  0  0
 27 28  2  0  0  0
 28 29  1  0  0  0
 29 30  2  0  0  0
 30 31  1  0  0  0
 31 32  2  0  0  0
  1  5  1  0  0  0
  5  6  1  0  0  0
  5  7  2  0  0  0
 10 12  1  0  0  0
 12 13  1  0  0  0
 12 14  2  0  0  0
 11  9  1  0  0  0
 32 19  1  0  0  0
 25 20  1  0  0  0
 32 27  1  0  0  0
  2  3  1  0  0  0
  2  4  1  0  0  0
  6  8  1  0  0  0
 13 15  1  0  0  0
M  END
> <minimizedAffinity>
26.43818

> <CNNscore>
0.5085774064

> <CNNaffinity>
6.1555657387

> <CNN_VS>
3.1305816174

> <CNNaffinity_variance>
0.4695333540

$$$$
[H]c1nc(C#N)c([H])c(C2=Nc3c([H])c([H])c(Br)c([H])c3N([H])C(=O)C2([H])[H])c1[H]


 22 24  0  0  0  0  0  0  0  0999 V2000
   18.9729    7.7359   50.5776 Br  0  0  0  0  0  0  0  0  0  0  0  0
   20.5583    7.9862   51.6043 C   0  0  0  0  0  0  0  0  0  0  0  0
   21.7453    7.3828   51.2409 C   0  0  0  0  0  0  0  0  0  0  0  0
   22.8540    7.6014   52.0213 C   0  0  0  0  0  0  0  0  0  0  0  0
   22.7809    8.4172   53.1587 C   0  0  0  0  0  0  0  0  0  0  0  0
   24.0198    8.5134   53.8176 N   0  0  0  0  0  0  0  0  0  0  0  0
   24.3765    8.9945   54.9298 C   0  0  0  0  0  0  0  0  0  0  0  0
   23.6333    9.6501   55.9852 C   0  0  0  0  0  0  0  0  0  0  0  0
   22.2618   10.0651   55.7084 C   0  0  0  0  0  0  0  0  0  0  0  0
   21.7875   10.7712   56.6725 O   0  0  0  0  0  0  0  0  0  0  0  0
   21.3741    9.8507   54.6198 N   0  0  0  0  0  0  0  0  0  0  0  0
   21.5652    9.0021   53.4838 C   0  0  0  0  0  0  0  0  0  0  0  0
   20.4607    8.7959   52.7227 C   0  0  0  0  0  0  0  0  0  0  0  0
   20.4689   10.3562   54.6195 H   0  0  0  0  0  0  0  0  0  0  0  0
   25.8239    8.8493   55.1780 C   0  0  0  0  0  0  0  0  0  0  0  0
   26.6304    8.2967   54.2162 C   0  0  0  0  0  0  0  0  0  0  0  0
   27.9867    8.1731   54.4867 C   0  0  0  0  0  0  0  0  0  0  0  0
   28.5166    8.5801   55.6594 N   0  0  0  0  0  0  0  0  0  0  0  0
   27.7471    9.1255   56.6196 C   0  0  0  0  0  0  0  0  0  0  0  0
   26.4052    9.2531   56.3646 C   0  0  0  0  0  0  0  0  0  0  0  0
   28.3138    9.5603   57.8725 C   0  0  0  0  0  0  0  0  0  0  0  0
   28.7691    9.9106   58.8918 N   0  0  0  0  0  0  0  0  0  0  0  0
  1  2  1  0  0  0
  2  3  2  0  0  0
  3  4  1  0  0  0
  4  5  2  0  0  0
  5  6  1  0  0  0
  6  7  2  0  0  0
  7  8  1  0  0  0
  8  9  1  0  0  0
  9 10  2  0  0  0
  9 11  1  0  0  0
 11 12  1  0  0  0
 12 13  2  0  0  0
  7 15  1  0  0  0
 15 16  2  0  0  0
 16 17  1  0  0  0
 17 18  2  0  0  0
 18 19  1  0  0  0
 19 20  2  0  0  0
 19 21  1  0  0  0
 21 22  3  0  0  0
 13  2  1  0  0  0
 20 15  1  0  0  0
 12  5  1  0  0  0
 11 14  1  0  0  0
M  END
> <minimizedAffinity>
14.36664

> <CNNscore>
0.6439269185

> <CNNaffinity>
5.6170248985

> <CNN_VS>
3.6169536114

> <CNNaffinity_variance>
0.2363741845

$$$$
[H]c1nc(C#N)c([H])c(C2=Nc3c([H])c([H])c(Br)c([H])c3N([H])C(=O)C2([H])[H])c1[H]


 22 24  0  0  0  0  0  0  0  0999 V2000
   19.6192   10.2274   50.5580 Br  0  0  0  0  0  0  0  0  0  0  0  0
   21.1969    9.7674   51.5220 C   0  0  0  0  0  0  0  0  0  0  0  0
   22.2395   10.6626   51.6515 C   0  0  0  0  0  0  0  0  0  0  0  0
   23.3505   10.2726   52.3583 C   0  0  0  0  0  0  0  0  0  0  0  0
   23.4229    8.9965   52.9336 C   0  0  0  0  0  0  0  0  0  0  0  0
   24.6380    8.7938   53.6126 N   0  0  0  0  0  0  0  0  0  0  0  0
   25.1854    7.7790   54.1283 C   0  0  0  0  0  0  0  0  0  0  0  0
   24.7672    6.3962   54.2247 C   0  0  0  0  0  0  0  0  0  0  0  0
   23.3866    6.0674   53.8847 C   0  0  0  0  0  0  0  0  0  0  0  0
   23.1179    4.8430   54.1704 O   0  0  0  0  0  0  0  0  0  0  0  0
   22.3141    6.8076   53.3183 N   0  0  0  0  0  0  0  0  0  0  0  0
   22.3495    8.1313   52.7763 C   0  0  0  0  0  0  0  0  0  0  0  0
   21.2447    8.5020   52.0808 C   0  0  0  0  0  0  0  0  0  0  0  0
   21.3791    6.3616   53.2780 H   0  0  0  0  0  0  0  0  0  0  0  0
   26.4936    8.0834   54.7394 C   0  0  0  0  0  0  0  0  0  0  0  0
   27.6199    7.4341   54.3027 C   0  0  0  0  0  0  0  0  0  0  0  0
   28.8326    7.7442   54.9037 C   0  0  0  0  0  0  0  0  0  0  0  0
   28.9213    8.6577   55.8933 N   0  0  0  0  0  0  0  0  0  0  0  0
   27.8314    9.3088   56.3400 C   0  0  0  0  0  0  0  0  0  0  0  0
   26.6270    9.0114   55.7544 C   0  0  0  0  0  0  0  0  0  0  0  0
   27.9267   10.2850   57.3975 C   0  0  0  0  0  0  0  0  0  0  0  0
   28.0098   11.0771   58.2545 N   0  0  0  0  0  0  0  0  0  0  0  0
  1  2  1  0  0  0
  2  3  2  0  0  0
  3  4  1  0  0  0
  4  5  2  0  0  0
  5  6  1  0  0  0
  6  7  2  0  0  0
  7  8  1  0  0  0
  8  9  1  0  0  0
  9 10  2  0  0  0
  9 11  1  0  0  0
 11 12  1  0  0  0
 12 13  2  0  0  0
  7 15  1  0  0  0
 15 16  2  0  0  0
 16 17  1  0  0  0
 17 18  2  0  0  0
 18 19  1  0  0  0
 19 20  2  0  0  0
 19 21  1  0  0  0
 21 22  3  0  0  0
 13  2  1  0  0  0
 20 15  1  0  0  0
 12  5  1  0  0  0
 11 14  1  0  0  0
M  END
> <minimizedAffinity>
24.14511

> <CNNscore>
0.6277176738

> <CNNaffinity>
5.7709484100

> <CNN_VS>
3.6225264072

> <CNNaffinity_variance>
0.3064618707

$$$$
[H]c1nc(C#N)c([H])c(C2=Nc3c([H])c([H])c(Br)c([H])c3N([H])C(=O)C2([H])[H])c1[H]


 22 24  0  0  0  0  0  0  0  0999 V2000
   18.3026    7.7157   53.3937 Br  0  0  0  0  0  0  0  0  0  0  0  0
   20.1785    7.8836   53.6818 C   0  0  0  0  0  0  0  0  0  0  0  0
   20.7197    9.0456   54.1938 C   0  0  0  0  0  0  0  0  0  0  0  0
   22.0791    9.1059   54.3790 C   0  0  0  0  0  0  0  0  0  0  0  0
   22.8961    8.0139   54.0555 C   0  0  0  0  0  0  0  0  0  0  0  0
   24.2528    8.2757   54.3186 N   0  0  0  0  0  0  0  0  0  0  0  0
   25.3237    7.6636   54.0466 C   0  0  0  0  0  0  0  0  0  0  0  0
   25.5798    6.4250   53.3420 C   0  0  0  0  0  0  0  0  0  0  0  0
   24.4480    5.5522   53.0467 C   0  0  0  0  0  0  0  0  0  0  0  0
   24.8433    4.4263   52.5682 O   0  0  0  0  0  0  0  0  0  0  0  0
   23.0404    5.6947   53.1784 N   0  0  0  0  0  0  0  0  0  0  0  0
   22.3059    6.8671   53.5434 C   0  0  0  0  0  0  0  0  0  0  0  0
   20.9641    6.7920   53.3548 C   0  0  0  0  0  0  0  0  0  0  0  0
   22.4452    4.8661   52.9939 H   0  0  0  0  0  0  0  0  0  0  0  0
   26.5238    8.3592   54.5499 C   0  0  0  0  0  0  0  0  0  0  0  0
   27.4898    8.7787   53.6714 C   0  0  0  0  0  0  0  0  0  0  0  0
   28.6065    9.4269   54.1820 C   0  0  0  0  0  0  0  0  0  0  0  0
   28.7559    9.6477   55.5052 N   0  0  0  0  0  0  0  0  0  0  0  0
   27.8228    9.2462   56.3882 C   0  0  0  0  0  0  0  0  0  0  0  0
   26.7146    8.6046   55.8962 C   0  0  0  0  0  0  0  0  0  0  0  0
   27.9829    9.4825   57.8019 C   0  0  0  0  0  0  0  0  0  0  0  0
   28.1185    9.6731   58.9483 N   0  0  0  0  0  0  0  0  0  0  0  0
  1  2  1  0  0  0
  2  3  2  0  0  0
  3  4  1  0  0  0
  4  5  2  0  0  0
  5  6  1  0  0  0
  6  7  2  0  0  0
  7  8  1  0  0  0
  8  9  1  0  0  0
  9 10  2  0  0  0
  9 11  1  0  0  0
 11 12  1  0  0  0
 12 13  2  0  0  0
  7 15  1  0  0  0
 15 16  2  0  0  0
 16 17  1  0  0  0
 17 18  2  0  0  0
 18 19  1  0  0  0
 19 20  2  0  0  0
 19 21  1  0  0  0
 21 22  3  0  0  0
 13  2  1  0  0  0
 20 15  1  0  0  0
 12  5  1  0  0  0
 11 14  1  0  0  0
M  END
> <minimizedAffinity>
14.27238

> <CNNscore>
0.6118460894

> <CNNaffinity>
5.7750215530

> <CNN_VS>
3.5334243774

> <CNNaffinity_variance>
0.2499680072

$$$$
[H]c1nc(C#N)c([H])c(C2=Nc3c([H])c([H])c(Br)c([H])c3N([H])C(=O)C2([H])[H])c1[H]


 22 24  0  0  0  0  0  0  0  0999 V2000
   18.5813    8.3170   51.1502 Br  0  0  0  0  0  0  0  0  0  0  0  0
   20.3166    8.3446   51.9364 C   0  0  0  0  0  0  0  0  0  0  0  0
   21.2407    9.3096   51.5899 C   0  0  0  0  0  0  0  0  0  0  0  0
   22.4749    9.2769   52.1912 C   0  0  0  0  0  0  0  0  0  0  0  0
   22.7876    8.2874   53.1334 C   0  0  0  0  0  0  0  0  0  0  0  0
   24.0959    8.4285   53.6301 N   0  0  0  0  0  0  0  0  0  0  0  0
   24.8335    7.7007   54.3524 C   0  0  0  0  0  0  0  0  0  0  0  0
   24.6162    6.4073   54.9657 C   0  0  0  0  0  0  0  0  0  0  0  0
   23.2585    5.8726   54.9862 C   0  0  0  0  0  0  0  0  0  0  0  0
   23.1916    4.8045   55.6987 O   0  0  0  0  0  0  0  0  0  0  0  0
   22.0342    6.2843   54.3941 N   0  0  0  0  0  0  0  0  0  0  0  0
   21.8256    7.3384   53.4493 C   0  0  0  0  0  0  0  0  0  0  0  0
   20.6014    7.3574   52.8638 C   0  0  0  0  0  0  0  0  0  0  0  0
   21.1684    5.7788   54.6581 H   0  0  0  0  0  0  0  0  0  0  0  0
   26.1582    8.3001   54.6039 C   0  0  0  0  0  0  0  0  0  0  0  0
   27.0415    8.4659   53.5679 C   0  0  0  0  0  0  0  0  0  0  0  0
   28.2798    9.0304   53.8433 C   0  0  0  0  0  0  0  0  0  0  0  0
   28.6240    9.4124   55.0913 N   0  0  0  0  0  0  0  0  0  0  0  0
   27.7757    9.2609   56.1251 C   0  0  0  0  0  0  0  0  0  0  0  0
   26.5489    8.7042   55.8661 C   0  0  0  0  0  0  0  0  0  0  0  0
   28.1440    9.6693   57.4584 C   0  0  0  0  0  0  0  0  0  0  0  0
   28.4484    9.9998   58.5387 N   0  0  0  0  0  0  0  0  0  0  0  0
  1  2  1  0  0  0
  2  3  2  0  0  0
  3  4  1  0  0  0
  4  5  2  0  0  0
  5  6  1  0  0  0
  6  7  2  0  0  0
  7  8  1  0  0  0
  8  9  1  0  0  0
  9 10  2  0  0  0
  9 11  1  0  0  0
 11 12  1  0  0  0
 12 13  2  0  0  0
  7 15  1  0  0  0
 15 16  2  0  0  0
 16 17  1  0  0  0
 17 18  2  0  0  0
 18 19  1  0  0  0
 19 20  2  0  0  0
 19 21  1  0  0  0
 21 22  3  0  0  0
 13  2  1  0  0  0
 20 15  1  0  0  0
 12  5  1  0  0  0
 11 14  1  0  0  0
M  END
> <minimizedAffinity>
7.74134

> <CNNscore>
0.6027870178

> <CNNaffinity>
5.7423930168

> <CNN_VS>
3.4614398479

> <CNNaffinity_variance>
0.2974123359

$$$$
[H]c1nc(C#N)c([H])c(C2=Nc3c([H])c([H])c(Br)c([H])c3N([H])C(=O)C2([H])[H])c1[H]


 22 24  0  0  0  0  0  0  0  0999 V2000
   18.9341    4.5556   53.0056 Br  0  0  0  0  0  0  0  0  0  0  0  0
   20.5174    5.5081   53.4699 C   0  0  0  0  0  0  0  0  0  0  0  0
   21.7404    4.8710   53.5310 C   0  0  0  0  0  0  0  0  0  0  0  0
   22.8456    5.6116   53.8715 C   0  0  0  0  0  0  0  0  0  0  0  0
   22.7335    6.9807   54.1502 C   0  0  0  0  0  0  0  0  0  0  0  0
   23.9755    7.5546   54.4762 N   0  0  0  0  0  0  0  0  0  0  0  0
   24.3180    8.6812   54.9336 C   0  0  0  0  0  0  0  0  0  0  0  0
   23.5491    9.8489   55.3094 C   0  0  0  0  0  0  0  0  0  0  0  0
   22.1427    9.9029   54.9232 C   0  0  0  0  0  0  0  0  0  0  0  0
   21.6357   11.0563   55.1790 O   0  0  0  0  0  0  0  0  0  0  0  0
   21.2503    8.9639   54.3394 N   0  0  0  0  0  0  0  0  0  0  0  0
   21.4826    7.5769   54.0757 C   0  0  0  0  0  0  0  0  0  0  0  0
   20.3811    6.8587   53.7405 C   0  0  0  0  0  0  0  0  0  0  0  0
   20.3077    9.2929   54.0597 H   0  0  0  0  0  0  0  0  0  0  0  0
   25.7777    8.8072   55.1098 C   0  0  0  0  0  0  0  0  0  0  0  0
   26.6240    8.4167   54.1037 C   0  0  0  0  0  0  0  0  0  0  0  0
   27.9914    8.5470   54.3069 C   0  0  0  0  0  0  0  0  0  0  0  0
   28.4940    9.0426   55.4573 N   0  0  0  0  0  0  0  0  0  0  0  0
   27.6853    9.4330   56.4598 C   0  0  0  0  0  0  0  0  0  0  0  0
   26.3321    9.3093   56.2715 C   0  0  0  0  0  0  0  0  0  0  0  0
   28.2229    9.9627   57.6888 C   0  0  0  0  0  0  0  0  0  0  0  0
   28.6539   10.3915   58.6885 N   0  0  0  0  0  0  0  0  0  0  0  0
  1  2  1  0  0  0
  2  3  2  0  0  0
  3  4  1  0  0  0
  4  5  2  0  0  0
  5  6  1  0  0  0
  6  7  2  0  0  0
  7  8  1  0  0  0
  8  9  1  0  0  0
  9 10  2  0  0  0
  9 11  1  0  0  0
 11 12  1  0  0  0
 12 13  2  0  0  0
  7 15  1  0  0  0
 15 16  2  0  0  0
 16 17  1  0  0  0
 17 18  2  0  0  0
 18 19  1  0  0  0
 19 20  2  0  0  0
 19 21  1  0  0  0
 21 22  3  0  0  0
 13  2  1  0  0  0
 20 15  1  0  0  0
 12  5  1  0  0  0
 11 14  1  0  0  0
M  END
> <minimizedAffinity>
7.13554

> <CNNscore>
0.6001647711

> <CNNaffinity>
5.7212896347

> <CNN_VS>
3.4337165356

> <CNNaffinity_variance>
0.1254768372

$$$$
[H]c1nc(C#N)c([H])c(C2=Nc3c([H])c([H])c(Br)c([H])c3N([H])C(=O)C2([H])[H])c1[H]


 22 24  0  0  0  0  0  0  0  0999 V2000
   18.9431   10.9096   56.7104 Br  0  0  0  0  0  0  0  0  0  0  0  0
   20.6070   10.1975   56.1152 C   0  0  0  0  0  0  0  0  0  0  0  0
   21.8052   10.7163   56.5628 C   0  0  0  0  0  0  0  0  0  0  0  0
   22.9715   10.1604   56.0974 C   0  0  0  0  0  0  0  0  0  0  0  0
   22.9447    9.0924   55.1900 C   0  0  0  0  0  0  0  0  0  0  0  0
   24.2389    8.6684   54.8382 N   0  0  0  0  0  0  0  0  0  0  0  0
   24.6839    7.8718   53.9648 C   0  0  0  0  0  0  0  0  0  0  0  0
   24.0215    7.0650   52.9616 C   0  0  0  0  0  0  0  0  0  0  0  0
   22.5718    6.9173   53.0415 C   0  0  0  0  0  0  0  0  0  0  0  0
   22.1464    6.0514   52.1918 O   0  0  0  0  0  0  0  0  0  0  0  0
   21.5683    7.5212   53.8462 N   0  0  0  0  0  0  0  0  0  0  0  0
   21.7156    8.6050   54.7687 C   0  0  0  0  0  0  0  0  0  0  0  0
   20.5545    9.1435   55.2195 C   0  0  0  0  0  0  0  0  0  0  0  0
   20.6009    7.1545   53.7792 H   0  0  0  0  0  0  0  0  0  0  0  0
   26.1550    7.7591   53.9901 C   0  0  0  0  0  0  0  0  0  0  0  0
   26.8997    8.6827   54.6780 C   0  0  0  0  0  0  0  0  0  0  0  0
   28.2815    8.5463   54.6766 C   0  0  0  0  0  0  0  0  0  0  0  0
   28.8946    7.5380   54.0213 N   0  0  0  0  0  0  0  0  0  0  0  0
   28.1870    6.6186   53.3390 C   0  0  0  0  0  0  0  0  0  0  0  0
   26.8207    6.7424   53.3326 C   0  0  0  0  0  0  0  0  0  0  0  0
   28.8425    5.5414   52.6391 C   0  0  0  0  0  0  0  0  0  0  0  0
   29.3790    4.6680   52.0748 N   0  0  0  0  0  0  0  0  0  0  0  0
  1  2  1  0  0  0
  2  3  2  0  0  0
  3  4  1  0  0  0
  4  5  2  0  0  0
  5  6  1  0  0  0
  6  7  2  0  0  0
  7  8  1  0  0  0
  8  9  1  0  0  0
  9 10  2  0  0  0
  9 11  1  0  0  0
 11 12  1  0  0  0
 12 13  2  0  0  0
  7 15  1  0  0  0
 15 16  2  0  0  0
 16 17  1  0  0  0
 17 18  2  0  0  0
 18 19  1  0  0  0
 19 20  2  0  0  0
 19 21  1  0  0  0
 21 22  3  0  0  0
 13  2  1  0  0  0
 20 15  1  0  0  0
 12  5  1  0  0  0
 11 14  1  0  0  0
M  END
> <minimizedAffinity>
31.14641

> <CNNscore>
0.5462562442

> <CNNaffinity>
5.4995260239

> <CNN_VS>
3.0041503906

> <CNNaffinity_variance>
0.4486815035

$$$$
[H]c1nc(C#N)c([H])c(C2=Nc3c([H])c([H])c(Br)c([H])c3N([H])C(=O)C2([H])[H])c1[H]


 22 24  0  0  0  0  0  0  0  0999 V2000
   21.1837    3.6468   57.9294 Br  0  0  0  0  0  0  0  0  0  0  0  0
   22.3623    4.7435   56.9105 C   0  0  0  0  0  0  0  0  0  0  0  0
   23.7285    4.6891   57.0995 C   0  0  0  0  0  0  0  0  0  0  0  0
   24.5260    5.5043   56.3345 C   0  0  0  0  0  0  0  0  0  0  0  0
   23.9655    6.3700   55.3853 C   0  0  0  0  0  0  0  0  0  0  0  0
   24.9475    7.1160   54.7089 N   0  0  0  0  0  0  0  0  0  0  0  0
   24.8984    8.0945   53.9116 C   0  0  0  0  0  0  0  0  0  0  0  0
   23.7874    8.8482   53.3696 C   0  0  0  0  0  0  0  0  0  0  0  0
   22.4398    8.3182   53.5514 C   0  0  0  0  0  0  0  0  0  0  0  0
   21.5791    9.0015   52.8843 O   0  0  0  0  0  0  0  0  0  0  0  0
   21.9065    7.2317   54.2958 N   0  0  0  0  0  0  0  0  0  0  0  0
   22.5865    6.3893   55.2314 C   0  0  0  0  0  0  0  0  0  0  0  0
   21.7850    5.5898   55.9797 C   0  0  0  0  0  0  0  0  0  0  0  0
   20.9051    6.9954   54.1678 H   0  0  0  0  0  0  0  0  0  0  0  0
   26.2337    8.5344   53.4632 C   0  0  0  0  0  0  0  0  0  0  0  0
   27.2247    8.7588   54.3843 C   0  0  0  0  0  0  0  0  0  0  0  0
   28.4673    9.1751   53.9254 C   0  0  0  0  0  0  0  0  0  0  0  0
   28.7131    9.3598   52.6111 N   0  0  0  0  0  0  0  0  0  0  0  0
   27.7582    9.1465   51.6870 C   0  0  0  0  0  0  0  0  0  0  0  0
   26.5259    8.7349   52.1277 C   0  0  0  0  0  0  0  0  0  0  0  0
   28.0214    9.3440   50.2828 C   0  0  0  0  0  0  0  0  0  0  0  0
   28.2305    9.5079   49.1434 N   0  0  0  0  0  0  0  0  0  0  0  0
  1  2  1  0  0  0
  2  3  2  0  0  0
  3  4  1  0  0  0
  4  5  2  0  0  0
  5  6  1  0  0  0
  6  7  2  0  0  0
  7  8  1  0  0  0
  8  9  1  0  0  0
  9 10  2  0  0  0
  9 11  1  0  0  0
 11 12  1  0  0  0
 12 13  2  0  0  0
  7 15  1  0  0  0
 15 16  2  0  0  0
 16 17  1  0  0  0
 17 18  2  0  0  0
 18 19  1  0  0  0
 19 20  2  0  0  0
 19 21  1  0  0  0
 21 22  3  0  0  0
 13  2  1  0  0  0
 20 15  1  0  0  0
 12  5  1  0  0  0
 11 14  1  0  0  0
M  END
> <minimizedAffinity>
42.72159

> <CNNscore>
0.5253744721

> <CNNaffinity>
5.1257362366

> <CNN_VS>
2.6929309368

> <CNNaffinity_variance>
0.4418287277

$$$$
[H]c1nc(C#N)c([H])c(C2=Nc3c([H])c([H])c(Br)c([H])c3N([H])C(=O)C2([H])[H])c1[H]


 22 24  0  0  0  0  0  0  0  0999 V2000
   29.3791   11.4498   48.5929 Br  0  0  0  0  0  0  0  0  0  0  0  0
   28.2626   10.4949   49.8060 C   0  0  0  0  0  0  0  0  0  0  0  0
   27.0270   10.0201   49.4145 C   0  0  0  0  0  0  0  0  0  0  0  0
   26.2683    9.3391   50.3345 C   0  0  0  0  0  0  0  0  0  0  0  0
   26.7378    9.1318   51.6388 C   0  0  0  0  0  0  0  0  0  0  0  0
   25.8152    8.4154   52.4224 N   0  0  0  0  0  0  0  0  0  0  0  0
   25.7478    8.1455   53.6545 C   0  0  0  0  0  0  0  0  0  0  0  0
   26.6132    8.4749   54.7675 C   0  0  0  0  0  0  0  0  0  0  0  0
   27.9312    9.0297   54.4762 C   0  0  0  0  0  0  0  0  0  0  0  0
   28.6425    9.1196   55.5434 O   0  0  0  0  0  0  0  0  0  0  0  0
   28.5649    9.4765   53.2855 N   0  0  0  0  0  0  0  0  0  0  0  0
   27.9864    9.6280   51.9856 C   0  0  0  0  0  0  0  0  0  0  0  0
   28.7482   10.3029   51.0879 C   0  0  0  0  0  0  0  0  0  0  0  0
   29.5687    9.7318   53.3314 H   0  0  0  0  0  0  0  0  0  0  0  0
   24.5571    7.3455   54.0004 C   0  0  0  0  0  0  0  0  0  0  0  0
   24.6585    6.3293   54.9158 C   0  0  0  0  0  0  0  0  0  0  0  0
   23.5176    5.5961   55.2137 C   0  0  0  0  0  0  0  0  0  0  0  0
   22.3306    5.8610   54.6282 N   0  0  0  0  0  0  0  0  0  0  0  0
   22.2043    6.8526   53.7270 C   0  0  0  0  0  0  0  0  0  0  0  0
   23.3243    7.5845   53.4240 C   0  0  0  0  0  0  0  0  0  0  0  0
   20.9357    7.1354   53.1018 C   0  0  0  0  0  0  0  0  0  0  0  0
   19.9088    7.3633   52.5895 N   0  0  0  0  0  0  0  0  0  0  0  0
  1  2  1  0  0  0
  2  3  2  0  0  0
  3  4  1  0  0  0
  4  5  2  0  0  0
  5  6  1  0  0  0
  6  7  2  0  0  0
  7  8  1  0  0  0
  8  9  1  0  0  0
  9 10  2  0  0  0
  9 11  1  0  0  0
 11 12  1  0  0  0
 12 13  2  0  0  0
  7 15  1  0  0  0
 15 16  2  0  0  0
 16 17  1  0  0  0
 17 18  2  0  0  0
 18 19  1  0  0  0
 19 20  2  0  0  0
 19 21  1  0  0  0
 21 22  3  0  0  0
 13  2  1  0  0  0
 20 15  1  0  0  0
 12  5  1  0  0  0
 11 14  1  0  0  0
M  END
> <minimizedAffinity>
35.20156

> <CNNscore>
0.5111566186

> <CNNaffinity>
5.5340056419

> <CNN_VS>
2.8287436962

> <CNNaffinity_variance>
0.2531693876

$$$$
[H]c1nc(C#N)c([H])c(C2=Nc3c([H])c([H])c(Br)c([H])c3N([H])C(=O)C2([H])[H])c1[H]


 22 24  0  0  0  0  0  0  0  0999 V2000
   18.2744    9.0400   49.9560 Br  0  0  0  0  0  0  0  0  0  0  0  0
   19.9011    8.9703   50.9455 C   0  0  0  0  0  0  0  0  0  0  0  0
   21.1060    9.3038   50.3605 C   0  0  0  0  0  0  0  0  0  0  0  0
   22.2443    9.2338   51.1255 C   0  0  0  0  0  0  0  0  0  0  0  0
   22.1831    8.8331   52.4672 C   0  0  0  0  0  0  0  0  0  0  0  0
   23.4525    8.8279   53.0731 N   0  0  0  0  0  0  0  0  0  0  0  0
   23.8836    8.4024   54.1816 C   0  0  0  0  0  0  0  0  0  0  0  0
   23.2252    7.7389   55.2873 C   0  0  0  0  0  0  0  0  0  0  0  0
   21.7662    7.7084   55.3040 C   0  0  0  0  0  0  0  0  0  0  0  0
   21.3252    7.2346   56.4148 O   0  0  0  0  0  0  0  0  0  0  0  0
   20.7675    8.0860   54.3664 N   0  0  0  0  0  0  0  0  0  0  0  0
   20.9487    8.5075   53.0111 C   0  0  0  0  0  0  0  0  0  0  0  0
   19.8148    8.5718   52.2682 C   0  0  0  0  0  0  0  0  0  0  0  0
   19.7767    8.0635   54.6709 H   0  0  0  0  0  0  0  0  0  0  0  0
   25.3297    8.6353   54.3603 C   0  0  0  0  0  0  0  0  0  0  0  0
   26.1186    8.9044   53.2712 C   0  0  0  0  0  0  0  0  0  0  0  0
   27.4754    9.1148   53.4778 C   0  0  0  0  0  0  0  0  0  0  0  0
   28.0226    9.0602   54.7104 N   0  0  0  0  0  0  0  0  0  0  0  0
   27.2706    8.7981   55.7955 C   0  0  0  0  0  0  0  0  0  0  0  0
   25.9284    8.5883   55.6047 C   0  0  0  0  0  0  0  0  0  0  0  0
   27.8558    8.7399   57.1124 C   0  0  0  0  0  0  0  0  0  0  0  0
   28.3274    8.6973   58.1823 N   0  0  0  0  0  0  0  0  0  0  0  0
  1  2  1  0  0  0
  2  3  2  0  0  0
  3  4  1  0  0  0
  4  5  2  0  0  0
  5  6  1  0  0  0
  6  7  2  0  0  0
  7  8  1  0  0  0
  8  9  1  0  0  0
  9 10  2  0  0  0
  9 11  1  0  0  0
 11 12  1  0  0  0
 12 13  2  0  0  0
  7 15  1  0  0  0
 15 16  2  0  0  0
 16 17  1  0  0  0
 17 18  2  0  0  0
 18 19  1  0  0  0
 19 20  2  0  0  0
 19 21  1  0  0  0
 21 22  3  0  0  0
 13  2  1  0  0  0
 20 15  1  0  0  0
 12  5  1  0  0  0
 11 14  1  0  0  0
M  END
> <minimizedAffinity>
26.54922

> <CNNscore>
0.5051999688

> <CNNaffinity>
5.6072931290

> <CNN_VS>
2.8328042030

> <CNNaffinity_variance>
0.3177918792

$$$$
[H]c1nc([H])c([H])c(-c2c([H])c([H])c([H])c(C3=Nc4c([H])c(OC([H])([H])C([H])([H])[H])c(C(F)(F)F)c([H])c4N([H])C(=O)C3([H])[H])c2[H])c1[H]


 32 35  0  0  0  0  0  0  0  0999 V2000
   20.8764    4.7171   53.8536 C   0  0  0  0  0  0  0  0  0  0  0  0
   22.0847    5.3735   53.9927 C   0  0  0  0  0  0  0  0  0  0  0  0
   22.1373    6.7594   54.1067 C   0  0  0  0  0  0  0  0  0  0  0  0
   23.4532    7.2119   54.2370 N   0  0  0  0  0  0  0  0  0  0  0  0
   23.8688    8.4316   54.2861 C   0  0  0  0  0  0  0  0  0  0  0  0
   23.2445    9.7373   54.2357 C   0  0  0  0  0  0  0  0  0  0  0  0
   21.8058    9.8224   54.1190 C   0  0  0  0  0  0  0  0  0  0  0  0
   21.3704   10.9930   53.9309 O   0  0  0  0  0  0  0  0  0  0  0  0
   20.7598    8.8440   54.1732 N   0  0  0  0  0  0  0  0  0  0  0  0
   20.9287    7.4386   54.0738 C   0  0  0  0  0  0  0  0  0  0  0  0
   19.7293    6.7805   53.9352 C   0  0  0  0  0  0  0  0  0  0  0  0
   19.6761    5.3943   53.8211 C   0  0  0  0  0  0  0  0  0  0  0  0
   19.7756    9.1819   54.2971 H   0  0  0  0  0  0  0  0  0  0  0  0
   25.3329    8.5015   54.4280 C   0  0  0  0  0  0  0  0  0  0  0  0
   26.1939    8.1263   53.4033 C   0  0  0  0  0  0  0  0  0  0  0  0
   27.5599    8.2031   53.5666 C   0  0  0  0  0  0  0  0  0  0  0  0
   28.1234    8.6577   54.7605 C   0  0  0  0  0  0  0  0  0  0  0  0
   27.2781    9.0329   55.7853 C   0  0  0  0  0  0  0  0  0  0  0  0
   25.9135    8.9502   55.6059 C   0  0  0  0  0  0  0  0  0  0  0  0
   27.8063    9.5184   57.0616 C   0  0  0  0  0  0  0  0  0  0  0  0
   28.0945    8.6806   58.1187 C   0  0  0  0  0  0  0  0  0  0  0  0
   28.5920    9.1322   59.3234 C   0  0  0  0  0  0  0  0  0  0  0  0
   28.7985   10.4552   59.4528 N   0  0  0  0  0  0  0  0  0  0  0  0
   28.5335   11.3136   58.4522 C   0  0  0  0  0  0  0  0  0  0  0  0
   28.0362   10.8685   57.2456 C   0  0  0  0  0  0  0  0  0  0  0  0
   18.3839    4.6639   53.6695 C   0  0  0  0  0  0  0  0  0  0  0  0
   18.3833    3.9417   52.4928 F   0  0  0  0  0  0  0  0  0  0  0  0
   17.3064    5.5169   53.6563 F   0  0  0  0  0  0  0  0  0  0  0  0
   18.3024    3.7389   54.6981 F   0  0  0  0  0  0  0  0  0  0  0  0
   20.8160    3.3383   53.7395 O   0  0  0  0  0  0  0  0  0  0  0  0
   20.9596    1.2737   52.5003 C   0  0  0  0  0  0  0  0  0  0  0  0
   20.4480    2.6933   52.5263 C   0  0  0  0  0  0  0  0  0  0  0  0
 31 32  1  0  0  0
 32 30  1  0  0  0
 30  1  1  0  0  0
  1  2  2  0  0  0
  2  3  1  0  0  0
  3  4  1  0  0  0
  4  5  2  0  0  0
  5  6  1  0  0  0
  6  7  1  0  0  0
  7  8  2  0  0  0
  7  9  1  0  0  0
  9 10  1  0  0  0
 10 11  1  0  0  0
 11 12  2  0  0  0
 12 26  1  0  0  0
 26 27  1  0  0  0
 26 28  1  0  0  0
 26 29  1  0  0  0
  5 14  1  0  0  0
 14 15  2  0  0  0
 15 16  1  0  0  0
 16 17  2  0  0  0
 17 18  1  0  0  0
 18 19  2  0  0  0
 18 20  1  0  0  0
 20 21  2  0  0  0
 21 22  1  0  0  0
 22 23  2  0  0  0
 23 24  1  0  0  0
 24 25  2  0  0  0
 12  1  1  0  0  0
 19 14  1  0  0  0
 25 20  1  0  0  0
 10  3  2  0  0  0
  9 13  1  0  0  0
M  END
> <minimizedAffinity>
24.27845

> <CNNscore>
0.5148544908

> <CNNaffinity>
6.4066238403

> <CNN_VS>
3.2984790802

> <CNNaffinity_variance>
0.2910780609

$$$$
[H]c1nc([H])c([H])c(-c2c([H])c([H])c([H])c(C3=Nc4c([H])c(OC([H])([H])C([H])([H])[H])c(C(F)(F)F)c([H])c4N([H])C(=O)C3([H])[H])c2[H])c1[H]


 32 35  0  0  0  0  0  0  0  0999 V2000
   20.6679    4.5280   53.6793 C   0  0  0  0  0  0  0  0  0  0  0  0
   21.8814    5.1867   53.6191 C   0  0  0  0  0  0  0  0  0  0  0  0
   21.9419    6.5769   53.6193 C   0  0  0  0  0  0  0  0  0  0  0  0
   23.2620    7.0311   53.5528 N   0  0  0  0  0  0  0  0  0  0  0  0
   23.6754    8.2489   53.4572 C   0  0  0  0  0  0  0  0  0  0  0  0
   23.0442    9.5501   53.3836 C   0  0  0  0  0  0  0  0  0  0  0  0
   21.6017    9.6337   53.4374 C   0  0  0  0  0  0  0  0  0  0  0  0
   21.1418   10.7888   53.2148 O   0  0  0  0  0  0  0  0  0  0  0  0
   20.5742    8.6678   53.6937 N   0  0  0  0  0  0  0  0  0  0  0  0
   20.7355    7.2580   53.6824 C   0  0  0  0  0  0  0  0  0  0  0  0
   19.5309    6.5976   53.7422 C   0  0  0  0  0  0  0  0  0  0  0  0
   19.4698    5.2071   53.7419 C   0  0  0  0  0  0  0  0  0  0  0  0
   19.6112    9.0194   53.9107 H   0  0  0  0  0  0  0  0  0  0  0  0
   25.1456    8.3216   53.4134 C   0  0  0  0  0  0  0  0  0  0  0  0
   25.9379    7.9218   54.4833 C   0  0  0  0  0  0  0  0  0  0  0  0
   27.3116    8.0019   54.4118 C   0  0  0  0  0  0  0  0  0  0  0  0
   27.9517    8.4849   53.2688 C   0  0  0  0  0  0  0  0  0  0  0  0
   27.1750    8.8849   52.2000 C   0  0  0  0  0  0  0  0  0  0  0  0
   25.8017    8.7983   52.2874 C   0  0  0  0  0  0  0  0  0  0  0  0
   27.7853    9.4002   50.9730 C   0  0  0  0  0  0  0  0  0  0  0  0
   27.9840    8.6210   49.8524 C   0  0  0  0  0  0  0  0  0  0  0  0
   28.5586    9.1008   48.6938 C   0  0  0  0  0  0  0  0  0  0  0  0
   28.9358   10.3920   48.6767 N   0  0  0  0  0  0  0  0  0  0  0  0
   28.7639   11.1932   49.7429 C   0  0  0  0  0  0  0  0  0  0  0  0
   28.1901   10.7196   50.9039 C   0  0  0  0  0  0  0  0  0  0  0  0
   18.1717    4.4741   53.8057 C   0  0  0  0  0  0  0  0  0  0  0  0
   18.0785    3.5836   52.7547 F   0  0  0  0  0  0  0  0  0  0  0  0
   17.0942    5.3253   53.7510 F   0  0  0  0  0  0  0  0  0  0  0  0
   18.1761    3.7145   54.9648 F   0  0  0  0  0  0  0  0  0  0  0  0
   20.5997    3.1448   53.6794 O   0  0  0  0  0  0  0  0  0  0  0  0
   21.3224    1.1257   52.5750 C   0  0  0  0  0  0  0  0  0  0  0  0
   20.5045    2.3904   52.4773 C   0  0  0  0  0  0  0  0  0  0  0  0
 31 32  1  0  0  0
 32 30  1  0  0  0
 30  1  1  0  0  0
  1  2  2  0  0  0
  2  3  1  0  0  0
  3  4  1  0  0  0
  4  5  2  0  0  0
  5  6  1  0  0  0
  6  7  1  0  0  0
  7  8  2  0  0  0
  7  9  1  0  0  0
  9 10  1  0  0  0
 10 11  1  0  0  0
 11 12  2  0  0  0
 12 26  1  0  0  0
 26 27  1  0  0  0
 26 28  1  0  0  0
 26 29  1  0  0  0
  5 14  1  0  0  0
 14 15  2  0  0  0
 15 16  1  0  0  0
 16 17  2  0  0  0
 17 18  1  0  0  0
 18 19  2  0  0  0
 18 20  1  0  0  0
 20 21  2  0  0  0
 21 22  1  0  0  0
 22 23  2  0  0  0
 23 24  1  0  0  0
 24 25  2  0  0  0
 12  1  1  0  0  0
 19 14  1  0  0  0
 25 20  1  0  0  0
 10  3  2  0  0  0
  9 13  1  0  0  0
M  END
> <minimizedAffinity>
38.20363

> <CNNscore>
0.4797468185

> <CNNaffinity>
6.2453470230

> <CNN_VS>
2.9961853027

> <CNNaffinity_variance>
0.6586092114

$$$$
[H]c1nc([H])c([H])c(-c2c([H])c([H])c([H])c(C3=Nc4c([H])c(OC([H])([H])C([H])([H])[H])c(C(F)(F)F)c([H])c4N([H])C(=O)C3([H])[H])c2[H])c1[H]


 32 35  0  0  0  0  0  0  0  0999 V2000
   19.3215    4.3179   53.3480 C   0  0  0  0  0  0  0  0  0  0  0  0
   19.6665    5.6323   53.5998 C   0  0  0  0  0  0  0  0  0  0  0  0
   21.0008    6.0184   53.6843 C   0  0  0  0  0  0  0  0  0  0  0  0
   21.1217    7.3862   53.9446 N   0  0  0  0  0  0  0  0  0  0  0  0
   22.2012    8.0579   54.1597 C   0  0  0  0  0  0  0  0  0  0  0  0
   23.6142    7.7474   54.2238 C   0  0  0  0  0  0  0  0  0  0  0  0
   24.0443    6.3869   53.9902 C   0  0  0  0  0  0  0  0  0  0  0  0
   25.2708    6.1861   54.2158 O   0  0  0  0  0  0  0  0  0  0  0  0
   23.3609    5.2060   53.5512 N   0  0  0  0  0  0  0  0  0  0  0  0
   21.9540    5.0271   53.5050 C   0  0  0  0  0  0  0  0  0  0  0  0
   21.6051    3.7208   53.2547 C   0  0  0  0  0  0  0  0  0  0  0  0
   20.2707    3.3342   53.1701 C   0  0  0  0  0  0  0  0  0  0  0  0
   23.9392    4.3924   53.2324 H   0  0  0  0  0  0  0  0  0  0  0  0
   21.9162    9.4834   54.3955 C   0  0  0  0  0  0  0  0  0  0  0  0
   21.8361   10.0196   55.6755 C   0  0  0  0  0  0  0  0  0  0  0  0
   21.5678   11.3579   55.8636 C   0  0  0  0  0  0  0  0  0  0  0  0
   21.3682   12.2170   54.7812 C   0  0  0  0  0  0  0  0  0  0  0  0
   21.4453   11.6956   53.5053 C   0  0  0  0  0  0  0  0  0  0  0  0
   21.7147   10.3543   53.3341 C   0  0  0  0  0  0  0  0  0  0  0  0
   21.2460   12.5438   52.3287 C   0  0  0  0  0  0  0  0  0  0  0  0
   20.2104   13.4490   52.2262 C   0  0  0  0  0  0  0  0  0  0  0  0
   20.0175   14.2505   51.1203 C   0  0  0  0  0  0  0  0  0  0  0  0
   20.8916   14.1280   50.1050 N   0  0  0  0  0  0  0  0  0  0  0  0
   21.9178   13.2604   50.1560 C   0  0  0  0  0  0  0  0  0  0  0  0
   22.1160   12.4566   51.2587 C   0  0  0  0  0  0  0  0  0  0  0  0
   19.8739    1.9214   52.8999 C   0  0  0  0  0  0  0  0  0  0  0  0
   18.5597    1.8706   52.4797 F   0  0  0  0  0  0  0  0  0  0  0  0
   20.0054    1.1257   54.0128 F   0  0  0  0  0  0  0  0  0  0  0  0
   20.6428    1.4656   51.8409 F   0  0  0  0  0  0  0  0  0  0  0  0
   17.9960    3.9262   53.2626 O   0  0  0  0  0  0  0  0  0  0  0  0
   15.7757    3.3774   54.0297 C   0  0  0  0  0  0  0  0  0  0  0  0
   17.1195    3.9671   54.3822 C   0  0  0  0  0  0  0  0  0  0  0  0
 31 32  1  0  0  0
 32 30  1  0  0  0
 30  1  1  0  0  0
  1  2  2  0  0  0
  2  3  1  0  0  0
  3  4  1  0  0  0
  4  5  2  0  0  0
  5  6  1  0  0  0
  6  7  1  0  0  0
  7  8  2  0  0  0
  7  9  1  0  0  0
  9 10  1  0  0  0
 10 11  1  0  0  0
 11 12  2  0  0  0
 12 26  1  0  0  0
 26 27  1  0  0  0
 26 28  1  0  0  0
 26 29  1  0  0  0
  5 14  1  0  0  0
 14 15  2  0  0  0
 15 16  1  0  0  0
 16 17  2  0  0  0
 17 18  1  0  0  0
 18 19  2  0  0  0
 18 20  1  0  0  0
 20 21  2  0  0  0
 21 22  1  0  0  0
 22 23  2  0  0  0
 23 24  1  0  0  0
 24 25  2  0  0  0
 12  1  1  0  0  0
 19 14  1  0  0  0
 25 20  1  0  0  0
 10  3  2  0  0  0
  9 13  1  0  0  0
M  END
> <minimizedAffinity>
48.92036

> <CNNscore>
0.4115365446

> <CNNaffinity>
6.2348999977

> <CNN_VS>
2.5658891201

> <CNNaffinity_variance>
0.3943082988

$$$$
[H]c1nc([H])c([H])c(-c2c([H])c([H])c([H])c(C3=Nc4c([H])c(OC([H])([H])C([H])([H])[H])c(C(F)(F)F)c([H])c4N([H])C(=O)C3([H])[H])c2[H])c1[H]


 32 35  0  0  0  0  0  0  0  0999 V2000
   19.9175   11.1516   50.1995 C   0  0  0  0  0  0  0  0  0  0  0  0
   20.7812   10.8883   51.2458 C   0  0  0  0  0  0  0  0  0  0  0  0
   20.8352    9.6259   51.8288 C   0  0  0  0  0  0  0  0  0  0  0  0
   21.7723    9.5809   52.8647 N   0  0  0  0  0  0  0  0  0  0  0  0
   22.0226    8.5993   53.6626 C   0  0  0  0  0  0  0  0  0  0  0  0
   21.5135    7.2547   53.8357 C   0  0  0  0  0  0  0  0  0  0  0  0
   20.4805    6.7760   52.9444 C   0  0  0  0  0  0  0  0  0  0  0  0
   19.9975    5.6545   53.2674 O   0  0  0  0  0  0  0  0  0  0  0  0
   19.8843    7.3153   51.7579 N   0  0  0  0  0  0  0  0  0  0  0  0
   19.9872    8.6582   51.3112 C   0  0  0  0  0  0  0  0  0  0  0  0
   19.1298    8.9257   50.2699 C   0  0  0  0  0  0  0  0  0  0  0  0
   19.0754   10.1882   49.6865 C   0  0  0  0  0  0  0  0  0  0  0  0
   19.3180    6.6717   51.1553 H   0  0  0  0  0  0  0  0  0  0  0  0
   23.0839    8.9388   54.6254 C   0  0  0  0  0  0  0  0  0  0  0  0
   22.8168    9.6040   55.8163 C   0  0  0  0  0  0  0  0  0  0  0  0
   23.8319    9.9077   56.6971 C   0  0  0  0  0  0  0  0  0  0  0  0
   25.1566    9.5599   56.4254 C   0  0  0  0  0  0  0  0  0  0  0  0
   25.4338    8.8990   55.2457 C   0  0  0  0  0  0  0  0  0  0  0  0
   24.4067    8.6023   54.3749 C   0  0  0  0  0  0  0  0  0  0  0  0
   26.8020    8.5066   54.9024 C   0  0  0  0  0  0  0  0  0  0  0  0
   27.9014    8.9153   55.6280 C   0  0  0  0  0  0  0  0  0  0  0  0
   29.1926    8.5491   55.3094 C   0  0  0  0  0  0  0  0  0  0  0  0
   29.3658    7.7557   54.2369 N   0  0  0  0  0  0  0  0  0  0  0  0
   28.3269    7.3301   53.4968 C   0  0  0  0  0  0  0  0  0  0  0  0
   27.0339    7.6926   53.8101 C   0  0  0  0  0  0  0  0  0  0  0  0
   18.1509   10.4963   48.5565 C   0  0  0  0  0  0  0  0  0  0  0  0
   18.5905   11.6144   47.8763 F   0  0  0  0  0  0  0  0  0  0  0  0
   16.8666   10.7270   48.9877 F   0  0  0  0  0  0  0  0  0  0  0  0
   18.2172    9.4406   47.6613 F   0  0  0  0  0  0  0  0  0  0  0  0
   19.8580   12.4053   49.6143 O   0  0  0  0  0  0  0  0  0  0  0  0
   20.9365   13.7393   51.3102 C   0  0  0  0  0  0  0  0  0  0  0  0
   20.8522   13.3967   49.8428 C   0  0  0  0  0  0  0  0  0  0  0  0
 31 32  1  0  0  0
 32 30  1  0  0  0
 30  1  1  0  0  0
  1  2  2  0  0  0
  2  3  1  0  0  0
  3  4  1  0  0  0
  4  5  2  0  0  0
  5  6  1  0  0  0
  6  7  1  0  0  0
  7  8  2  0  0  0
  7  9  1  0  0  0
  9 10  1  0  0  0
 10 11  1  0  0  0
 11 12  2  0  0  0
 12 26  1  0  0  0
 26 27  1  0  0  0
 26 28  1  0  0  0
 26 29  1  0  0  0
  5 14  1  0  0  0
 14 15  2  0  0  0
 15 16  1  0  0  0
 16 17  2  0  0  0
 17 18  1  0  0  0
 18 19  2  0  0  0
 18 20  1  0  0  0
 20 21  2  0  0  0
 21 22  1  0  0  0
 22 23  2  0  0  0
 23 24  1  0  0  0
 24 25  2  0  0  0
 12  1  1  0  0  0
 19 14  1  0  0  0
 25 20  1  0  0  0
 10  3  2  0  0  0
  9 13  1  0  0  0
M  END
> <minimizedAffinity>
57.70770

> <CNNscore>
0.3948767781

> <CNNaffinity>
5.9276719093

> <CNN_VS>
2.3406999111

> <CNNaffinity_variance>
0.9243470430

$$$$
[H]c1nc([H])c([H])c(-c2c([H])c([H])c([H])c(C3=Nc4c([H])c(OC([H])([H])C([H])([H])[H])c(C(F)(F)F)c([H])c4N([H])C(=O)C3([H])[H])c2[H])c1[H]


 32 35  0  0  0  0  0  0  0  0999 V2000
   18.8673    4.8429   53.6503 C   0  0  0  0  0  0  0  0  0  0  0  0
   19.6921    5.8855   54.0286 C   0  0  0  0  0  0  0  0  0  0  0  0
   21.0426    5.8876   53.6932 C   0  0  0  0  0  0  0  0  0  0  0  0
   21.6868    7.0311   54.1735 N   0  0  0  0  0  0  0  0  0  0  0  0
   22.9428    7.3163   54.1110 C   0  0  0  0  0  0  0  0  0  0  0  0
   24.1233    6.6666   53.5805 C   0  0  0  0  0  0  0  0  0  0  0  0
   23.9832    5.3869   52.9222 C   0  0  0  0  0  0  0  0  0  0  0  0
   25.0799    4.8326   52.6300 O   0  0  0  0  0  0  0  0  0  0  0  0
   22.8463    4.6083   52.5279 N   0  0  0  0  0  0  0  0  0  0  0  0
   21.5115    4.8020   52.9686 C   0  0  0  0  0  0  0  0  0  0  0  0
   20.6864    3.7674   52.5948 C   0  0  0  0  0  0  0  0  0  0  0  0
   19.3355    3.7648   52.9300 C   0  0  0  0  0  0  0  0  0  0  0  0
   22.9988    3.8210   51.8533 H   0  0  0  0  0  0  0  0  0  0  0  0
   23.2356    8.6194   54.7314 C   0  0  0  0  0  0  0  0  0  0  0  0
   22.3211    9.6662   54.7196 C   0  0  0  0  0  0  0  0  0  0  0  0
   22.6246   10.8740   55.3090 C   0  0  0  0  0  0  0  0  0  0  0  0
   23.8543   11.0872   55.9349 C   0  0  0  0  0  0  0  0  0  0  0  0
   24.7705   10.0548   55.9529 C   0  0  0  0  0  0  0  0  0  0  0  0
   24.4514    8.8523   55.3586 C   0  0  0  0  0  0  0  0  0  0  0  0
   26.0773   10.2148   56.5933 C   0  0  0  0  0  0  0  0  0  0  0  0
   26.5893   11.4446   56.9509 C   0  0  0  0  0  0  0  0  0  0  0  0
   27.8197   11.6015   57.5543 C   0  0  0  0  0  0  0  0  0  0  0  0
   28.5383   10.4903   57.7965 N   0  0  0  0  0  0  0  0  0  0  0  0
   28.0838    9.2683   57.4672 C   0  0  0  0  0  0  0  0  0  0  0  0
   26.8546    9.1049   56.8639 C   0  0  0  0  0  0  0  0  0  0  0  0
   18.4260    2.6504   52.5333 C   0  0  0  0  0  0  0  0  0  0  0  0
   17.1946    2.8060   53.1381 F   0  0  0  0  0  0  0  0  0  0  0  0
   18.9306    1.4214   52.8849 F   0  0  0  0  0  0  0  0  0  0  0  0
   18.2091    2.7525   51.1685 F   0  0  0  0  0  0  0  0  0  0  0  0
   17.5225    4.8338   53.9804 O   0  0  0  0  0  0  0  0  0  0  0  0
   15.5078    3.8920   54.9149 C   0  0  0  0  0  0  0  0  0  0  0  0
   17.0059    4.0304   55.0345 C   0  0  0  0  0  0  0  0  0  0  0  0
 31 32  1  0  0  0
 32 30  1  0  0  0
 30  1  1  0  0  0
  1  2  2  0  0  0
  2  3  1  0  0  0
  3  4  1  0  0  0
  4  5  2  0  0  0
  5  6  1  0  0  0
  6  7  1  0  0  0
  7  8  2  0  0  0
  7  9  1  0  0  0
  9 10  1  0  0  0
 10 11  1  0  0  0
 11 12  2  0  0  0
 12 26  1  0  0  0
 26 27  1  0  0  0
 26 28  1  0  0  0
 26 29  1  0  0  0
  5 14  1  0  0  0
 14 15  2  0  0  0
 15 16  1  0  0  0
 16 17  2  0  0  0
 17 18  1  0  0  0
 18 19  2  0  0  0
 18 20  1  0  0  0
 20 21  2  0  0  0
 21 22  1  0  0  0
 22 23  2  0  0  0
 23 24  1  0  0  0
 24 25  2  0  0  0
 12  1  1  0  0  0
 19 14  1  0  0  0
 25 20  1  0  0  0
 10  3  2  0  0  0
  9 13  1  0  0  0
M  END
> <minimizedAffinity>
50.89307

> <CNNscore>
0.3935401142

> <CNNaffinity>
6.1941776276

> <CNN_VS>
2.4376573563

> <CNNaffinity_variance>
0.9437640905

$$$$
[H]c1nc([H])c([H])c(-c2c([H])c([H])c([H])c(C3=Nc4c([H])c(OC([H])([H])C([H])([H])[H])c(C(F)(F)F)c([H])c4N([H])C(=O)C3([H])[H])c2[H])c1[H]


 32 35  0  0  0  0  0  0  0  0999 V2000
   19.8878    4.2586   54.3955 C   0  0  0  0  0  0  0  0  0  0  0  0
   21.1204    4.8799   54.4659 C   0  0  0  0  0  0  0  0  0  0  0  0
   21.2631    6.2257   54.1419 C   0  0  0  0  0  0  0  0  0  0  0  0
   22.5882    6.6474   54.2814 N   0  0  0  0  0  0  0  0  0  0  0  0
   23.0853    7.8017   53.9929 C   0  0  0  0  0  0  0  0  0  0  0  0
   22.5675    9.0435   53.4573 C   0  0  0  0  0  0  0  0  0  0  0  0
   21.1588    9.1394   53.1459 C   0  0  0  0  0  0  0  0  0  0  0  0
   20.8327   10.2021   52.5462 O   0  0  0  0  0  0  0  0  0  0  0  0
   20.0435    8.2697   53.3787 N   0  0  0  0  0  0  0  0  0  0  0  0
   20.1177    6.9021   53.7495 C   0  0  0  0  0  0  0  0  0  0  0  0
   18.8938    6.2790   53.6813 C   0  0  0  0  0  0  0  0  0  0  0  0
   18.7506    4.9329   54.0052 C   0  0  0  0  0  0  0  0  0  0  0  0
   19.0795    8.6655   53.2690 H   0  0  0  0  0  0  0  0  0  0  0  0
   24.5281    7.8596   54.2824 C   0  0  0  0  0  0  0  0  0  0  0  0
   25.1200    7.0611   55.2540 C   0  0  0  0  0  0  0  0  0  0  0  0
   26.4732    7.1383   55.5016 C   0  0  0  0  0  0  0  0  0  0  0  0
   27.2922    8.0166   54.7892 C   0  0  0  0  0  0  0  0  0  0  0  0
   26.7153    8.8147   53.8219 C   0  0  0  0  0  0  0  0  0  0  0  0
   25.3598    8.7253   53.5862 C   0  0  0  0  0  0  0  0  0  0  0  0
   27.5194    9.7560   53.0402 C   0  0  0  0  0  0  0  0  0  0  0  0
   28.6167   10.4119   53.5581 C   0  0  0  0  0  0  0  0  0  0  0  0
   29.3778   11.2998   52.8267 C   0  0  0  0  0  0  0  0  0  0  0  0
   29.0160   11.5225   51.5503 N   0  0  0  0  0  0  0  0  0  0  0  0
   27.9546   10.9082   50.9985 C   0  0  0  0  0  0  0  0  0  0  0  0
   27.1898   10.0196   51.7244 C   0  0  0  0  0  0  0  0  0  0  0  0
   17.4306    4.2406   53.9361 C   0  0  0  0  0  0  0  0  0  0  0  0
   16.4253    5.1593   53.7083 F   0  0  0  0  0  0  0  0  0  0  0  0
   17.1427    3.5600   55.0948 F   0  0  0  0  0  0  0  0  0  0  0  0
   17.4543    3.4025   52.8328 F   0  0  0  0  0  0  0  0  0  0  0  0
   19.7380    2.9198   54.7162 O   0  0  0  0  0  0  0  0  0  0  0  0
   18.7226    3.5548   56.8102 C   0  0  0  0  0  0  0  0  0  0  0  0
   18.8764    2.4819   55.7599 C   0  0  0  0  0  0  0  0  0  0  0  0
 31 32  1  0  0  0
 32 30  1  0  0  0
 30  1  1  0  0  0
  1  2  2  0  0  0
  2  3  1  0  0  0
  3  4  1  0  0  0
  4  5  2  0  0  0
  5  6  1  0  0  0
  6  7  1  0  0  0
  7  8  2  0  0  0
  7  9  1  0  0  0
  9 10  1  0  0  0
 10 11  1  0  0  0
 11 12  2  0  0  0
 12 26  1  0  0  0
 26 27  1  0  0  0
 26 28  1  0  0  0
 26 29  1  0  0  0
  5 14  1  0  0  0
 14 15  2  0  0  0
 15 16  1  0  0  0
 16 17  2  0  0  0
 17 18  1  0  0  0
 18 19  2  0  0  0
 18 20  1  0  0  0
 20 21  2  0  0  0
 21 22  1  0  0  0
 22 23  2  0  0  0
 23 24  1  0  0  0
 24 25  2  0  0  0
 12  1  1  0  0  0
 19 14  1  0  0  0
 25 20  1  0  0  0
 10  3  2  0  0  0
  9 13  1  0  0  0
M  END
> <minimizedAffinity>
65.47856

> <CNNscore>
0.3716631532

> <CNNaffinity>
5.9670839310

> <CNN_VS>
2.2177453041

> <CNNaffinity_variance>
1.0424486399

$$$$
[H]c1nc([H])c([H])c(-c2c([H])c([H])c([H])c(C3=Nc4c([H])c(OC([H])([H])C([H])([H])[H])c(C(F)(F)F)c([H])c4N([H])C(=O)C3([H])[H])c2[H])c1[H]


 32 35  0  0  0  0  0  0  0  0999 V2000
   26.2609    3.5377   52.2318 C   0  0  0  0  0  0  0  0  0  0  0  0
   25.3638    4.5227   52.5994 C   0  0  0  0  0  0  0  0  0  0  0  0
   25.8069    5.7518   53.0784 C   0  0  0  0  0  0  0  0  0  0  0  0
   24.7367    6.5951   53.3896 N   0  0  0  0  0  0  0  0  0  0  0  0
   24.7834    7.7675   53.9246 C   0  0  0  0  0  0  0  0  0  0  0  0
   25.8343    8.6467   54.3933 C   0  0  0  0  0  0  0  0  0  0  0  0
   27.2109    8.2223   54.2692 C   0  0  0  0  0  0  0  0  0  0  0  0
   28.0407    8.9845   54.8399 O   0  0  0  0  0  0  0  0  0  0  0  0
   27.8363    7.1043   53.6261 N   0  0  0  0  0  0  0  0  0  0  0  0
   27.1790    5.9338   53.1665 C   0  0  0  0  0  0  0  0  0  0  0  0
   28.0671    4.9504   52.7994 C   0  0  0  0  0  0  0  0  0  0  0  0
   27.6243    3.7208   52.3202 C   0  0  0  0  0  0  0  0  0  0  0  0
   28.8725    7.1401   53.4746 H   0  0  0  0  0  0  0  0  0  0  0  0
   23.4377    8.3410   54.0947 C   0  0  0  0  0  0  0  0  0  0  0  0
   22.5072    7.7961   54.9718 C   0  0  0  0  0  0  0  0  0  0  0  0
   21.2556    8.3559   55.1089 C   0  0  0  0  0  0  0  0  0  0  0  0
   20.8808    9.4833   54.3755 C   0  0  0  0  0  0  0  0  0  0  0  0
   21.7967   10.0330   53.5012 C   0  0  0  0  0  0  0  0  0  0  0  0
   23.0450    9.4611   53.3757 C   0  0  0  0  0  0  0  0  0  0  0  0
   21.4653   11.2153   52.7036 C   0  0  0  0  0  0  0  0  0  0  0  0
   21.1686   12.4385   53.2675 C   0  0  0  0  0  0  0  0  0  0  0  0
   20.8554   13.5556   52.5213 C   0  0  0  0  0  0  0  0  0  0  0  0
   20.8443   13.4245   51.1825 N   0  0  0  0  0  0  0  0  0  0  0  0
   21.1262   12.2537   50.5842 C   0  0  0  0  0  0  0  0  0  0  0  0
   21.4401   11.1335   51.3245 C   0  0  0  0  0  0  0  0  0  0  0  0
   28.5737    2.6423   51.9179 C   0  0  0  0  0  0  0  0  0  0  0  0
   29.3790    2.2979   52.9852 F   0  0  0  0  0  0  0  0  0  0  0  0
   29.3787    3.0258   50.8722 F   0  0  0  0  0  0  0  0  0  0  0  0
   27.8245    1.5174   51.6121 F   0  0  0  0  0  0  0  0  0  0  0  0
   25.8275    2.3122   51.7543 O   0  0  0  0  0  0  0  0  0  0  0  0
   26.3492    1.1374   53.7956 C   0  0  0  0  0  0  0  0  0  0  0  0
   25.4091    1.2654   52.6219 C   0  0  0  0  0  0  0  0  0  0  0  0
 31 32  1  0  0  0
 32 30  1  0  0  0
 30  1  1  0  0  0
  1  2  2  0  0  0
  2  3  1  0  0  0
  3  4  1  0  0  0
  4  5  2  0  0  0
  5  6  1  0  0  0
  6  7  1  0  0  0
  7  8  2  0  0  0
  7  9  1  0  0  0
  9 10  1  0  0  0
 10 11  1  0  0  0
 11 12  2  0  0  0
 12 26  1  0  0  0
 26 27  1  0  0  0
 26 28  1  0  0  0
 26 29  1  0  0  0
  5 14  1  0  0  0
 14 15  2  0  0  0
 15 16  1  0  0  0
 16 17  2  0  0  0
 17 18  1  0  0  0
 18 19  2  0  0  0
 18 20  1  0  0  0
 20 21  2  0  0  0
 21 22  1  0  0  0
 22 23  2  0  0  0
 23 24  1  0  0  0
 24 25  2  0  0  0
 12  1  1  0  0  0
 19 14  1  0  0  0
 25 20  1  0  0  0
 10  3  2  0  0  0
  9 13  1  0  0  0
M  END
> <minimizedAffinity>
76.30099

> <CNNscore>
0.3611977100

> <CNNaffinity>
5.3896598816

> <CNN_VS>
1.9467327595

> <CNNaffinity_variance>
0.5668515563

$$$$
[H]c1nc([H])c([H])c(-c2c([H])c([H])c([H])c(C3=Nc4c([H])c(OC([H])([H])C([H])([H])[H])c(C(F)(F)F)c([H])c4N([H])C(=O)C3([H])[H])c2[H])c1[H]


 32 35  0  0  0  0  0  0  0  0999 V2000
   17.6001    5.2287   53.8460 C   0  0  0  0  0  0  0  0  0  0  0  0
   18.4517    6.3042   54.0145 C   0  0  0  0  0  0  0  0  0  0  0  0
   19.8240    6.1663   53.8296 C   0  0  0  0  0  0  0  0  0  0  0  0
   20.4934    7.3731   54.0505 N   0  0  0  0  0  0  0  0  0  0  0  0
   21.7654    7.5849   54.0421 C   0  0  0  0  0  0  0  0  0  0  0  0
   22.9452    6.7734   53.8267 C   0  0  0  0  0  0  0  0  0  0  0  0
   22.7841    5.3690   53.5225 C   0  0  0  0  0  0  0  0  0  0  0  0
   23.8657    4.7169   53.5015 O   0  0  0  0  0  0  0  0  0  0  0  0
   21.6400    4.5544   53.2367 N   0  0  0  0  0  0  0  0  0  0  0  0
   20.2863    4.9086   53.4720 C   0  0  0  0  0  0  0  0  0  0  0  0
   19.4345    3.8420   53.3057 C   0  0  0  0  0  0  0  0  0  0  0  0
   18.0618    3.9794   53.4905 C   0  0  0  0  0  0  0  0  0  0  0  0
   21.8020    3.6086   52.8154 H   0  0  0  0  0  0  0  0  0  0  0  0
   22.0830    8.9960   54.3192 C   0  0  0  0  0  0  0  0  0  0  0  0
   22.8142    9.3838   55.4359 C   0  0  0  0  0  0  0  0  0  0  0  0
   23.0954   10.7126   55.6678 C   0  0  0  0  0  0  0  0  0  0  0  0
   22.6578   11.7099   54.7940 C   0  0  0  0  0  0  0  0  0  0  0  0
   21.9307   11.3366   53.6817 C   0  0  0  0  0  0  0  0  0  0  0  0
   21.6578   10.0027   53.4640 C   0  0  0  0  0  0  0  0  0  0  0  0
   21.4435   12.3342   52.7271 C   0  0  0  0  0  0  0  0  0  0  0  0
   21.8296   12.3533   51.4032 C   0  0  0  0  0  0  0  0  0  0  0  0
   21.3742   13.2906   50.4994 C   0  0  0  0  0  0  0  0  0  0  0  0
   20.5138   14.2211   50.9509 N   0  0  0  0  0  0  0  0  0  0  0  0
   20.1067   14.2456   52.2322 C   0  0  0  0  0  0  0  0  0  0  0  0
   20.5582   13.3114   53.1404 C   0  0  0  0  0  0  0  0  0  0  0  0
   17.1231    2.8329   53.3150 C   0  0  0  0  0  0  0  0  0  0  0  0
   15.8260    3.2944   53.2119 F   0  0  0  0  0  0  0  0  0  0  0  0
   17.1872    1.9472   54.3638 F   0  0  0  0  0  0  0  0  0  0  0  0
   17.4223    2.2282   52.1045 F   0  0  0  0  0  0  0  0  0  0  0  0
   16.2335    5.3582   54.0284 O   0  0  0  0  0  0  0  0  0  0  0  0
   15.5104    7.5666   54.6757 C   0  0  0  0  0  0  0  0  0  0  0  0
   15.5169    6.5094   53.5987 C   0  0  0  0  0  0  0  0  0  0  0  0
 31 32  1  0  0  0
 32 30  1  0  0  0
 30  1  1  0  0  0
  1  2  2  0  0  0
  2  3  1  0  0  0
  3  4  1  0  0  0
  4  5  2  0  0  0
  5  6  1  0  0  0
  6  7  1  0  0  0
  7  8  2  0  0  0
  7  9  1  0  0  0
  9 10  1  0  0  0
 10 11  1  0  0  0
 11 12  2  0  0  0
 12 26  1  0  0  0
 26 27  1  0  0  0
 26 28  1  0  0  0
 26 29  1  0  0  0
  5 14  1  0  0  0
 14 15  2  0  0  0
 15 16  1  0  0  0
 16 17  2  0  0  0
 17 18  1  0  0  0
 18 19  2  0  0  0
 18 20  1  0  0  0
 20 21  2  0  0  0
 21 22  1  0  0  0
 22 23  2  0  0  0
 23 24  1  0  0  0
 24 25  2  0  0  0
 12  1  1  0  0  0
 19 14  1  0  0  0
 25 20  1  0  0  0
 10  3  2  0  0  0
  9 13  1  0  0  0
M  END
> <minimizedAffinity>
51.14830

> <CNNscore>
0.3584443629

> <CNNaffinity>
6.0557298660

> <CNN_VS>
2.1706421375

> <CNNaffinity_variance>
1.3086121082

$$$$
[H]c1nc([H])c([H])c(-c2c([H])c([H])c([H])c(C3=Nc4c([H])c(OC([H])([H])C([H])([H])[H])c(C(F)(F)F)c([H])c4N([H])C(=O)C3([H])[H])c2[H])c1[H]


 32 35  0  0  0  0  0  0  0  0999 V2000
   17.4544    4.4322   53.7308 C   0  0  0  0  0  0  0  0  0  0  0  0
   18.4656    5.3353   53.9990 C   0  0  0  0  0  0  0  0  0  0  0  0
   19.7906    5.0368   53.6963 C   0  0  0  0  0  0  0  0  0  0  0  0
   20.6444    6.0855   54.0495 N   0  0  0  0  0  0  0  0  0  0  0  0
   21.9318    6.1143   53.9813 C   0  0  0  0  0  0  0  0  0  0  0  0
   22.9637    5.1898   53.5599 C   0  0  0  0  0  0  0  0  0  0  0  0
   22.5780    3.8899   53.0578 C   0  0  0  0  0  0  0  0  0  0  0  0
   23.5464    3.1037   52.8594 O   0  0  0  0  0  0  0  0  0  0  0  0
   21.3114    3.3018   52.7348 N   0  0  0  0  0  0  0  0  0  0  0  0
   20.0398    3.8008   53.1188 C   0  0  0  0  0  0  0  0  0  0  0  0
   19.0299    2.9060   52.8541 C   0  0  0  0  0  0  0  0  0  0  0  0
   17.7044    3.2041   53.1566 C   0  0  0  0  0  0  0  0  0  0  0  0
   21.3080    2.4231   52.1638 H   0  0  0  0  0  0  0  0  0  0  0  0
   22.4718    7.4030   54.4464 C   0  0  0  0  0  0  0  0  0  0  0  0
   21.6512    8.4860   54.7395 C   0  0  0  0  0  0  0  0  0  0  0  0
   22.1868    9.6792   55.1729 C   0  0  0  0  0  0  0  0  0  0  0  0
   23.5645    9.8410   55.3317 C   0  0  0  0  0  0  0  0  0  0  0  0
   24.3893    8.7722   55.0435 C   0  0  0  0  0  0  0  0  0  0  0  0
   23.8376    7.5850   54.6109 C   0  0  0  0  0  0  0  0  0  0  0  0
   25.8423    8.8776   55.1897 C   0  0  0  0  0  0  0  0  0  0  0  0
   26.4436    9.4375   56.2976 C   0  0  0  0  0  0  0  0  0  0  0  0
   27.8117    9.5397   56.4408 C   0  0  0  0  0  0  0  0  0  0  0  0
   28.5774    9.0650   55.4418 N   0  0  0  0  0  0  0  0  0  0  0  0
   28.0400    8.5101   54.3411 C   0  0  0  0  0  0  0  0  0  0  0  0
   26.6732    8.4050   54.1920 C   0  0  0  0  0  0  0  0  0  0  0  0
   16.5961    2.2450   52.8769 C   0  0  0  0  0  0  0  0  0  0  0  0
   17.0768    1.1572   52.1756 F   0  0  0  0  0  0  0  0  0  0  0  0
   15.5857    2.8218   52.1453 F   0  0  0  0  0  0  0  0  0  0  0  0
   16.1451    1.7596   54.0940 F   0  0  0  0  0  0  0  0  0  0  0  0
   16.1335    4.7221   54.0292 O   0  0  0  0  0  0  0  0  0  0  0  0
   16.4995    3.5476   56.1042 C   0  0  0  0  0  0  0  0  0  0  0  0
   15.5059    4.2597   55.2190 C   0  0  0  0  0  0  0  0  0  0  0  0
 31 32  1  0  0  0
 32 30  1  0  0  0
 30  1  1  0  0  0
  1  2  2  0  0  0
  2  3  1  0  0  0
  3  4  1  0  0  0
  4  5  2  0  0  0
  5  6  1  0  0  0
  6  7  1  0  0  0
  7  8  2  0  0  0
  7  9  1  0  0  0
  9 10  1  0  0  0
 10 11  1  0  0  0
 11 12  2  0  0  0
 12 26  1  0  0  0
 26 27  1  0  0  0
 26 28  1  0  0  0
 26 29  1  0  0  0
  5 14  1  0  0  0
 14 15  2  0  0  0
 15 16  1  0  0  0
 16 17  2  0  0  0
 17 18  1  0  0  0
 18 19  2  0  0  0
 18 20  1  0  0  0
 20 21  2  0  0  0
 21 22  1  0  0  0
 22 23  2  0  0  0
 23 24  1  0  0  0
 24 25  2  0  0  0
 12  1  1  0  0  0
 19 14  1  0  0  0
 25 20  1  0  0  0
 10  3  2  0  0  0
  9 13  1  0  0  0
M  END
> <minimizedAffinity>
44.84476

> <CNNscore>
0.3446453512

> <CNNaffinity>
6.2578220367

> <CNN_VS>
2.1567292213

> <CNNaffinity_variance>
0.6488745809

$$$$
[H]c1nc([H])c(-c2c([H])c([H])c3c(=O)n(C([H])([H])[H])c4c([H])c(-c5c([H])c([H])c([H])c([H])c5[H])nn4c3c2[H])c([H])n1


 27 31  0  0  0  0  0  0  0  0999 V2000
   29.1735    9.2076   55.0707 C   0  0  0  0  0  0  0  0  0  0  0  0
   27.8594    8.9487   54.5159 N   0  0  0  0  0  0  0  0  0  0  0  0
   27.5931    9.0536   53.1914 C   0  0  0  0  0  0  0  0  0  0  0  0
   28.4175    9.3983   52.1454 C   0  0  0  0  0  0  0  0  0  0  0  0
   27.7090    9.3716   50.9534 C   0  0  0  0  0  0  0  0  0  0  0  0
   26.4681    9.0092   51.3146 N   0  0  0  0  0  0  0  0  0  0  0  0
   26.4028    8.8217   52.6420 N   0  0  0  0  0  0  0  0  0  0  0  0
   25.3789    8.4546   53.4553 C   0  0  0  0  0  0  0  0  0  0  0  0
   24.1227    8.1978   52.9314 C   0  0  0  0  0  0  0  0  0  0  0  0
   23.0604    7.8179   53.7272 C   0  0  0  0  0  0  0  0  0  0  0  0
   23.3319    7.7098   55.0896 C   0  0  0  0  0  0  0  0  0  0  0  0
   24.5432    7.9501   55.6518 C   0  0  0  0  0  0  0  0  0  0  0  0
   25.5805    8.3309   54.7976 C   0  0  0  0  0  0  0  0  0  0  0  0
   26.8472    8.5874   55.3071 C   0  0  0  0  0  0  0  0  0  0  0  0
   26.9990    8.4617   56.5657 O   0  0  0  0  0  0  0  0  0  0  0  0
   21.7415    7.5359   53.2052 C   0  0  0  0  0  0  0  0  0  0  0  0
   20.8232    6.7271   53.8312 C   0  0  0  0  0  0  0  0  0  0  0  0
   19.6070    6.5000   53.3019 N   0  0  0  0  0  0  0  0  0  0  0  0
   19.2280    7.0418   52.1506 C   0  0  0  0  0  0  0  0  0  0  0  0
   20.0948    7.8426   51.5002 N   0  0  0  0  0  0  0  0  0  0  0  0
   21.3122    8.0915   51.9956 C   0  0  0  0  0  0  0  0  0  0  0  0
   28.2368    9.6812   49.6169 C   0  0  0  0  0  0  0  0  0  0  0  0
   28.4825   10.9703   49.2161 C   0  0  0  0  0  0  0  0  0  0  0  0
   28.9826   11.2404   47.9395 C   0  0  0  0  0  0  0  0  0  0  0  0
   29.2480   10.2263   47.0354 C   0  0  0  0  0  0  0  0  0  0  0  0
   28.9981    8.9325   47.4448 C   0  0  0  0  0  0  0  0  0  0  0  0
   28.5032    8.6672   48.7094 C   0  0  0  0  0  0  0  0  0  0  0  0
  1  2  1  0  0  0
  2  3  1  0  0  0
  3  4  2  0  0  0
  4  5  1  0  0  0
  5  6  2  0  0  0
  6  7  1  0  0  0
  7  8  1  0  0  0
  8  9  2  0  0  0
  9 10  1  0  0  0
 10 11  2  0  0  0
 11 12  1  0  0  0
 12 13  2  0  0  0
 13 14  1  0  0  0
 14 15  2  0  0  0
 10 16  1  0  0  0
 16 17  2  0  0  0
 17 18  1  0  0  0
 18 19  2  0  0  0
 19 20  1  0  0  0
 20 21  2  0  0  0
  5 22  1  0  0  0
 22 23  2  0  0  0
 23 24  1  0  0  0
 24 25  2  0  0  0
 25 26  1  0  0  0
 26 27  2  0  0  0
 14  2  1  0  0  0
 21 16  1  0  0  0
 27 22  1  0  0  0
  7  3  1  0  0  0
 13  8  1  0  0  0
M  END
> <minimizedAffinity>
32.16873

> <CNNscore>
0.5270677209

> <CNNaffinity>
6.1506261826

> <CNN_VS>
3.2417964935

> <CNNaffinity_variance>
0.2782543600

$$$$
[H]c1nc([H])c(-c2c([H])c([H])c3c(=O)n(C([H])([H])[H])c4c([H])c(-c5c([H])c([H])c([H])c([H])c5[H])nn4c3c2[H])c([H])n1


 27 31  0  0  0  0  0  0  0  0999 V2000
   21.3312    6.0344   52.2898 C   0  0  0  0  0  0  0  0  0  0  0  0
   22.3127    6.8241   53.0071 N   0  0  0  0  0  0  0  0  0  0  0  0
   22.3693    8.1750   52.9166 C   0  0  0  0  0  0  0  0  0  0  0  0
   21.5906    9.0491   52.1941 C   0  0  0  0  0  0  0  0  0  0  0  0
   22.0137   10.3522   52.4100 C   0  0  0  0  0  0  0  0  0  0  0  0
   23.0432   10.2284   53.2623 N   0  0  0  0  0  0  0  0  0  0  0  0
   23.2514    8.9365   53.5605 N   0  0  0  0  0  0  0  0  0  0  0  0
   24.1608    8.3282   54.3651 C   0  0  0  0  0  0  0  0  0  0  0  0
   25.0964    9.0768   55.0599 C   0  0  0  0  0  0  0  0  0  0  0  0
   26.0322    8.4928   55.8902 C   0  0  0  0  0  0  0  0  0  0  0  0
   25.9760    7.1038   55.9845 C   0  0  0  0  0  0  0  0  0  0  0  0
   25.0806    6.3258   55.3255 C   0  0  0  0  0  0  0  0  0  0  0  0
   24.1577    6.9718   54.4999 C   0  0  0  0  0  0  0  0  0  0  0  0
   23.2101    6.2354   53.8002 C   0  0  0  0  0  0  0  0  0  0  0  0
   23.2367    4.9705   53.9502 O   0  0  0  0  0  0  0  0  0  0  0  0
   27.0141    9.2513   56.6331 C   0  0  0  0  0  0  0  0  0  0  0  0
   27.4694   10.4936   56.2603 C   0  0  0  0  0  0  0  0  0  0  0  0
   28.3838   11.1578   56.9908 N   0  0  0  0  0  0  0  0  0  0  0  0
   28.8950   10.6526   58.1071 C   0  0  0  0  0  0  0  0  0  0  0  0
   28.4786    9.4370   58.5129 N   0  0  0  0  0  0  0  0  0  0  0  0
   27.5711    8.7472   57.8128 C   0  0  0  0  0  0  0  0  0  0  0  0
   21.4378   11.5669   51.8155 C   0  0  0  0  0  0  0  0  0  0  0  0
   21.3105   12.7320   52.5290 C   0  0  0  0  0  0  0  0  0  0  0  0
   20.7579   13.8740   51.9431 C   0  0  0  0  0  0  0  0  0  0  0  0
   20.3203   13.8754   50.6298 C   0  0  0  0  0  0  0  0  0  0  0  0
   20.4508   12.7003   49.9183 C   0  0  0  0  0  0  0  0  0  0  0  0
   20.9985   11.5708   50.5003 C   0  0  0  0  0  0  0  0  0  0  0  0
  1  2  1  0  0  0
  2  3  1  0  0  0
  3  4  2  0  0  0
  4  5  1  0  0  0
  5  6  2  0  0  0
  6  7  1  0  0  0
  7  8  1  0  0  0
  8  9  2  0  0  0
  9 10  1  0  0  0
 10 11  2  0  0  0
 11 12  1  0  0  0
 12 13  2  0  0  0
 13 14  1  0  0  0
 14 15  2  0  0  0
 10 16  1  0  0  0
 16 17  2  0  0  0
 17 18  1  0  0  0
 18 19  2  0  0  0
 19 20  1  0  0  0
 20 21  2  0  0  0
  5 22  1  0  0  0
 22 23  2  0  0  0
 23 24  1  0  0  0
 24 25  2  0  0  0
 25 26  1  0  0  0
 26 27  2  0  0  0
 14  2  1  0  0  0
 21 16  1  0  0  0
 27 22  1  0  0  0
  7  3  1  0  0  0
 13  8  1  0  0  0
M  END
> <minimizedAffinity>
39.62284

> <CNNscore>
0.4908801317

> <CNNaffinity>
5.9055204391

> <CNN_VS>
2.8989026546

> <CNNaffinity_variance>
0.4881106317

$$$$
[H]c1nc([H])c(-c2c([H])c([H])c3c(=O)n(C([H])([H])[H])c4c([H])c(-c5c([H])c([H])c([H])c([H])c5[H])nn4c3c2[H])c([H])n1


 27 31  0  0  0  0  0  0  0  0999 V2000
   22.2590   11.4948   51.9473 C   0  0  0  0  0  0  0  0  0  0  0  0
   22.0459   10.1093   52.3167 N   0  0  0  0  0  0  0  0  0  0  0  0
   22.9481    9.3991   53.0364 C   0  0  0  0  0  0  0  0  0  0  0  0
   24.1699    9.7742   53.5452 C   0  0  0  0  0  0  0  0  0  0  0  0
   24.7494    8.7112   54.2217 C   0  0  0  0  0  0  0  0  0  0  0  0
   23.8559    7.7168   54.1020 N   0  0  0  0  0  0  0  0  0  0  0  0
   22.7893    8.1279   53.3987 N   0  0  0  0  0  0  0  0  0  0  0  0
   21.6495    7.4900   53.0267 C   0  0  0  0  0  0  0  0  0  0  0  0
   21.4352    6.1688   53.3829 C   0  0  0  0  0  0  0  0  0  0  0  0
   20.2867    5.4906   53.0265 C   0  0  0  0  0  0  0  0  0  0  0  0
   19.3577    6.2189   52.2862 C   0  0  0  0  0  0  0  0  0  0  0  0
   19.5199    7.5131   51.9122 C   0  0  0  0  0  0  0  0  0  0  0  0
   20.7014    8.1480   52.3014 C   0  0  0  0  0  0  0  0  0  0  0  0
   20.9290    9.4742   51.9559 C   0  0  0  0  0  0  0  0  0  0  0  0
   20.0216   10.0576   51.2781 O   0  0  0  0  0  0  0  0  0  0  0  0
   20.0344    4.1143   53.3923 C   0  0  0  0  0  0  0  0  0  0  0  0
   20.4508    3.0331   52.6528 C   0  0  0  0  0  0  0  0  0  0  0  0
   20.1909    1.7711   53.0410 N   0  0  0  0  0  0  0  0  0  0  0  0
   19.5207    1.5011   54.1548 C   0  0  0  0  0  0  0  0  0  0  0  0
   19.0922    2.5293   54.9131 N   0  0  0  0  0  0  0  0  0  0  0  0
   19.3319    3.7970   54.5593 C   0  0  0  0  0  0  0  0  0  0  0  0
   26.0533    8.7149   54.9005 C   0  0  0  0  0  0  0  0  0  0  0  0
   26.1883    9.1107   56.2073 C   0  0  0  0  0  0  0  0  0  0  0  0
   27.4388    9.1077   56.8311 C   0  0  0  0  0  0  0  0  0  0  0  0
   28.5823    8.7084   56.1608 C   0  0  0  0  0  0  0  0  0  0  0  0
   28.4393    8.3122   54.8467 C   0  0  0  0  0  0  0  0  0  0  0  0
   27.2001    8.3156   54.2311 C   0  0  0  0  0  0  0  0  0  0  0  0
  1  2  1  0  0  0
  2  3  1  0  0  0
  3  4  2  0  0  0
  4  5  1  0  0  0
  5  6  2  0  0  0
  6  7  1  0  0  0
  7  8  1  0  0  0
  8  9  2  0  0  0
  9 10  1  0  0  0
 10 11  2  0  0  0
 11 12  1  0  0  0
 12 13  2  0  0  0
 13 14  1  0  0  0
 14 15  2  0  0  0
 10 16  1  0  0  0
 16 17  2  0  0  0
 17 18  1  0  0  0
 18 19  2  0  0  0
 19 20  1  0  0  0
 20 21  2  0  0  0
  5 22  1  0  0  0
 22 23  2  0  0  0
 23 24  1  0  0  0
 24 25  2  0  0  0
 25 26  1  0  0  0
 26 27  2  0  0  0
 14  2  1  0  0  0
 21 16  1  0  0  0
 27 22  1  0  0  0
  7  3  1  0  0  0
 13  8  1  0  0  0
M  END
> <minimizedAffinity>
42.95655

> <CNNscore>
0.4660356939

> <CNNaffinity>
6.2579288483

> <CNN_VS>
2.9164183140

> <CNNaffinity_variance>
0.9111199379

$$$$
[H]c1nc([H])c(-c2c([H])c([H])c3c(=O)n(C([H])([H])[H])c4c([H])c(-c5c([H])c([H])c([H])c([H])c5[H])nn4c3c2[H])c([H])n1


 27 31  0  0  0  0  0  0  0  0999 V2000
   29.3065    8.0178   54.8843 C   0  0  0  0  0  0  0  0  0  0  0  0
   27.9493    8.1159   54.3846 N   0  0  0  0  0  0  0  0  0  0  0  0
   27.6636    8.5249   53.1246 C   0  0  0  0  0  0  0  0  0  0  0  0
   28.5031    8.9122   52.1059 C   0  0  0  0  0  0  0  0  0  0  0  0
   27.7628    9.2488   50.9824 C   0  0  0  0  0  0  0  0  0  0  0  0
   26.4884    9.0543   51.3559 N   0  0  0  0  0  0  0  0  0  0  0  0
   26.4331    8.6253   52.6264 N   0  0  0  0  0  0  0  0  0  0  0  0
   25.3858    8.2983   53.4268 C   0  0  0  0  0  0  0  0  0  0  0  0
   24.0867    8.3816   52.9537 C   0  0  0  0  0  0  0  0  0  0  0  0
   22.9987    8.0526   53.7373 C   0  0  0  0  0  0  0  0  0  0  0  0
   23.2901    7.6321   55.0333 C   0  0  0  0  0  0  0  0  0  0  0  0
   24.5433    7.5335   55.5442 C   0  0  0  0  0  0  0  0  0  0  0  0
   25.6050    7.8793   54.7052 C   0  0  0  0  0  0  0  0  0  0  0  0
   26.9138    7.7965   55.1635 C   0  0  0  0  0  0  0  0  0  0  0  0
   27.0810    7.4012   56.3631 O   0  0  0  0  0  0  0  0  0  0  0  0
   21.6334    8.1228   53.2656 C   0  0  0  0  0  0  0  0  0  0  0  0
   21.2693    8.6135   52.0343 C   0  0  0  0  0  0  0  0  0  0  0  0
   19.9821    8.6535   51.6439 N   0  0  0  0  0  0  0  0  0  0  0  0
   18.9965    8.2236   52.4226 C   0  0  0  0  0  0  0  0  0  0  0  0
   19.3050    7.7334   53.6393 N   0  0  0  0  0  0  0  0  0  0  0  0
   20.5731    7.6776   54.0616 C   0  0  0  0  0  0  0  0  0  0  0  0
   28.2949    9.7131   49.6932 C   0  0  0  0  0  0  0  0  0  0  0  0
   28.3875    8.8811   48.6060 C   0  0  0  0  0  0  0  0  0  0  0  0
   28.8987    9.3445   47.3909 C   0  0  0  0  0  0  0  0  0  0  0  0
   29.3288   10.6513   47.2366 C   0  0  0  0  0  0  0  0  0  0  0  0
   29.2333   11.4823   48.3340 C   0  0  0  0  0  0  0  0  0  0  0  0
   28.7265   11.0214   49.5362 C   0  0  0  0  0  0  0  0  0  0  0  0
  1  2  1  0  0  0
  2  3  1  0  0  0
  3  4  2  0  0  0
  4  5  1  0  0  0
  5  6  2  0  0  0
  6  7  1  0  0  0
  7  8  1  0  0  0
  8  9  2  0  0  0
  9 10  1  0  0  0
 10 11  2  0  0  0
 11 12  1  0  0  0
 12 13  2  0  0  0
 13 14  1  0  0  0
 14 15  2  0  0  0
 10 16  1  0  0  0
 16 17  2  0  0  0
 17 18  1  0  0  0
 18 19  2  0  0  0
 19 20  1  0  0  0
 20 21  2  0  0  0
  5 22  1  0  0  0
 22 23  2  0  0  0
 23 24  1  0  0  0
 24 25  2  0  0  0
 25 26  1  0  0  0
 26 27  2  0  0  0
 14  2  1  0  0  0
 21 16  1  0  0  0
 27 22  1  0  0  0
  7  3  1  0  0  0
 13  8  1  0  0  0
M  END
> <minimizedAffinity>
42.92802

> <CNNscore>
0.4646181762

> <CNNaffinity>
5.8446674347

> <CNN_VS>
2.7155387402

> <CNNaffinity_variance>
0.1984968930

$$$$
[H]c1nc([H])c(-c2c([H])c([H])c3c(=O)n(C([H])([H])[H])c4c([H])c(-c5c([H])c([H])c([H])c([H])c5[H])nn4c3c2[H])c([H])n1


 27 31  0  0  0  0  0  0  0  0999 V2000
   19.8849    6.2739   52.7142 C   0  0  0  0  0  0  0  0  0  0  0  0
   21.1459    6.8980   53.0636 N   0  0  0  0  0  0  0  0  0  0  0  0
   21.4631    8.1612   52.6894 C   0  0  0  0  0  0  0  0  0  0  0  0
   20.7432    9.0767   51.9572 C   0  0  0  0  0  0  0  0  0  0  0  0
   21.4679   10.2513   51.8208 C   0  0  0  0  0  0  0  0  0  0  0  0
   22.6131   10.0113   52.4785 N   0  0  0  0  0  0  0  0  0  0  0  0
   22.6070    8.7713   52.9921 N   0  0  0  0  0  0  0  0  0  0  0  0
   23.5255    8.0904   53.7251 C   0  0  0  0  0  0  0  0  0  0  0  0
   24.7290    8.6830   54.0696 C   0  0  0  0  0  0  0  0  0  0  0  0
   25.6834    8.0228   54.8175 C   0  0  0  0  0  0  0  0  0  0  0  0
   25.3596    6.7237   55.2031 C   0  0  0  0  0  0  0  0  0  0  0  0
   24.1961    6.0987   54.8917 C   0  0  0  0  0  0  0  0  0  0  0  0
   23.2681    6.8157   54.1333 C   0  0  0  0  0  0  0  0  0  0  0  0
   22.0545    6.2369   53.7836 C   0  0  0  0  0  0  0  0  0  0  0  0
   21.8480    5.0446   54.1822 O   0  0  0  0  0  0  0  0  0  0  0  0
   26.9441    8.6210   55.1979 C   0  0  0  0  0  0  0  0  0  0  0  0
   27.9564    8.9093   54.3139 C   0  0  0  0  0  0  0  0  0  0  0  0
   29.1102    9.4692   54.7216 N   0  0  0  0  0  0  0  0  0  0  0  0
   29.3342    9.7728   55.9944 C   0  0  0  0  0  0  0  0  0  0  0  0
   28.3702    9.5088   56.8981 N   0  0  0  0  0  0  0  0  0  0  0  0
   27.2104    8.9529   56.5301 C   0  0  0  0  0  0  0  0  0  0  0  0
   21.0414   11.4622   51.1050 C   0  0  0  0  0  0  0  0  0  0  0  0
   20.3914   11.3989   49.8981 C   0  0  0  0  0  0  0  0  0  0  0  0
   19.9971   12.5641   49.2350 C   0  0  0  0  0  0  0  0  0  0  0  0
   20.2445   13.8188   49.7649 C   0  0  0  0  0  0  0  0  0  0  0  0
   20.8989   13.8750   50.9785 C   0  0  0  0  0  0  0  0  0  0  0  0
   21.2882   12.7201   51.6336 C   0  0  0  0  0  0  0  0  0  0  0  0
  1  2  1  0  0  0
  2  3  1  0  0  0
  3  4  2  0  0  0
  4  5  1  0  0  0
  5  6  2  0  0  0
  6  7  1  0  0  0
  7  8  1  0  0  0
  8  9  2  0  0  0
  9 10  1  0  0  0
 10 11  2  0  0  0
 11 12  1  0  0  0
 12 13  2  0  0  0
 13 14  1  0  0  0
 14 15  2  0  0  0
 10 16  1  0  0  0
 16 17  2  0  0  0
 17 18  1  0  0  0
 18 19  2  0  0  0
 19 20  1  0  0  0
 20 21  2  0  0  0
  5 22  1  0  0  0
 22 23  2  0  0  0
 23 24  1  0  0  0
 24 25  2  0  0  0
 25 26  1  0  0  0
 26 27  2  0  0  0
 14  2  1  0  0  0
 21 16  1  0  0  0
 27 22  1  0  0  0
  7  3  1  0  0  0
 13  8  1  0  0  0
M  END
> <minimizedAffinity>
33.91911

> <CNNscore>
0.4388566911

> <CNNaffinity>
6.2263951302

> <CNN_VS>
2.7324950695

> <CNNaffinity_variance>
0.4369538426

$$$$
[H]c1nc([H])c(-c2c([H])c([H])c3c(=O)n(C([H])([H])[H])c4c([H])c(-c5c([H])c([H])c([H])c([H])c5[H])nn4c3c2[H])c([H])n1


 27 31  0  0  0  0  0  0  0  0999 V2000
   25.6007    7.2191   52.8387 C   0  0  0  0  0  0  0  0  0  0  0  0
   24.1943    6.8999   52.9862 N   0  0  0  0  0  0  0  0  0  0  0  0
   23.2184    7.8326   52.8683 C   0  0  0  0  0  0  0  0  0  0  0  0
   23.3062    9.1804   52.6070 C   0  0  0  0  0  0  0  0  0  0  0  0
   22.0384    9.7418   52.5749 C   0  0  0  0  0  0  0  0  0  0  0  0
   21.2143    8.7109   52.8193 N   0  0  0  0  0  0  0  0  0  0  0  0
   21.9171    7.5807   52.9929 N   0  0  0  0  0  0  0  0  0  0  0  0
   21.5306    6.3057   53.2564 C   0  0  0  0  0  0  0  0  0  0  0  0
   20.1882    5.9917   53.3905 C   0  0  0  0  0  0  0  0  0  0  0  0
   19.7589    4.7061   53.6533 C   0  0  0  0  0  0  0  0  0  0  0  0
   20.7608    3.7455   53.7753 C   0  0  0  0  0  0  0  0  0  0  0  0
   22.0877    4.0013   53.6530 C   0  0  0  0  0  0  0  0  0  0  0  0
   22.4629    5.3200   53.3868 C   0  0  0  0  0  0  0  0  0  0  0  0
   23.8049    5.6500   53.2449 C   0  0  0  0  0  0  0  0  0  0  0  0
   24.6483    4.7037   53.3731 O   0  0  0  0  0  0  0  0  0  0  0  0
   18.3639    4.3498   53.7897 C   0  0  0  0  0  0  0  0  0  0  0  0
   17.3295    5.2526   53.7240 C   0  0  0  0  0  0  0  0  0  0  0  0
   16.0471    4.8663   53.8551 N   0  0  0  0  0  0  0  0  0  0  0  0
   15.7110    3.5975   54.0547 C   0  0  0  0  0  0  0  0  0  0  0  0
   16.6914    2.6758   54.1260 N   0  0  0  0  0  0  0  0  0  0  0  0
   17.9774    3.0223   54.0001 C   0  0  0  0  0  0  0  0  0  0  0  0
   21.7150   11.1543   52.3284 C   0  0  0  0  0  0  0  0  0  0  0  0
   21.9512   11.7503   51.1151 C   0  0  0  0  0  0  0  0  0  0  0  0
   21.6372   13.0956   50.9047 C   0  0  0  0  0  0  0  0  0  0  0  0
   21.0797   13.8747   51.9040 C   0  0  0  0  0  0  0  0  0  0  0  0
   20.8455   13.2692   53.1217 C   0  0  0  0  0  0  0  0  0  0  0  0
   21.1568   11.9369   53.3277 C   0  0  0  0  0  0  0  0  0  0  0  0
  1  2  1  0  0  0
  2  3  1  0  0  0
  3  4  2  0  0  0
  4  5  1  0  0  0
  5  6  2  0  0  0
  6  7  1  0  0  0
  7  8  1  0  0  0
  8  9  2  0  0  0
  9 10  1  0  0  0
 10 11  2  0  0  0
 11 12  1  0  0  0
 12 13  2  0  0  0
 13 14  1  0  0  0
 14 15  2  0  0  0
 10 16  1  0  0  0
 16 17  2  0  0  0
 17 18  1  0  0  0
 18 19  2  0  0  0
 19 20  1  0  0  0
 20 21  2  0  0  0
  5 22  1  0  0  0
 22 23  2  0  0  0
 23 24  1  0  0  0
 24 25  2  0  0  0
 25 26  1  0  0  0
 26 27  2  0  0  0
 14  2  1  0  0  0
 21 16  1  0  0  0
 27 22  1  0  0  0
  7  3  1  0  0  0
 13  8  1  0  0  0
M  END
> <minimizedAffinity>
46.48609

> <CNNscore>
0.4140478969

> <CNNaffinity>
6.2053346634

> <CNN_VS>
2.5693056583

> <CNNaffinity_variance>
1.2369517088

$$$$
[H]c1nc([H])c(-c2c([H])c([H])c3c(=O)n(C([H])([H])[H])c4c([H])c(-c5c([H])c([H])c([H])c([H])c5[H])nn4c3c2[H])c([H])n1


 27 31  0  0  0  0  0  0  0  0999 V2000
   26.3411    8.5289   57.1230 C   0  0  0  0  0  0  0  0  0  0  0  0
   26.5286    8.6955   55.6952 N   0  0  0  0  0  0  0  0  0  0  0  0
   25.5752    8.3648   54.7908 C   0  0  0  0  0  0  0  0  0  0  0  0
   24.3177    7.8398   54.9792 C   0  0  0  0  0  0  0  0  0  0  0  0
   23.6880    7.6642   53.7560 C   0  0  0  0  0  0  0  0  0  0  0  0
   24.5884    8.0907   52.8566 N   0  0  0  0  0  0  0  0  0  0  0  0
   25.7060    8.5052   53.4734 N   0  0  0  0  0  0  0  0  0  0  0  0
   26.8702    9.0132   52.9926 C   0  0  0  0  0  0  0  0  0  0  0  0
   27.0534    9.1829   51.6302 C   0  0  0  0  0  0  0  0  0  0  0  0
   28.2212    9.7007   51.1066 C   0  0  0  0  0  0  0  0  0  0  0  0
   29.2030   10.0412   52.0348 C   0  0  0  0  0  0  0  0  0  0  0  0
   29.0731    9.8946   53.3775 C   0  0  0  0  0  0  0  0  0  0  0  0
   27.8697    9.3659   53.8496 C   0  0  0  0  0  0  0  0  0  0  0  0
   27.6689    9.1940   55.2134 C   0  0  0  0  0  0  0  0  0  0  0  0
   28.6242    9.5345   55.9845 O   0  0  0  0  0  0  0  0  0  0  0  0
   28.4350    9.8959   49.6896 C   0  0  0  0  0  0  0  0  0  0  0  0
   28.5376    8.8714   48.7789 C   0  0  0  0  0  0  0  0  0  0  0  0
   28.7344    9.1095   47.4692 N   0  0  0  0  0  0  0  0  0  0  0  0
   28.8402   10.3415   46.9857 C   0  0  0  0  0  0  0  0  0  0  0  0
   28.7457   11.3785   47.8408 N   0  0  0  0  0  0  0  0  0  0  0  0
   28.5501   11.1808   49.1494 C   0  0  0  0  0  0  0  0  0  0  0  0
   22.3379    7.1252   53.5385 C   0  0  0  0  0  0  0  0  0  0  0  0
   22.0247    5.8198   53.8229 C   0  0  0  0  0  0  0  0  0  0  0  0
   20.7344    5.3292   53.6059 C   0  0  0  0  0  0  0  0  0  0  0  0
   19.7284    6.1340   53.0994 C   0  0  0  0  0  0  0  0  0  0  0  0
   20.0505    7.4454   52.8151 C   0  0  0  0  0  0  0  0  0  0  0  0
   21.3286    7.9293   53.0310 C   0  0  0  0  0  0  0  0  0  0  0  0
  1  2  1  0  0  0
  2  3  1  0  0  0
  3  4  2  0  0  0
  4  5  1  0  0  0
  5  6  2  0  0  0
  6  7  1  0  0  0
  7  8  1  0  0  0
  8  9  2  0  0  0
  9 10  1  0  0  0
 10 11  2  0  0  0
 11 12  1  0  0  0
 12 13  2  0  0  0
 13 14  1  0  0  0
 14 15  2  0  0  0
 10 16  1  0  0  0
 16 17  2  0  0  0
 17 18  1  0  0  0
 18 19  2  0  0  0
 19 20  1  0  0  0
 20 21  2  0  0  0
  5 22  1  0  0  0
 22 23  2  0  0  0
 23 24  1  0  0  0
 24 25  2  0  0  0
 25 26  1  0  0  0
 26 27  2  0  0  0
 14  2  1  0  0  0
 21 16  1  0  0  0
 27 22  1  0  0  0
  7  3  1  0  0  0
 13  8  1  0  0  0
M  END
> <minimizedAffinity>
35.06400

> <CNNscore>
0.3993838131

> <CNNaffinity>
5.5897607803

> <CNN_VS>
2.2324600220

> <CNNaffinity_variance>
0.0914960057

$$$$
[H]c1nc([H])c(-c2c([H])c([H])c3c(=O)n(C([H])([H])[H])c4c([H])c(-c5c([H])c([H])c([H])c([H])c5[H])nn4c3c2[H])c([H])n1


 27 31  0  0  0  0  0  0  0  0999 V2000
   23.6767    4.3850   55.4630 C   0  0  0  0  0  0  0  0  0  0  0  0
   23.1103    5.5269   54.7723 N   0  0  0  0  0  0  0  0  0  0  0  0
   21.8395    5.5381   54.3018 C   0  0  0  0  0  0  0  0  0  0  0  0
   20.8657    4.5678   54.3538 C   0  0  0  0  0  0  0  0  0  0  0  0
   19.7082    5.0232   53.7404 C   0  0  0  0  0  0  0  0  0  0  0  0
   20.0168    6.2640   53.3320 N   0  0  0  0  0  0  0  0  0  0  0  0
   21.2810    6.5660   53.6663 N   0  0  0  0  0  0  0  0  0  0  0  0
   22.0268    7.6841   53.4707 C   0  0  0  0  0  0  0  0  0  0  0  0
   21.4898    8.7819   52.8189 C   0  0  0  0  0  0  0  0  0  0  0  0
   22.2167    9.9364   52.6071 C   0  0  0  0  0  0  0  0  0  0  0  0
   23.5238    9.9269   53.0898 C   0  0  0  0  0  0  0  0  0  0  0  0
   24.0960    8.8786   53.7338 C   0  0  0  0  0  0  0  0  0  0  0  0
   23.3126    7.7374   53.9198 C   0  0  0  0  0  0  0  0  0  0  0  0
   23.8352    6.6299   54.5757 C   0  0  0  0  0  0  0  0  0  0  0  0
   25.0398    6.7153   54.9817 O   0  0  0  0  0  0  0  0  0  0  0  0
   21.6778   11.0993   51.9372 C   0  0  0  0  0  0  0  0  0  0  0  0
   21.0564   11.0620   50.7117 C   0  0  0  0  0  0  0  0  0  0  0  0
   20.5699   12.1756   50.1337 N   0  0  0  0  0  0  0  0  0  0  0  0
   20.6627   13.3671   50.7121 C   0  0  0  0  0  0  0  0  0  0  0  0
   21.2639   13.4533   51.9149 N   0  0  0  0  0  0  0  0  0  0  0  0
   21.7594   12.3680   52.5202 C   0  0  0  0  0  0  0  0  0  0  0  0
   18.4492    4.2795   53.5900 C   0  0  0  0  0  0  0  0  0  0  0  0
   18.3768    3.1178   52.8632 C   0  0  0  0  0  0  0  0  0  0  0  0
   17.1680    2.4289   52.7325 C   0  0  0  0  0  0  0  0  0  0  0  0
   16.0046    2.8873   53.3264 C   0  0  0  0  0  0  0  0  0  0  0  0
   16.0846    4.0562   54.0553 C   0  0  0  0  0  0  0  0  0  0  0  0
   17.2825    4.7366   54.1837 C   0  0  0  0  0  0  0  0  0  0  0  0
  1  2  1  0  0  0
  2  3  1  0  0  0
  3  4  2  0  0  0
  4  5  1  0  0  0
  5  6  2  0  0  0
  6  7  1  0  0  0
  7  8  1  0  0  0
  8  9  2  0  0  0
  9 10  1  0  0  0
 10 11  2  0  0  0
 11 12  1  0  0  0
 12 13  2  0  0  0
 13 14  1  0  0  0
 14 15  2  0  0  0
 10 16  1  0  0  0
 16 17  2  0  0  0
 17 18  1  0  0  0
 18 19  2  0  0  0
 19 20  1  0  0  0
 20 21  2  0  0  0
  5 22  1  0  0  0
 22 23  2  0  0  0
 23 24  1  0  0  0
 24 25  2  0  0  0
 25 26  1  0  0  0
 26 27  2  0  0  0
 14  2  1  0  0  0
 21 16  1  0  0  0
 27 22  1  0  0  0
  7  3  1  0  0  0
 13  8  1  0  0  0
M  END
> <minimizedAffinity>
39.02720

> <CNNscore>
0.3927758038

> <CNNaffinity>
6.0636119843

> <CNN_VS>
2.3816399574

> <CNNaffinity_variance>
0.5487338305

$$$$
[H]c1nc([H])c(-c2c([H])c([H])c3c(=O)n(C([H])([H])[H])c4c([H])c(-c5c([H])c([H])c([H])c([H])c5[H])nn4c3c2[H])c([H])n1


 27 31  0  0  0  0  0  0  0  0999 V2000
   22.5673    6.6651   52.0797 C   0  0  0  0  0  0  0  0  0  0  0  0
   23.3995    7.3807   53.0268 N   0  0  0  0  0  0  0  0  0  0  0  0
   23.0827    8.6143   53.4896 C   0  0  0  0  0  0  0  0  0  0  0  0
   22.0027    9.4179   53.2059 C   0  0  0  0  0  0  0  0  0  0  0  0
   22.0930   10.6042   53.9187 C   0  0  0  0  0  0  0  0  0  0  0  0
   23.2325   10.4837   54.6178 N   0  0  0  0  0  0  0  0  0  0  0  0
   23.8167    9.3030   54.3610 N   0  0  0  0  0  0  0  0  0  0  0  0
   24.9629    8.7404   54.8237 C   0  0  0  0  0  0  0  0  0  0  0  0
   25.7589    9.4147   55.7348 C   0  0  0  0  0  0  0  0  0  0  0  0
   26.9275    8.8715   56.2301 C   0  0  0  0  0  0  0  0  0  0  0  0
   27.2554    7.6033   55.7553 C   0  0  0  0  0  0  0  0  0  0  0  0
   26.5108    6.9018   54.8638 C   0  0  0  0  0  0  0  0  0  0  0  0
   25.3387    7.5014   54.3976 C   0  0  0  0  0  0  0  0  0  0  0  0
   24.5274    6.8360   53.4872 C   0  0  0  0  0  0  0  0  0  0  0  0
   24.9095    5.6802   53.1112 O   0  0  0  0  0  0  0  0  0  0  0  0
   27.7721    9.5503   57.1879 C   0  0  0  0  0  0  0  0  0  0  0  0
   28.4923    8.9100   58.1681 C   0  0  0  0  0  0  0  0  0  0  0  0
   29.2659    9.5910   59.0333 N   0  0  0  0  0  0  0  0  0  0  0  0
   29.3762   10.9133   58.9888 C   0  0  0  0  0  0  0  0  0  0  0  0
   28.6886   11.5849   58.0443 N   0  0  0  0  0  0  0  0  0  0  0  0
   27.9097   10.9420   57.1671 C   0  0  0  0  0  0  0  0  0  0  0  0
   21.1351   11.7186   53.8841 C   0  0  0  0  0  0  0  0  0  0  0  0
   20.2088   11.9085   54.8784 C   0  0  0  0  0  0  0  0  0  0  0  0
   19.3067   12.9742   54.8229 C   0  0  0  0  0  0  0  0  0  0  0  0
   19.3115   13.8740   53.7709 C   0  0  0  0  0  0  0  0  0  0  0  0
   20.2453   13.6768   52.7742 C   0  0  0  0  0  0  0  0  0  0  0  0
   21.1378   12.6210   52.8313 C   0  0  0  0  0  0  0  0  0  0  0  0
  1  2  1  0  0  0
  2  3  1  0  0  0
  3  4  2  0  0  0
  4  5  1  0  0  0
  5  6  2  0  0  0
  6  7  1  0  0  0
  7  8  1  0  0  0
  8  9  2  0  0  0
  9 10  1  0  0  0
 10 11  2  0  0  0
 11 12  1  0  0  0
 12 13  2  0  0  0
 13 14  1  0  0  0
 14 15  2  0  0  0
 10 16  1  0  0  0
 16 17  2  0  0  0
 17 18  1  0  0  0
 18 19  2  0  0  0
 19 20  1  0  0  0
 20 21  2  0  0  0
  5 22  1  0  0  0
 22 23  2  0  0  0
 23 24  1  0  0  0
 24 25  2  0  0  0
 25 26  1  0  0  0
 26 27  2  0  0  0
 14  2  1  0  0  0
 21 16  1  0  0  0
 27 22  1  0  0  0
  7  3  1  0  0  0
 13  8  1  0  0  0
M  END
> <minimizedAffinity>
43.12035

> <CNNscore>
0.3811251819

> <CNNaffinity>
5.7528219223

> <CNN_VS>
2.1925454140

> <CNNaffinity_variance>
0.2794374526

$$$$
[H]c1nc([H])n(-c2c([H])c([H])c([H])c(C3=Nc4c([H])c([H])c(-c5c([H])c([H])c(F)c([H])c5[H])c([H])c4N([H])C(=O)C3([H])[H])c2[H])c1[H]


 31 35  0  0  0  0  0  0  0  0999 V2000
   19.9998    5.1456   53.5512 C   0  0  0  0  0  0  0  0  0  0  0  0
   21.2189    4.5064   53.4530 C   0  0  0  0  0  0  0  0  0  0  0  0
   22.4245    5.1746   53.4837 C   0  0  0  0  0  0  0  0  0  0  0  0
   22.4476    6.5319   53.6164 C   0  0  0  0  0  0  0  0  0  0  0  0
   23.7423    7.1110   53.6311 N   0  0  0  0  0  0  0  0  0  0  0  0
   24.2078    8.2206   54.1601 C   0  0  0  0  0  0  0  0  0  0  0  0
   23.4160    9.1846   54.9173 C   0  0  0  0  0  0  0  0  0  0  0  0
   22.1032    9.5335   54.2437 C   0  0  0  0  0  0  0  0  0  0  0  0
   21.8819   10.7536   53.9937 O   0  0  0  0  0  0  0  0  0  0  0  0
   21.0854    8.6183   53.8612 N   0  0  0  0  0  0  0  0  0  0  0  0
   21.2209    7.2008   53.7177 C   0  0  0  0  0  0  0  0  0  0  0  0
   20.0452    6.5190   53.6848 C   0  0  0  0  0  0  0  0  0  0  0  0
   20.1313    8.9863   53.6586 H   0  0  0  0  0  0  0  0  0  0  0  0
   15.1701    2.2295   53.4096 F   0  0  0  0  0  0  0  0  0  0  0  0
   16.3258    2.9477   53.4565 C   0  0  0  0  0  0  0  0  0  0  0  0
   16.4323    4.1328   54.1374 C   0  0  0  0  0  0  0  0  0  0  0  0
   17.6294    4.8393   54.1631 C   0  0  0  0  0  0  0  0  0  0  0  0
   18.7554    4.3853   53.5107 C   0  0  0  0  0  0  0  0  0  0  0  0
   18.6444    3.1931   52.8270 C   0  0  0  0  0  0  0  0  0  0  0  0
   17.4502    2.4797   52.7962 C   0  0  0  0  0  0  0  0  0  0  0  0
   25.6280    8.4640   53.9499 C   0  0  0  0  0  0  0  0  0  0  0  0
   26.5144    8.3446   54.9722 C   0  0  0  0  0  0  0  0  0  0  0  0
   27.8869    8.5889   54.7426 C   0  0  0  0  0  0  0  0  0  0  0  0
   28.2861    8.9447   53.4723 C   0  0  0  0  0  0  0  0  0  0  0  0
   27.3992    9.0689   52.4287 C   0  0  0  0  0  0  0  0  0  0  0  0
   26.0800    8.8275   52.6785 C   0  0  0  0  0  0  0  0  0  0  0  0
   27.8527    9.4403   51.1236 N   0  0  0  0  0  0  0  0  0  0  0  0
   28.2959   10.6550   50.7490 C   0  0  0  0  0  0  0  0  0  0  0  0
   28.6374   10.6138   49.4252 C   0  0  0  0  0  0  0  0  0  0  0  0
   28.3865    9.3443   49.0204 N   0  0  0  0  0  0  0  0  0  0  0  0
   27.9100    8.6226   50.0422 C   0  0  0  0  0  0  0  0  0  0  0  0
 14 15  1  0  0  0
 15 16  2  0  0  0
 16 17  1  0  0  0
 17 18  2  0  0  0
 18 19  1  0  0  0
 19 20  2  0  0  0
 18  1  1  0  0  0
  1  2  2  0  0  0
  2  3  1  0  0  0
  3  4  2  0  0  0
  4  5  1  0  0  0
  5  6  2  0  0  0
  6  7  1  0  0  0
  7  8  1  0  0  0
  8  9  2  0  0  0
  8 10  1  0  0  0
 10 11  1  0  0  0
 11 12  2  0  0  0
  6 21  1  0  0  0
 21 22  2  0  0  0
 22 23  1  0  0  0
 23 24  2  0  0  0
 24 25  1  0  0  0
 25 26  2  0  0  0
 25 27  1  0  0  0
 27 28  1  0  0  0
 28 29  2  0  0  0
 29 30  1  0  0  0
 30 31  2  0  0  0
 20 15  1  0  0  0
 12  1  1  0  0  0
 26 21  1  0  0  0
 31 27  1  0  0  0
 11  4  1  0  0  0
 10 13  1  0  0  0
M  END
> <minimizedAffinity>
33.37617

> <CNNscore>
0.5357972383

> <CNNaffinity>
6.2377800941

> <CNN_VS>
3.3421852589

> <CNNaffinity_variance>
0.3852020204

$$$$
[H]c1nc([H])n(-c2c([H])c([H])c([H])c(C3=Nc4c([H])c([H])c(-c5c([H])c([H])c(F)c([H])c5[H])c([H])c4N([H])C(=O)C3([H])[H])c2[H])c1[H]


 31 35  0  0  0  0  0  0  0  0999 V2000
   20.0009    5.1381   53.7203 C   0  0  0  0  0  0  0  0  0  0  0  0
   21.2137    4.5149   53.9326 C   0  0  0  0  0  0  0  0  0  0  0  0
   22.3928    5.2048   54.1186 C   0  0  0  0  0  0  0  0  0  0  0  0
   22.3945    6.5686   54.0972 C   0  0  0  0  0  0  0  0  0  0  0  0
   23.6638    7.1699   54.2949 N   0  0  0  0  0  0  0  0  0  0  0  0
   24.0219    8.3406   54.7735 C   0  0  0  0  0  0  0  0  0  0  0  0
   23.1018    9.3687   55.2487 C   0  0  0  0  0  0  0  0  0  0  0  0
   21.9454    9.6148   54.2993 C   0  0  0  0  0  0  0  0  0  0  0  0
   21.7810   10.7946   53.8736 O   0  0  0  0  0  0  0  0  0  0  0  0
   21.0178    8.6433   53.8349 N   0  0  0  0  0  0  0  0  0  0  0  0
   21.1737    7.2215   53.8831 C   0  0  0  0  0  0  0  0  0  0  0  0
   20.0243    6.5184   53.7024 C   0  0  0  0  0  0  0  0  0  0  0  0
   20.1223    8.9682   53.4115 H   0  0  0  0  0  0  0  0  0  0  0  0
   15.2806    2.1320   52.9909 F   0  0  0  0  0  0  0  0  0  0  0  0
   16.4084    2.8708   53.1795 C   0  0  0  0  0  0  0  0  0  0  0  0
   16.4255    4.0128   53.9380 C   0  0  0  0  0  0  0  0  0  0  0  0
   17.5968    4.7422   54.1084 C   0  0  0  0  0  0  0  0  0  0  0  0
   18.7852    4.3549   53.5278 C   0  0  0  0  0  0  0  0  0  0  0  0
   18.7641    3.2060   52.7658 C   0  0  0  0  0  0  0  0  0  0  0  0
   17.5963    2.4699   52.5901 C   0  0  0  0  0  0  0  0  0  0  0  0
   25.4567    8.5853   54.8145 C   0  0  0  0  0  0  0  0  0  0  0  0
   26.2276    8.3976   53.7120 C   0  0  0  0  0  0  0  0  0  0  0  0
   27.6180    8.6394   53.7788 C   0  0  0  0  0  0  0  0  0  0  0  0
   28.1530    9.0635   54.9761 C   0  0  0  0  0  0  0  0  0  0  0  0
   27.3839    9.2575   56.0994 C   0  0  0  0  0  0  0  0  0  0  0  0
   26.0444    9.0163   56.0068 C   0  0  0  0  0  0  0  0  0  0  0  0
   27.9767    9.6989   57.3245 N   0  0  0  0  0  0  0  0  0  0  0  0
   28.2551    8.9341   58.3967 C   0  0  0  0  0  0  0  0  0  0  0  0
   28.8151    9.7181   59.3675 C   0  0  0  0  0  0  0  0  0  0  0  0
   28.8634   10.9692   58.8470 N   0  0  0  0  0  0  0  0  0  0  0  0
   28.3575   10.9702   57.6075 C   0  0  0  0  0  0  0  0  0  0  0  0
 14 15  1  0  0  0
 15 16  2  0  0  0
 16 17  1  0  0  0
 17 18  2  0  0  0
 18 19  1  0  0  0
 19 20  2  0  0  0
 18  1  1  0  0  0
  1  2  2  0  0  0
  2  3  1  0  0  0
  3  4  2  0  0  0
  4  5  1  0  0  0
  5  6  2  0  0  0
  6  7  1  0  0  0
  7  8  1  0  0  0
  8  9  2  0  0  0
  8 10  1  0  0  0
 10 11  1  0  0  0
 11 12  2  0  0  0
  6 21  1  0  0  0
 21 22  2  0  0  0
 22 23  1  0  0  0
 23 24  2  0  0  0
 24 25  1  0  0  0
 25 26  2  0  0  0
 25 27  1  0  0  0
 27 28  1  0  0  0
 28 29  2  0  0  0
 29 30  1  0  0  0
 30 31  2  0  0  0
 20 15  1  0  0  0
 12  1  1  0  0  0
 26 21  1  0  0  0
 31 27  1  0  0  0
 11  4  1  0  0  0
 10 13  1  0  0  0
M  END
> <minimizedAffinity>
19.41524

> <CNNscore>
0.5247722268

> <CNNaffinity>
6.4166383743

> <CNN_VS>
3.3672735691

> <CNNaffinity_variance>
0.0580311418

$$$$
[H]c1nc([H])n(-c2c([H])c([H])c([H])c(C3=Nc4c([H])c([H])c(-c5c([H])c([H])c(F)c([H])c5[H])c([H])c4N([H])C(=O)C3([H])[H])c2[H])c1[H]


 31 35  0  0  0  0  0  0  0  0999 V2000
   19.6049    5.1028   53.8261 C   0  0  0  0  0  0  0  0  0  0  0  0
   20.6540    4.6840   54.6189 C   0  0  0  0  0  0  0  0  0  0  0  0
   21.7431    5.4783   54.9085 C   0  0  0  0  0  0  0  0  0  0  0  0
   21.8174    6.7428   54.4029 C   0  0  0  0  0  0  0  0  0  0  0  0
   22.9838    7.4650   54.7630 N   0  0  0  0  0  0  0  0  0  0  0  0
   23.2257    8.7519   54.8784 C   0  0  0  0  0  0  0  0  0  0  0  0
   22.2527    9.8124   54.6377 C   0  0  0  0  0  0  0  0  0  0  0  0
   21.4751    9.6230   53.3498 C   0  0  0  0  0  0  0  0  0  0  0  0
   21.5131   10.5611   52.5021 O   0  0  0  0  0  0  0  0  0  0  0  0
   20.6996    8.4860   52.9956 N   0  0  0  0  0  0  0  0  0  0  0  0
   20.7628    7.1881   53.5954 C   0  0  0  0  0  0  0  0  0  0  0  0
   19.6995    6.3855   53.3244 C   0  0  0  0  0  0  0  0  0  0  0  0
   20.0040    8.5748   52.2243 H   0  0  0  0  0  0  0  0  0  0  0  0
   15.2690    1.6534   52.7526 F   0  0  0  0  0  0  0  0  0  0  0  0
   16.3276    2.4734   52.9988 C   0  0  0  0  0  0  0  0  0  0  0  0
   17.5739    2.2494   52.4733 C   0  0  0  0  0  0  0  0  0  0  0  0
   18.6319    3.1088   52.7470 C   0  0  0  0  0  0  0  0  0  0  0  0
   18.4788    4.2166   53.5525 C   0  0  0  0  0  0  0  0  0  0  0  0
   17.2240    4.4387   54.0791 C   0  0  0  0  0  0  0  0  0  0  0  0
   16.1596    3.5837   53.8102 C   0  0  0  0  0  0  0  0  0  0  0  0
   24.5816    9.0981   55.2807 C   0  0  0  0  0  0  0  0  0  0  0  0
   24.8098   10.0882   56.1822 C   0  0  0  0  0  0  0  0  0  0  0  0
   26.1353   10.4066   56.5538 C   0  0  0  0  0  0  0  0  0  0  0  0
   27.1662    9.6927   55.9819 C   0  0  0  0  0  0  0  0  0  0  0  0
   26.9489    8.6881   55.0682 C   0  0  0  0  0  0  0  0  0  0  0  0
   25.6594    8.4017   54.7274 C   0  0  0  0  0  0  0  0  0  0  0  0
   28.0460    7.9694   54.4966 N   0  0  0  0  0  0  0  0  0  0  0  0
   29.3483    8.2979   54.5869 C   0  0  0  0  0  0  0  0  0  0  0  0
   30.0885    7.3675   53.9108 C   0  0  0  0  0  0  0  0  0  0  0  0
   29.1947    6.4764   53.4154 N   0  0  0  0  0  0  0  0  0  0  0  0
   27.9519    6.8309   53.7643 C   0  0  0  0  0  0  0  0  0  0  0  0
 14 15  1  0  0  0
 15 16  2  0  0  0
 16 17  1  0  0  0
 17 18  2  0  0  0
 18 19  1  0  0  0
 19 20  2  0  0  0
 18  1  1  0  0  0
  1  2  2  0  0  0
  2  3  1  0  0  0
  3  4  2  0  0  0
  4  5  1  0  0  0
  5  6  2  0  0  0
  6  7  1  0  0  0
  7  8  1  0  0  0
  8  9  2  0  0  0
  8 10  1  0  0  0
 10 11  1  0  0  0
 11 12  2  0  0  0
  6 21  1  0  0  0
 21 22  2  0  0  0
 22 23  1  0  0  0
 23 24  2  0  0  0
 24 25  1  0  0  0
 25 26  2  0  0  0
 25 27  1  0  0  0
 27 28  1  0  0  0
 28 29  2  0  0  0
 29 30  1  0  0  0
 30 31  2  0  0  0
 20 15  1  0  0  0
 12  1  1  0  0  0
 26 21  1  0  0  0
 31 27  1  0  0  0
 11  4  1  0  0  0
 10 13  1  0  0  0
M  END
> <minimizedAffinity>
40.76082

> <CNNscore>
0.5037742853

> <CNNaffinity>
6.2018003464

> <CNN_VS>
3.1243076324

> <CNNaffinity_variance>
0.3917320669

$$$$
[H]c1nc([H])n(-c2c([H])c([H])c([H])c(C3=Nc4c([H])c([H])c(-c5c([H])c([H])c(F)c([H])c5[H])c([H])c4N([H])C(=O)C3([H])[H])c2[H])c1[H]


 31 35  0  0  0  0  0  0  0  0999 V2000
   25.6042    8.2573   54.9469 C   0  0  0  0  0  0  0  0  0  0  0  0
   25.7312    6.9150   54.6527 C   0  0  0  0  0  0  0  0  0  0  0  0
   24.6589    6.1084   54.3355 C   0  0  0  0  0  0  0  0  0  0  0  0
   23.3997    6.6316   54.3024 C   0  0  0  0  0  0  0  0  0  0  0  0
   22.3755    5.7087   53.9691 N   0  0  0  0  0  0  0  0  0  0  0  0
   21.1938    5.8626   53.4145 C   0  0  0  0  0  0  0  0  0  0  0  0
   20.6305    7.1375   52.9823 C   0  0  0  0  0  0  0  0  0  0  0  0
   20.7774    8.2333   54.0200 C   0  0  0  0  0  0  0  0  0  0  0  0
   19.7225    8.8113   54.4114 O   0  0  0  0  0  0  0  0  0  0  0  0
   21.9936    8.6812   54.6032 N   0  0  0  0  0  0  0  0  0  0  0  0
   23.2482    7.9925   54.5979 C   0  0  0  0  0  0  0  0  0  0  0  0
   24.3217    8.7670   54.9077 C   0  0  0  0  0  0  0  0  0  0  0  0
   22.0056    9.6023   55.0911 H   0  0  0  0  0  0  0  0  0  0  0  0
   30.1268   11.3684   56.2570 F   0  0  0  0  0  0  0  0  0  0  0  0
   29.0274   10.6221   55.9604 C   0  0  0  0  0  0  0  0  0  0  0  0
   28.0069   10.4222   56.8538 C   0  0  0  0  0  0  0  0  0  0  0  0
   26.8990    9.6533   56.5158 C   0  0  0  0  0  0  0  0  0  0  0  0
   26.7759    9.0610   55.2774 C   0  0  0  0  0  0  0  0  0  0  0  0
   27.8042    9.2643   54.3816 C   0  0  0  0  0  0  0  0  0  0  0  0
   28.9165   10.0325   54.7117 C   0  0  0  0  0  0  0  0  0  0  0  0
   20.4241    4.6394   53.2366 C   0  0  0  0  0  0  0  0  0  0  0  0
   21.0278    3.4864   52.8477 C   0  0  0  0  0  0  0  0  0  0  0  0
   20.2579    2.3137   52.6796 C   0  0  0  0  0  0  0  0  0  0  0  0
   18.9022    2.3793   52.9191 C   0  0  0  0  0  0  0  0  0  0  0  0
   18.2788    3.5400   53.3133 C   0  0  0  0  0  0  0  0  0  0  0  0
   19.0460    4.6573   53.4677 C   0  0  0  0  0  0  0  0  0  0  0  0
   16.8684    3.5679   53.5525 N   0  0  0  0  0  0  0  0  0  0  0  0
   16.1920    4.5193   54.2228 C   0  0  0  0  0  0  0  0  0  0  0  0
   14.8641    4.1916   54.2388 C   0  0  0  0  0  0  0  0  0  0  0  0
   14.7664    3.0211   53.5613 N   0  0  0  0  0  0  0  0  0  0  0  0
   15.9761    2.6326   53.1398 C   0  0  0  0  0  0  0  0  0  0  0  0
 14 15  1  0  0  0
 15 16  2  0  0  0
 16 17  1  0  0  0
 17 18  2  0  0  0
 18 19  1  0  0  0
 19 20  2  0  0  0
 18  1  1  0  0  0
  1  2  2  0  0  0
  2  3  1  0  0  0
  3  4  2  0  0  0
  4  5  1  0  0  0
  5  6  2  0  0  0
  6  7  1  0  0  0
  7  8  1  0  0  0
  8  9  2  0  0  0
  8 10  1  0  0  0
 10 11  1  0  0  0
 11 12  2  0  0  0
  6 21  1  0  0  0
 21 22  2  0  0  0
 22 23  1  0  0  0
 23 24  2  0  0  0
 24 25  1  0  0  0
 25 26  2  0  0  0
 25 27  1  0  0  0
 27 28  1  0  0  0
 28 29  2  0  0  0
 29 30  1  0  0  0
 30 31  2  0  0  0
 20 15  1  0  0  0
 12  1  1  0  0  0
 26 21  1  0  0  0
 31 27  1  0  0  0
 11  4  1  0  0  0
 10 13  1  0  0  0
M  END
> <minimizedAffinity>
40.16009

> <CNNscore>
0.4941884279

> <CNNaffinity>
6.3058938980

> <CNN_VS>
3.1162998676

> <CNNaffinity_variance>
0.2501622736

$$$$
[H]c1nc([H])n(-c2c([H])c([H])c([H])c(C3=Nc4c([H])c([H])c(-c5c([H])c([H])c(F)c([H])c5[H])c([H])c4N([H])C(=O)C3([H])[H])c2[H])c1[H]


 31 35  0  0  0  0  0  0  0  0999 V2000
   20.5382    5.2017   53.6148 C   0  0  0  0  0  0  0  0  0  0  0  0
   21.7547    4.5979   53.8595 C   0  0  0  0  0  0  0  0  0  0  0  0
   22.9080    5.3063   54.1225 C   0  0  0  0  0  0  0  0  0  0  0  0
   22.8785    6.6697   54.1493 C   0  0  0  0  0  0  0  0  0  0  0  0
   24.1233    7.2911   54.4249 N   0  0  0  0  0  0  0  0  0  0  0  0
   24.4323    8.4513   54.9600 C   0  0  0  0  0  0  0  0  0  0  0  0
   23.4683    9.4411   55.4292 C   0  0  0  0  0  0  0  0  0  0  0  0
   22.3495    9.6960   54.4380 C   0  0  0  0  0  0  0  0  0  0  0  0
   22.1764   10.8865   54.0471 O   0  0  0  0  0  0  0  0  0  0  0  0
   21.4664    8.7219   53.8984 N   0  0  0  0  0  0  0  0  0  0  0  0
   21.6534    7.3030   53.9035 C   0  0  0  0  0  0  0  0  0  0  0  0
   20.5299    6.5819   53.6466 C   0  0  0  0  0  0  0  0  0  0  0  0
   20.5831    9.0422   53.4468 H   0  0  0  0  0  0  0  0  0  0  0  0
   15.9618    2.0827   52.5293 F   0  0  0  0  0  0  0  0  0  0  0  0
   17.0752    2.8271   52.7734 C   0  0  0  0  0  0  0  0  0  0  0  0
   18.1868    2.7788   51.9725 C   0  0  0  0  0  0  0  0  0  0  0  0
   19.3065    3.5538   52.2531 C   0  0  0  0  0  0  0  0  0  0  0  0
   19.3509    4.3995   53.3404 C   0  0  0  0  0  0  0  0  0  0  0  0
   18.2311    4.4455   54.1436 C   0  0  0  0  0  0  0  0  0  0  0  0
   17.1064    3.6733   53.8699 C   0  0  0  0  0  0  0  0  0  0  0  0
   25.8578    8.7257   55.0741 C   0  0  0  0  0  0  0  0  0  0  0  0
   26.7007    8.4766   54.0385 C   0  0  0  0  0  0  0  0  0  0  0  0
   28.0802    8.7491   54.1756 C   0  0  0  0  0  0  0  0  0  0  0  0
   28.5308    9.2656   55.3714 C   0  0  0  0  0  0  0  0  0  0  0  0
   27.6883    9.5225   56.4275 C   0  0  0  0  0  0  0  0  0  0  0  0
   26.3612    9.2498   56.2677 C   0  0  0  0  0  0  0  0  0  0  0  0
   28.1945   10.0593   57.6532 N   0  0  0  0  0  0  0  0  0  0  0  0
   28.2122   11.3577   58.0081 C   0  0  0  0  0  0  0  0  0  0  0  0
   28.7741   11.4706   59.2500 C   0  0  0  0  0  0  0  0  0  0  0  0
   29.0908   10.2070   59.6262 N   0  0  0  0  0  0  0  0  0  0  0  0
   28.7438    9.3418   58.6655 C   0  0  0  0  0  0  0  0  0  0  0  0
 14 15  1  0  0  0
 15 16  2  0  0  0
 16 17  1  0  0  0
 17 18  2  0  0  0
 18 19  1  0  0  0
 19 20  2  0  0  0
 18  1  1  0  0  0
  1  2  2  0  0  0
  2  3  1  0  0  0
  3  4  2  0  0  0
  4  5  1  0  0  0
  5  6  2  0  0  0
  6  7  1  0  0  0
  7  8  1  0  0  0
  8  9  2  0  0  0
  8 10  1  0  0  0
 10 11  1  0  0  0
 11 12  2  0  0  0
  6 21  1  0  0  0
 21 22  2  0  0  0
 22 23  1  0  0  0
 23 24  2  0  0  0
 24 25  1  0  0  0
 25 26  2  0  0  0
 25 27  1  0  0  0
 27 28  1  0  0  0
 28 29  2  0  0  0
 29 30  1  0  0  0
 30 31  2  0  0  0
 20 15  1  0  0  0
 12  1  1  0  0  0
 26 21  1  0  0  0
 31 27  1  0  0  0
 11  4  1  0  0  0
 10 13  1  0  0  0
M  END
> <minimizedAffinity>
23.38365

> <CNNscore>
0.4682587385

> <CNNaffinity>
6.3304414749

> <CNN_VS>
2.9642846584

> <CNNaffinity_variance>
0.0338780023

$$$$
[H]c1nc([H])n(-c2c([H])c([H])c([H])c(C3=Nc4c([H])c([H])c(-c5c([H])c([H])c(F)c([H])c5[H])c([H])c4N([H])C(=O)C3([H])[H])c2[H])c1[H]


 31 35  0  0  0  0  0  0  0  0999 V2000
   21.0142    5.8265   54.0460 C   0  0  0  0  0  0  0  0  0  0  0  0
   22.1186    5.5481   54.8253 C   0  0  0  0  0  0  0  0  0  0  0  0
   23.0041    6.5159   55.2499 C   0  0  0  0  0  0  0  0  0  0  0  0
   22.8075    7.8195   54.9002 C   0  0  0  0  0  0  0  0  0  0  0  0
   23.7832    8.7252   55.3894 N   0  0  0  0  0  0  0  0  0  0  0  0
   23.7369   10.0096   55.6652 C   0  0  0  0  0  0  0  0  0  0  0  0
   22.5592   10.8576   55.5123 C   0  0  0  0  0  0  0  0  0  0  0  0
   21.8592   10.6664   54.1810 C   0  0  0  0  0  0  0  0  0  0  0  0
   21.7030   11.6882   53.4519 O   0  0  0  0  0  0  0  0  0  0  0  0
   21.3553    9.4420   53.6645 N   0  0  0  0  0  0  0  0  0  0  0  0
   21.6922    8.1240   54.1092 C   0  0  0  0  0  0  0  0  0  0  0  0
   20.8333    7.1516   53.7032 C   0  0  0  0  0  0  0  0  0  0  0  0
   20.6675    9.4739   52.8818 H   0  0  0  0  0  0  0  0  0  0  0  0
   17.5513    1.6832   52.4054 F   0  0  0  0  0  0  0  0  0  0  0  0
   18.4028    2.6733   52.7903 C   0  0  0  0  0  0  0  0  0  0  0  0
   19.7285    2.6852   52.4410 C   0  0  0  0  0  0  0  0  0  0  0  0
   20.5688    3.7134   52.8529 C   0  0  0  0  0  0  0  0  0  0  0  0
   20.1124    4.7598   53.6250 C   0  0  0  0  0  0  0  0  0  0  0  0
   18.7786    4.7444   53.9743 C   0  0  0  0  0  0  0  0  0  0  0  0
   17.9307    3.7193   53.5664 C   0  0  0  0  0  0  0  0  0  0  0  0
   24.9791   10.5867   56.1594 C   0  0  0  0  0  0  0  0  0  0  0  0
   25.3111   11.8730   55.8763 C   0  0  0  0  0  0  0  0  0  0  0  0
   26.5237   12.4083   56.3656 C   0  0  0  0  0  0  0  0  0  0  0  0
   27.3400   11.5971   57.1240 C   0  0  0  0  0  0  0  0  0  0  0  0
   27.0156   10.2934   57.4179 C   0  0  0  0  0  0  0  0  0  0  0  0
   25.8391    9.8022   56.9326 C   0  0  0  0  0  0  0  0  0  0  0  0
   27.8896    9.4827   58.2090 N   0  0  0  0  0  0  0  0  0  0  0  0
   28.7868    9.9227   59.1109 C   0  0  0  0  0  0  0  0  0  0  0  0
   29.4298    8.8467   59.6584 C   0  0  0  0  0  0  0  0  0  0  0  0
   28.8933    7.7547   59.0600 N   0  0  0  0  0  0  0  0  0  0  0  0
   27.9575    8.1278   58.1785 C   0  0  0  0  0  0  0  0  0  0  0  0
 14 15  1  0  0  0
 15 16  2  0  0  0
 16 17  1  0  0  0
 17 18  2  0  0  0
 18 19  1  0  0  0
 19 20  2  0  0  0
 18  1  1  0  0  0
  1  2  2  0  0  0
  2  3  1  0  0  0
  3  4  2  0  0  0
  4  5  1  0  0  0
  5  6  2  0  0  0
  6  7  1  0  0  0
  7  8  1  0  0  0
  8  9  2  0  0  0
  8 10  1  0  0  0
 10 11  1  0  0  0
 11 12  2  0  0  0
  6 21  1  0  0  0
 21 22  2  0  0  0
 22 23  1  0  0  0
 23 24  2  0  0  0
 24 25  1  0  0  0
 25 26  2  0  0  0
 25 27  1  0  0  0
 27 28  1  0  0  0
 28 29  2  0  0  0
 29 30  1  0  0  0
 30 31  2  0  0  0
 20 15  1  0  0  0
 12  1  1  0  0  0
 26 21  1  0  0  0
 31 27  1  0  0  0
 11  4  1  0  0  0
 10 13  1  0  0  0
M  END
> <minimizedAffinity>
49.58834

> <CNNscore>
0.4437440336

> <CNNaffinity>
6.0557913780

> <CNN_VS>
2.6872212887

> <CNNaffinity_variance>
0.3369991183

$$$$
[H]c1nc([H])n(-c2c([H])c([H])c([H])c(C3=Nc4c([H])c([H])c(-c5c([H])c([H])c(F)c([H])c5[H])c([H])c4N([H])C(=O)C3([H])[H])c2[H])c1[H]


 31 35  0  0  0  0  0  0  0  0999 V2000
   22.5662    6.4743   55.6683 C   0  0  0  0  0  0  0  0  0  0  0  0
   22.5592    7.7695   56.1447 C   0  0  0  0  0  0  0  0  0  0  0  0
   22.3174    8.8654   55.3437 C   0  0  0  0  0  0  0  0  0  0  0  0
   22.0700    8.6952   54.0132 C   0  0  0  0  0  0  0  0  0  0  0  0
   21.8401    9.8923   53.2881 N   0  0  0  0  0  0  0  0  0  0  0  0
   21.1646   10.1433   52.1888 C   0  0  0  0  0  0  0  0  0  0  0  0
   20.4381    9.1489   51.4060 C   0  0  0  0  0  0  0  0  0  0  0  0
   21.2441    7.8901   51.1512 C   0  0  0  0  0  0  0  0  0  0  0  0
   21.4179    7.5423   49.9475 O   0  0  0  0  0  0  0  0  0  0  0  0
   21.8299    7.0528   52.1389 N   0  0  0  0  0  0  0  0  0  0  0  0
   22.0725    7.3883   53.5089 C   0  0  0  0  0  0  0  0  0  0  0  0
   22.3136    6.3238   54.3194 C   0  0  0  0  0  0  0  0  0  0  0  0
   22.1225    6.0893   51.8691 H   0  0  0  0  0  0  0  0  0  0  0  0
   23.6165    2.1322   59.1170 F   0  0  0  0  0  0  0  0  0  0  0  0
   23.3800    3.1739   58.2729 C   0  0  0  0  0  0  0  0  0  0  0  0
   24.1708    3.4373   57.1844 C   0  0  0  0  0  0  0  0  0  0  0  0
   23.8986    4.5109   56.3440 C   0  0  0  0  0  0  0  0  0  0  0  0
   22.8303    5.3534   56.5639 C   0  0  0  0  0  0  0  0  0  0  0  0
   22.0372    5.0852   57.6594 C   0  0  0  0  0  0  0  0  0  0  0  0
   22.3024    4.0129   58.5056 C   0  0  0  0  0  0  0  0  0  0  0  0
   21.1687   11.5343   51.7581 C   0  0  0  0  0  0  0  0  0  0  0  0
   21.5949   12.5201   52.5897 C   0  0  0  0  0  0  0  0  0  0  0  0
   21.5864   13.8624   52.1486 C   0  0  0  0  0  0  0  0  0  0  0  0
   21.1402   14.1304   50.8724 C   0  0  0  0  0  0  0  0  0  0  0  0
   20.7062   13.1419   50.0206 C   0  0  0  0  0  0  0  0  0  0  0  0
   20.7249   11.8548   50.4724 C   0  0  0  0  0  0  0  0  0  0  0  0
   20.2504   13.4603   48.7023 N   0  0  0  0  0  0  0  0  0  0  0  0
   19.5930   12.6363   47.8651 C   0  0  0  0  0  0  0  0  0  0  0  0
   19.3297   13.3044   46.7010 C   0  0  0  0  0  0  0  0  0  0  0  0
   19.8466   14.5471   46.8656 N   0  0  0  0  0  0  0  0  0  0  0  0
   20.4079   14.6538   48.0762 C   0  0  0  0  0  0  0  0  0  0  0  0
 14 15  1  0  0  0
 15 16  2  0  0  0
 16 17  1  0  0  0
 17 18  2  0  0  0
 18 19  1  0  0  0
 19 20  2  0  0  0
 18  1  1  0  0  0
  1  2  2  0  0  0
  2  3  1  0  0  0
  3  4  2  0  0  0
  4  5  1  0  0  0
  5  6  2  0  0  0
  6  7  1  0  0  0
  7  8  1  0  0  0
  8  9  2  0  0  0
  8 10  1  0  0  0
 10 11  1  0  0  0
 11 12  2  0  0  0
  6 21  1  0  0  0
 21 22  2  0  0  0
 22 23  1  0  0  0
 23 24  2  0  0  0
 24 25  1  0  0  0
 25 26  2  0  0  0
 25 27  1  0  0  0
 27 28  1  0  0  0
 28 29  2  0  0  0
 29 30  1  0  0  0
 30 31  2  0  0  0
 20 15  1  0  0  0
 12  1  1  0  0  0
 26 21  1  0  0  0
 31 27  1  0  0  0
 11  4  1  0  0  0
 10 13  1  0  0  0
M  END
> <minimizedAffinity>
66.51746

> <CNNscore>
0.3680523336

> <CNNaffinity>
5.7709326744

> <CNN_VS>
2.1240053177

> <CNNaffinity_variance>
0.2985042930

$$$$
[H]c1nc([H])n(-c2c([H])c([H])c([H])c(C3=Nc4c([H])c([H])c(-c5c([H])c([H])c(F)c([H])c5[H])c([H])c4N([H])C(=O)C3([H])[H])c2[H])c1[H]


 31 35  0  0  0  0  0  0  0  0999 V2000
   23.8919    5.7332   52.9918 C   0  0  0  0  0  0  0  0  0  0  0  0
   24.3979    6.6549   52.0981 C   0  0  0  0  0  0  0  0  0  0  0  0
   23.9196    7.9439   51.9934 C   0  0  0  0  0  0  0  0  0  0  0  0
   22.8984    8.3586   52.7969 C   0  0  0  0  0  0  0  0  0  0  0  0
   22.4862    9.7011   52.5979 N   0  0  0  0  0  0  0  0  0  0  0  0
   21.9142   10.5768   53.3940 C   0  0  0  0  0  0  0  0  0  0  0  0
   21.5465   10.3305   54.7845 C   0  0  0  0  0  0  0  0  0  0  0  0
   20.8207    9.0140   54.9820 C   0  0  0  0  0  0  0  0  0  0  0  0
   19.6776    9.0534   55.5224 O   0  0  0  0  0  0  0  0  0  0  0  0
   21.3003    7.7268   54.6177 N   0  0  0  0  0  0  0  0  0  0  0  0
   22.3699    7.4385   53.7115 C   0  0  0  0  0  0  0  0  0  0  0  0
   22.8591    6.1729   53.7956 C   0  0  0  0  0  0  0  0  0  0  0  0
   20.8479    6.8865   55.0373 H   0  0  0  0  0  0  0  0  0  0  0  0
   26.0248    0.5130   53.2175 F   0  0  0  0  0  0  0  0  0  0  0  0
   25.5221    1.7762   53.1454 C   0  0  0  0  0  0  0  0  0  0  0  0
   25.9086    2.6716   52.1818 C   0  0  0  0  0  0  0  0  0  0  0  0
   25.3735    3.9541   52.1394 C   0  0  0  0  0  0  0  0  0  0  0  0
   24.4376    4.3818   53.0563 C   0  0  0  0  0  0  0  0  0  0  0  0
   24.0513    3.4785   54.0238 C   0  0  0  0  0  0  0  0  0  0  0  0
   24.5817    2.1931   54.0734 C   0  0  0  0  0  0  0  0  0  0  0  0
   21.6471   11.8790   52.7995 C   0  0  0  0  0  0  0  0  0  0  0  0
   20.5832   12.6227   53.1995 C   0  0  0  0  0  0  0  0  0  0  0  0
   20.3444   13.8819   52.6049 C   0  0  0  0  0  0  0  0  0  0  0  0
   21.2105   14.3197   51.6261 C   0  0  0  0  0  0  0  0  0  0  0  0
   22.2912   13.5768   51.2122 C   0  0  0  0  0  0  0  0  0  0  0  0
   22.4979   12.3647   51.8030 C   0  0  0  0  0  0  0  0  0  0  0  0
   23.1679   14.0660   50.1929 N   0  0  0  0  0  0  0  0  0  0  0  0
   23.1263   15.2847   49.6227 C   0  0  0  0  0  0  0  0  0  0  0  0
   24.1258   15.3740   48.6932 C   0  0  0  0  0  0  0  0  0  0  0  0
   24.7639   14.1781   48.7239 N   0  0  0  0  0  0  0  0  0  0  0  0
   24.1917   13.3759   49.6301 C   0  0  0  0  0  0  0  0  0  0  0  0
 14 15  1  0  0  0
 15 16  2  0  0  0
 16 17  1  0  0  0
 17 18  2  0  0  0
 18 19  1  0  0  0
 19 20  2  0  0  0
 18  1  1  0  0  0
  1  2  2  0  0  0
  2  3  1  0  0  0
  3  4  2  0  0  0
  4  5  1  0  0  0
  5  6  2  0  0  0
  6  7  1  0  0  0
  7  8  1  0  0  0
  8  9  2  0  0  0
  8 10  1  0  0  0
 10 11  1  0  0  0
 11 12  2  0  0  0
  6 21  1  0  0  0
 21 22  2  0  0  0
 22 23  1  0  0  0
 23 24  2  0  0  0
 24 25  1  0  0  0
 25 26  2  0  0  0
 25 27  1  0  0  0
 27 28  1  0  0  0
 28 29  2  0  0  0
 29 30  1  0  0  0
 30 31  2  0  0  0
 20 15  1  0  0  0
 12  1  1  0  0  0
 26 21  1  0  0  0
 31 27  1  0  0  0
 11  4  1  0  0  0
 10 13  1  0  0  0
M  END
> <minimizedAffinity>
76.04285

> <CNNscore>
0.3425580561

> <CNNaffinity>
5.5926790237

> <CNN_VS>
1.9158172607

> <CNNaffinity_variance>
0.4107005000

$$$$
[H]c1nc([H])n(-c2c([H])c([H])c([H])c(C3=Nc4c([H])c([H])c(-c5c([H])c([H])c(F)c([H])c5[H])c([H])c4N([H])C(=O)C3([H])[H])c2[H])c1[H]


 31 35  0  0  0  0  0  0  0  0999 V2000
   24.8853    7.6136   54.3347 C   0  0  0  0  0  0  0  0  0  0  0  0
   24.6657    6.3425   54.8251 C   0  0  0  0  0  0  0  0  0  0  0  0
   23.4869    5.6539   54.6320 C   0  0  0  0  0  0  0  0  0  0  0  0
   22.4701    6.2285   53.9275 C   0  0  0  0  0  0  0  0  0  0  0  0
   21.3052    5.4300   53.7967 N   0  0  0  0  0  0  0  0  0  0  0  0
   20.3540    5.3970   52.8901 C   0  0  0  0  0  0  0  0  0  0  0  0
   20.2880    6.2569   51.7130 C   0  0  0  0  0  0  0  0  0  0  0  0
   20.5455    7.7172   52.0298 C   0  0  0  0  0  0  0  0  0  0  0  0
   19.6529    8.5515   51.7022 O   0  0  0  0  0  0  0  0  0  0  0  0
   21.7010    8.2486   52.6641 N   0  0  0  0  0  0  0  0  0  0  0  0
   22.6721    7.5187   53.4208 C   0  0  0  0  0  0  0  0  0  0  0  0
   23.8440    8.1771   53.6246 C   0  0  0  0  0  0  0  0  0  0  0  0
   21.8885    9.2712   52.5879 H   0  0  0  0  0  0  0  0  0  0  0  0
   29.7981   10.2458   55.2215 F   0  0  0  0  0  0  0  0  0  0  0  0
   28.6187    9.6074   54.9870 C   0  0  0  0  0  0  0  0  0  0  0  0
   28.2795    9.1105   53.7552 C   0  0  0  0  0  0  0  0  0  0  0  0
   27.0653    8.4641   53.5528 C   0  0  0  0  0  0  0  0  0  0  0  0
   26.1536    8.2942   54.5724 C   0  0  0  0  0  0  0  0  0  0  0  0
   26.4983    8.7952   55.8098 C   0  0  0  0  0  0  0  0  0  0  0  0
   27.7114    9.4434   56.0211 C   0  0  0  0  0  0  0  0  0  0  0  0
   19.3080    4.4101   53.1190 C   0  0  0  0  0  0  0  0  0  0  0  0
   18.9509    3.5341   52.1442 C   0  0  0  0  0  0  0  0  0  0  0  0
   17.9309    2.5880   52.3907 C   0  0  0  0  0  0  0  0  0  0  0  0
   17.3243    2.5851   53.6284 C   0  0  0  0  0  0  0  0  0  0  0  0
   17.6765    3.4663   54.6237 C   0  0  0  0  0  0  0  0  0  0  0  0
   18.6641    4.3692   54.3586 C   0  0  0  0  0  0  0  0  0  0  0  0
   17.0231    3.4317   55.8961 N   0  0  0  0  0  0  0  0  0  0  0  0
   15.7005    3.5511   56.1169 C   0  0  0  0  0  0  0  0  0  0  0  0
   15.4660    3.4677   57.4618 C   0  0  0  0  0  0  0  0  0  0  0  0
   16.6818    3.2955   58.0368 N   0  0  0  0  0  0  0  0  0  0  0  0
   17.6346    3.2720   57.0968 C   0  0  0  0  0  0  0  0  0  0  0  0
 14 15  1  0  0  0
 15 16  2  0  0  0
 16 17  1  0  0  0
 17 18  2  0  0  0
 18 19  1  0  0  0
 19 20  2  0  0  0
 18  1  1  0  0  0
  1  2  2  0  0  0
  2  3  1  0  0  0
  3  4  2  0  0  0
  4  5  1  0  0  0
  5  6  2  0  0  0
  6  7  1  0  0  0
  7  8  1  0  0  0
  8  9  2  0  0  0
  8 10  1  0  0  0
 10 11  1  0  0  0
 11 12  2  0  0  0
  6 21  1  0  0  0
 21 22  2  0  0  0
 22 23  1  0  0  0
 23 24  2  0  0  0
 24 25  1  0  0  0
 25 26  2  0  0  0
 25 27  1  0  0  0
 27 28  1  0  0  0
 28 29  2  0  0  0
 29 30  1  0  0  0
 30 31  2  0  0  0
 20 15  1  0  0  0
 12  1  1  0  0  0
 26 21  1  0  0  0
 31 27  1  0  0  0
 11  4  1  0  0  0
 10 13  1  0  0  0
M  END
> <minimizedAffinity>
40.46143

> <CNNscore>
0.3188880682

> <CNNaffinity>
6.1043853760

> <CNN_VS>
1.9466156960

> <CNNaffinity_variance>
0.4372880459

$$$$
[H]OC(=O)[C@]1(N([H])[H])C([H])([H])C([H])([H])[C@@]2([H])[C@]([H])(C(=O)O[H])[C@@]12[H]


 17 18  0  0  0  0  0  0  0  0999 V2000
   20.1018    8.1185   54.0095 N   0  0  0  0  0  0  0  0  0  0  0  0
   21.1448    8.7050   53.2478 C   0  0  0  0  0  0  0  0  0  0  0  0
   21.4467   10.0736   53.8257 C   0  0  0  0  0  0  0  0  0  0  0  0
   22.1826    9.6985   55.0977 C   0  0  0  0  0  0  0  0  0  0  0  0
   23.0976    8.5928   54.6862 C   0  0  0  0  0  0  0  0  0  0  0  0
   22.6594    7.1807   54.6098 C   0  0  0  0  0  0  0  0  0  0  0  0
   22.4830    8.0159   53.4123 C   0  0  0  0  0  0  0  0  0  0  0  0
   19.8739    7.1407   53.7846 H   0  0  0  0  0  0  0  0  0  0  0  0
   20.0447    8.3758   54.9962 H   0  0  0  0  0  0  0  0  0  0  0  0
   23.7536    6.1756   54.5597 C   0  0  0  0  0  0  0  0  0  0  0  0
   24.6631    6.1669   53.4959 O   0  0  0  0  0  0  0  0  0  0  0  0
   23.9092    5.2991   55.4600 O   0  0  0  0  0  0  0  0  0  0  0  0
   25.6123    5.9231   53.6816 H   0  0  0  0  0  0  0  0  0  0  0  0
   20.7660    8.7660   51.8306 C   0  0  0  0  0  0  0  0  0  0  0  0
   20.2088    7.6550   51.2338 O   0  0  0  0  0  0  0  0  0  0  0  0
   20.9373    9.8032   51.1521 O   0  0  0  0  0  0  0  0  0  0  0  0
   19.4174    7.1740   51.6539 H   0  0  0  0  0  0  0  0  0  0  0  0
  1  2  1  0  0  0
  2  3  1  0  0  0
  3  4  1  0  0  0
  4  5  1  0  0  0
  5  6  1  0  0  0
  6  7  1  0  0  0
  6 10  1  0  0  0
 10 11  1  0  0  0
 10 12  2  0  0  0
  2 14  1  0  0  0
 14 15  1  0  0  0
 14 16  2  0  0  0
  7  2  1  0  0  0
  7  5  1  0  0  0
  1  8  1  0  0  0
  1  9  1  0  0  0
 11 13  1  0  0  0
 15 17  1  0  0  0
M  END
> <minimizedAffinity>
-7.26553

> <CNNscore>
0.9027561545

> <CNNaffinity>
5.5145149231

> <CNN_VS>
4.9782624245

> <CNNaffinity_variance>
0.2690343857

$$$$
[H]OC(=O)[C@]1(N([H])[H])C([H])([H])C([H])([H])[C@@]2([H])[C@]([H])(C(=O)O[H])[C@@]12[H]


 17 18  0  0  0  0  0  0  0  0999 V2000
   21.4407    6.5277   53.2292 N   0  0  0  0  0  0  0  0  0  0  0  0
   21.5210    7.9421   53.1577 C   0  0  0  0  0  0  0  0  0  0  0  0
   20.7977    8.5226   54.3568 C   0  0  0  0  0  0  0  0  0  0  0  0
   21.7863    8.2247   55.4676 C   0  0  0  0  0  0  0  0  0  0  0  0
   23.1179    8.5572   54.8800 C   0  0  0  0  0  0  0  0  0  0  0  0
   23.8819    7.6040   54.0435 C   0  0  0  0  0  0  0  0  0  0  0  0
   22.9186    8.4857   53.3673 C   0  0  0  0  0  0  0  0  0  0  0  0
   21.9852    6.0089   52.5271 H   0  0  0  0  0  0  0  0  0  0  0  0
   21.3980    6.1103   54.1603 H   0  0  0  0  0  0  0  0  0  0  0  0
   25.3203    7.9301   53.8576 C   0  0  0  0  0  0  0  0  0  0  0  0
   26.2347    7.7322   54.8986 O   0  0  0  0  0  0  0  0  0  0  0  0
   25.7744    8.3924   52.7699 O   0  0  0  0  0  0  0  0  0  0  0  0
   27.1589    7.4337   54.6716 H   0  0  0  0  0  0  0  0  0  0  0  0
   20.9670    8.4184   51.8841 C   0  0  0  0  0  0  0  0  0  0  0  0
   20.1774    7.5724   51.1347 O   0  0  0  0  0  0  0  0  0  0  0  0
   21.1952    9.5744   51.4635 O   0  0  0  0  0  0  0  0  0  0  0  0
   19.3881    7.0841   51.5505 H   0  0  0  0  0  0  0  0  0  0  0  0
  1  2  1  0  0  0
  2  3  1  0  0  0
  3  4  1  0  0  0
  4  5  1  0  0  0
  5  6  1  0  0  0
  6  7  1  0  0  0
  6 10  1  0  0  0
 10 11  1  0  0  0
 10 12  2  0  0  0
  2 14  1  0  0  0
 14 15  1  0  0  0
 14 16  2  0  0  0
  7  2  1  0  0  0
  7  5  1  0  0  0
  1  8  1  0  0  0
  1  9  1  0  0  0
 11 13  1  0  0  0
 15 17  1  0  0  0
M  END
> <minimizedAffinity>
-6.82337

> <CNNscore>
0.8992138505

> <CNNaffinity>
5.5191125870

> <CNN_VS>
4.9628624916

> <CNNaffinity_variance>
0.1395581514

$$$$
[H]OC(=O)[C@]1(N([H])[H])C([H])([H])C([H])([H])[C@@]2([H])[C@]([H])(C(=O)O[H])[C@@]12[H]


 17 18  0  0  0  0  0  0  0  0999 V2000
   20.6589    8.2234   52.3557 N   0  0  0  0  0  0  0  0  0  0  0  0
   21.3902    9.0790   53.2189 C   0  0  0  0  0  0  0  0  0  0  0  0
   20.7033    9.0944   54.5702 C   0  0  0  0  0  0  0  0  0  0  0  0
   21.0871    7.7299   55.1094 C   0  0  0  0  0  0  0  0  0  0  0  0
   22.5291    7.5808   54.7529 C   0  0  0  0  0  0  0  0  0  0  0  0
   22.9780    7.1019   53.4258 C   0  0  0  0  0  0  0  0  0  0  0  0
   22.7578    8.5464   53.5916 C   0  0  0  0  0  0  0  0  0  0  0  0
   21.0819    8.0425   51.4354 H   0  0  0  0  0  0  0  0  0  0  0  0
   20.1687    7.4371   52.7853 H   0  0  0  0  0  0  0  0  0  0  0  0
   24.3933    6.6526   53.3555 C   0  0  0  0  0  0  0  0  0  0  0  0
   24.7093    5.3648   52.9074 O   0  0  0  0  0  0  0  0  0  0  0  0
   25.3583    7.4003   53.6914 O   0  0  0  0  0  0  0  0  0  0  0  0
   25.5423    5.2361   52.3741 H   0  0  0  0  0  0  0  0  0  0  0  0
   21.5006   10.4197   52.6308 C   0  0  0  0  0  0  0  0  0  0  0  0
   21.7369   11.4995   53.4549 O   0  0  0  0  0  0  0  0  0  0  0  0
   21.3851   10.6048   51.3988 O   0  0  0  0  0  0  0  0  0  0  0  0
   22.4989   11.4899   54.1284 H   0  0  0  0  0  0  0  0  0  0  0  0
  1  2  1  0  0  0
  2  3  1  0  0  0
  3  4  1  0  0  0
  4  5  1  0  0  0
  5  6  1  0  0  0
  6  7  1  0  0  0
  6 10  1  0  0  0
 10 11  1  0  0  0
 10 12  2  0  0  0
  2 14  1  0  0  0
 14 15  1  0  0  0
 14 16  2  0  0  0
  7  2  1  0  0  0
  7  5  1  0  0  0
  1  8  1  0  0  0
  1  9  1  0  0  0
 11 13  1  0  0  0
 15 17  1  0  0  0
M  END
> <minimizedAffinity>
-3.38228

> <CNNscore>
0.7000408769

> <CNNaffinity>
5.1895442009

> <CNN_VS>
3.6328930855

> <CNNaffinity_variance>
0.2412105054

$$$$
[H]OC(=O)[C@]1(N([H])[H])C([H])([H])C([H])([H])[C@@]2([H])[C@]([H])(C(=O)O[H])[C@@]12[H]


 17 18  0  0  0  0  0  0  0  0999 V2000
   23.8491    8.6640   54.7537 N   0  0  0  0  0  0  0  0  0  0  0  0
   22.9890    7.5697   54.4803 C   0  0  0  0  0  0  0  0  0  0  0  0
   22.0242    7.4193   55.6399 C   0  0  0  0  0  0  0  0  0  0  0  0
   21.0950    8.5941   55.4021 C   0  0  0  0  0  0  0  0  0  0  0  0
   20.8540    8.5857   53.9287 C   0  0  0  0  0  0  0  0  0  0  0  0
   21.7823    9.2184   52.9643 C   0  0  0  0  0  0  0  0  0  0  0  0
   22.0320    7.8169   53.3333 C   0  0  0  0  0  0  0  0  0  0  0  0
   24.4851    8.9390   53.9931 H   0  0  0  0  0  0  0  0  0  0  0  0
   23.4678    9.4266   55.3160 H   0  0  0  0  0  0  0  0  0  0  0  0
   21.2262    9.4557   51.6062 C   0  0  0  0  0  0  0  0  0  0  0  0
   20.7780    8.3850   50.8242 O   0  0  0  0  0  0  0  0  0  0  0  0
   21.1348   10.6149   51.1054 O   0  0  0  0  0  0  0  0  0  0  0  0
   19.9855    8.5236   50.2346 H   0  0  0  0  0  0  0  0  0  0  0  0
   23.7754    6.3526   54.2438 C   0  0  0  0  0  0  0  0  0  0  0  0
   24.5310    6.2515   53.0950 O   0  0  0  0  0  0  0  0  0  0  0  0
   23.7755    5.4051   55.0609 O   0  0  0  0  0  0  0  0  0  0  0  0
   25.1773    6.9885   52.8244 H   0  0  0  0  0  0  0  0  0  0  0  0
  1  2  1  0  0  0
  2  3  1  0  0  0
  3  4  1  0  0  0
  4  5  1  0  0  0
  5  6  1  0  0  0
  6  7  1  0  0  0
  6 10  1  0  0  0
 10 11  1  0  0  0
 10 12  2  0  0  0
  2 14  1  0  0  0
 14 15  1  0  0  0
 14 16  2  0  0  0
  7  2  1  0  0  0
  7  5  1  0  0  0
  1  8  1  0  0  0
  1  9  1  0  0  0
 11 13  1  0  0  0
 15 17  1  0  0  0
M  END
> <minimizedAffinity>
-5.68718

> <CNNscore>
0.6496576071

> <CNNaffinity>
5.1569356918

> <CNN_VS>
3.3502426147

> <CNNaffinity_variance>
0.2171183079

$$$$
[H]OC(=O)[C@]1(N([H])[H])C([H])([H])C([H])([H])[C@@]2([H])[C@]([H])(C(=O)O[H])[C@@]12[H]


 17 18  0  0  0  0  0  0  0  0999 V2000
   22.0514    7.5128   55.3813 N   0  0  0  0  0  0  0  0  0  0  0  0
   22.6024    7.2547   54.1000 C   0  0  0  0  0  0  0  0  0  0  0  0
   21.7786    6.1692   53.4358 C   0  0  0  0  0  0  0  0  0  0  0  0
   20.5230    6.9369   53.0699 C   0  0  0  0  0  0  0  0  0  0  0  0
   21.0242    8.2395   52.5398 C   0  0  0  0  0  0  0  0  0  0  0  0
   21.3758    9.3772   53.4195 C   0  0  0  0  0  0  0  0  0  0  0  0
   22.4288    8.3954   53.1195 C   0  0  0  0  0  0  0  0  0  0  0  0
   22.4565    8.3069   55.8950 H   0  0  0  0  0  0  0  0  0  0  0  0
   21.0455    7.3746   55.4919 H   0  0  0  0  0  0  0  0  0  0  0  0
   21.4886   10.6957   52.7420 C   0  0  0  0  0  0  0  0  0  0  0  0
   21.3953   10.7896   51.3487 O   0  0  0  0  0  0  0  0  0  0  0  0
   21.6705   11.7724   53.3827 O   0  0  0  0  0  0  0  0  0  0  0  0
   20.9521   11.5907   50.9530 H   0  0  0  0  0  0  0  0  0  0  0  0
   24.0191    6.8886   54.2210 C   0  0  0  0  0  0  0  0  0  0  0  0
   24.9376    7.4587   53.3653 O   0  0  0  0  0  0  0  0  0  0  0  0
   24.4118    6.0710   55.0828 O   0  0  0  0  0  0  0  0  0  0  0  0
   24.9799    8.4664   53.2351 H   0  0  0  0  0  0  0  0  0  0  0  0
  1  2  1  0  0  0
  2  3  1  0  0  0
  3  4  1  0  0  0
  4  5  1  0  0  0
  5  6  1  0  0  0
  6  7  1  0  0  0
  6 10  1  0  0  0
 10 11  1  0  0  0
 10 12  2  0  0  0
  2 14  1  0  0  0
 14 15  1  0  0  0
 14 16  2  0  0  0
  7  2  1  0  0  0
  7  5  1  0  0  0
  1  8  1  0  0  0
  1  9  1  0  0  0
 11 13  1  0  0  0
 15 17  1  0  0  0
M  END
> <minimizedAffinity>
-5.73125

> <CNNscore>
0.6411386728

> <CNNaffinity>
4.8531904221

> <CNN_VS>
3.1115679741

> <CNNaffinity_variance>
0.2824653387

$$$$
[H]OC(=O)[C@]1(N([H])[H])C([H])([H])C([H])([H])[C@@]2([H])[C@]([H])(C(=O)O[H])[C@@]12[H]


 17 18  0  0  0  0  0  0  0  0999 V2000
   21.2425    6.2639   53.8368 N   0  0  0  0  0  0  0  0  0  0  0  0
   22.3981    6.9221   53.3431 C   0  0  0  0  0  0  0  0  0  0  0  0
   22.1914    7.2083   51.8688 C   0  0  0  0  0  0  0  0  0  0  0  0
   21.1999    8.3543   51.9292 C   0  0  0  0  0  0  0  0  0  0  0  0
   21.7075    9.2282   53.0280 C   0  0  0  0  0  0  0  0  0  0  0  0
   21.3962    8.9799   54.4540 C   0  0  0  0  0  0  0  0  0  0  0  0
   22.5842    8.3217   53.8899 C   0  0  0  0  0  0  0  0  0  0  0  0
   21.2119    6.1080   54.8534 H   0  0  0  0  0  0  0  0  0  0  0  0
   20.3517    6.4909   53.3918 H   0  0  0  0  0  0  0  0  0  0  0  0
   21.6463   10.1241   55.3696 C   0  0  0  0  0  0  0  0  0  0  0  0
   22.7313   10.1035   56.2537 O   0  0  0  0  0  0  0  0  0  0  0  0
   20.9035   11.1491   55.3905 O   0  0  0  0  0  0  0  0  0  0  0  0
   23.2060   10.9593   56.4464 H   0  0  0  0  0  0  0  0  0  0  0  0
   23.5929    6.1064   53.5938 C   0  0  0  0  0  0  0  0  0  0  0  0
   23.7054    5.4254   54.7873 O   0  0  0  0  0  0  0  0  0  0  0  0
   24.5114    6.0153   52.7491 O   0  0  0  0  0  0  0  0  0  0  0  0
   22.9548    4.8276   55.1241 H   0  0  0  0  0  0  0  0  0  0  0  0
  1  2  1  0  0  0
  2  3  1  0  0  0
  3  4  1  0  0  0
  4  5  1  0  0  0
  5  6  1  0  0  0
  6  7  1  0  0  0
  6 10  1  0  0  0
 10 11  1  0  0  0
 10 12  2  0  0  0
  2 14  1  0  0  0
 14 15  1  0  0  0
 14 16  2  0  0  0
  7  2  1  0  0  0
  7  5  1  0  0  0
  1  8  1  0  0  0
  1  9  1  0  0  0
 11 13  1  0  0  0
 15 17  1  0  0  0
M  END
> <minimizedAffinity>
-5.50311

> <CNNscore>
0.6379629374

> <CNNaffinity>
5.2034683228

> <CNN_VS>
3.3196198940

> <CNNaffinity_variance>
0.0961952358

$$$$
[H]OC(=O)[C@]1(N([H])[H])C([H])([H])C([H])([H])[C@@]2([H])[C@]([H])(C(=O)O[H])[C@@]12[H]


 17 18  0  0  0  0  0  0  0  0999 V2000
   24.2872    8.7810   53.1188 N   0  0  0  0  0  0  0  0  0  0  0  0
   23.6031    8.0580   54.1294 C   0  0  0  0  0  0  0  0  0  0  0  0
   23.3070    9.0044   55.2761 C   0  0  0  0  0  0  0  0  0  0  0  0
   22.1804    9.8326   54.6890 C   0  0  0  0  0  0  0  0  0  0  0  0
   21.3074    8.8374   53.9988 C   0  0  0  0  0  0  0  0  0  0  0  0
   21.5747    8.3590   52.6234 C   0  0  0  0  0  0  0  0  0  0  0  0
   22.2053    7.6303   53.7343 C   0  0  0  0  0  0  0  0  0  0  0  0
   24.4532    8.2769   52.2374 H   0  0  0  0  0  0  0  0  0  0  0  0
   24.0728    9.7758   53.0318 H   0  0  0  0  0  0  0  0  0  0  0  0
   20.4347    7.6820   51.9511 C   0  0  0  0  0  0  0  0  0  0  0  0
   19.7724    6.6175   52.5734 O   0  0  0  0  0  0  0  0  0  0  0  0
   20.0194    8.0312   50.8072 O   0  0  0  0  0  0  0  0  0  0  0  0
   18.7883    6.5246   52.4403 H   0  0  0  0  0  0  0  0  0  0  0  0
   24.3985    6.8981   54.5507 C   0  0  0  0  0  0  0  0  0  0  0  0
   23.7524    5.7523   54.9635 O   0  0  0  0  0  0  0  0  0  0  0  0
   25.6493    6.9259   54.5439 O   0  0  0  0  0  0  0  0  0  0  0  0
   23.0236    5.3264   54.3962 H   0  0  0  0  0  0  0  0  0  0  0  0
  1  2  1  0  0  0
  2  3  1  0  0  0
  3  4  1  0  0  0
  4  5  1  0  0  0
  5  6  1  0  0  0
  6  7  1  0  0  0
  6 10  1  0  0  0
 10 11  1  0  0  0
 10 12  2  0  0  0
  2 14  1  0  0  0
 14 15  1  0  0  0
 14 16  2  0  0  0
  7  2  1  0  0  0
  7  5  1  0  0  0
  1  8  1  0  0  0
  1  9  1  0  0  0
 11 13  1  0  0  0
 15 17  1  0  0  0
M  END
> <minimizedAffinity>
-4.84852

> <CNNscore>
0.5768134594

> <CNNaffinity>
5.3532705307

> <CNN_VS>
3.0878384113

> <CNNaffinity_variance>
0.1162027568

$$$$
[H]OC(=O)[C@]1(N([H])[H])C([H])([H])C([H])([H])[C@@]2([H])[C@]([H])(C(=O)O[H])[C@@]12[H]


 17 18  0  0  0  0  0  0  0  0999 V2000
   19.6755    7.2044   53.2369 N   0  0  0  0  0  0  0  0  0  0  0  0
   21.0641    7.2278   52.9481 C   0  0  0  0  0  0  0  0  0  0  0  0
   21.2421    7.5995   51.4893 C   0  0  0  0  0  0  0  0  0  0  0  0
   20.9208    9.0813   51.5233 C   0  0  0  0  0  0  0  0  0  0  0  0
   21.6128    9.5843   52.7469 C   0  0  0  0  0  0  0  0  0  0  0  0
   21.0114    9.4971   54.0970 C   0  0  0  0  0  0  0  0  0  0  0  0
   21.8109    8.3543   53.6307 C   0  0  0  0  0  0  0  0  0  0  0  0
   19.4224    7.0681   54.2248 H   0  0  0  0  0  0  0  0  0  0  0  0
   19.0787    7.8406   52.7058 H   0  0  0  0  0  0  0  0  0  0  0  0
   21.6366   10.3638   55.1304 C   0  0  0  0  0  0  0  0  0  0  0  0
   22.6545    9.8681   55.9533 O   0  0  0  0  0  0  0  0  0  0  0  0
   21.2833   11.5664   55.3092 O   0  0  0  0  0  0  0  0  0  0  0  0
   23.3909   10.4836   56.2247 H   0  0  0  0  0  0  0  0  0  0  0  0
   21.6725    5.9321   53.2748 C   0  0  0  0  0  0  0  0  0  0  0  0
   23.0160    5.7387   53.0331 O   0  0  0  0  0  0  0  0  0  0  0  0
   20.9995    4.9995   53.7675 O   0  0  0  0  0  0  0  0  0  0  0  0
   23.7111    6.4006   53.3692 H   0  0  0  0  0  0  0  0  0  0  0  0
  1  2  1  0  0  0
  2  3  1  0  0  0
  3  4  1  0  0  0
  4  5  1  0  0  0
  5  6  1  0  0  0
  6  7  1  0  0  0
  6 10  1  0  0  0
 10 11  1  0  0  0
 10 12  2  0  0  0
  2 14  1  0  0  0
 14 15  1  0  0  0
 14 16  2  0  0  0
  7  2  1  0  0  0
  7  5  1  0  0  0
  1  8  1  0  0  0
  1  9  1  0  0  0
 11 13  1  0  0  0
 15 17  1  0  0  0
M  END
> <minimizedAffinity>
-1.96750

> <CNNscore>
0.5085565448

> <CNNaffinity>
4.9330682755

> <CNN_VS>
2.5087442398

> <CNNaffinity_variance>
0.0553087816

$$$$
[H]OC(=O)[C@]1(N([H])[H])C([H])([H])C([H])([H])[C@@]2([H])[C@]([H])(C(=O)O[H])[C@@]12[H]


 17 18  0  0  0  0  0  0  0  0999 V2000
   23.5113    8.6652   55.2632 N   0  0  0  0  0  0  0  0  0  0  0  0
   23.9970    7.8022   54.2475 C   0  0  0  0  0  0  0  0  0  0  0  0
   23.7388    6.3704   54.6737 C   0  0  0  0  0  0  0  0  0  0  0  0
   22.2409    6.2670   54.4602 C   0  0  0  0  0  0  0  0  0  0  0  0
   22.0027    6.9514   53.1550 C   0  0  0  0  0  0  0  0  0  0  0  0
   21.8441    8.4190   53.0403 C   0  0  0  0  0  0  0  0  0  0  0  0
   23.2064    7.8710   52.9580 C   0  0  0  0  0  0  0  0  0  0  0  0
   23.5306    9.6710   55.0477 H   0  0  0  0  0  0  0  0  0  0  0  0
   22.7109    8.3393   55.8074 H   0  0  0  0  0  0  0  0  0  0  0  0
   21.2460    8.8979   51.7664 C   0  0  0  0  0  0  0  0  0  0  0  0
   20.6989    7.9903   50.8522 O   0  0  0  0  0  0  0  0  0  0  0  0
   21.2052   10.1250   51.4571 O   0  0  0  0  0  0  0  0  0  0  0  0
   19.8919    8.2634   50.3334 H   0  0  0  0  0  0  0  0  0  0  0  0
   25.4195    8.0643   53.9959 C   0  0  0  0  0  0  0  0  0  0  0  0
   25.8225    8.4362   52.7310 O   0  0  0  0  0  0  0  0  0  0  0  0
   26.2744    7.9579   54.9033 O   0  0  0  0  0  0  0  0  0  0  0  0
   25.3662    9.1992   52.2370 H   0  0  0  0  0  0  0  0  0  0  0  0
  1  2  1  0  0  0
  2  3  1  0  0  0
  3  4  1  0  0  0
  4  5  1  0  0  0
  5  6  1  0  0  0
  6  7  1  0  0  0
  6 10  1  0  0  0
 10 11  1  0  0  0
 10 12  2  0  0  0
  2 14  1  0  0  0
 14 15  1  0  0  0
 14 16  2  0  0  0
  7  2  1  0  0  0
  7  5  1  0  0  0
  1  8  1  0  0  0
  1  9  1  0  0  0
 11 13  1  0  0  0
 15 17  1  0  0  0
M  END
> <minimizedAffinity>
-6.14467

> <CNNscore>
0.5033147335

> <CNNaffinity>
4.8746023178

> <CNN_VS>
2.4534592628

> <CNNaffinity_variance>
0.0566428825

$$$$
[H]OC(=O)[C@@]1(F)[C@]2([H])C([H])([H])[C@@]([H])(OC([H])([H])c3c([H])c([H])c(Cl)c([H])c3[H])[C@](C(=O)O[H])(N([H])[H])[C@]12[H]


 27 29  0  0  0  0  0  0  0  0999 V2000
   19.8303    8.1731   54.0529 N   0  0  0  0  0  0  0  0  0  0  0  0
   21.2430    8.4532   54.1336 C   0  0  0  0  0  0  0  0  0  0  0  0
   21.5561    9.8165   53.5662 C   0  0  0  0  0  0  0  0  0  0  0  0
   22.7586    9.6898   52.7486 C   0  0  0  0  0  0  0  0  0  0  0  0
   23.1818    8.2369   52.7315 C   0  0  0  0  0  0  0  0  0  0  0  0
   22.0887    7.4405   53.3879 C   0  0  0  0  0  0  0  0  0  0  0  0
   21.4448   10.0588   52.1090 C   0  0  0  0  0  0  0  0  0  0  0  0
   20.7559    9.1208   51.3909 F   0  0  0  0  0  0  0  0  0  0  0  0
   19.4668    8.0773   55.0269 H   0  0  0  0  0  0  0  0  0  0  0  0
   19.3776    8.9334   53.5242 H   0  0  0  0  0  0  0  0  0  0  0  0
   21.3158   11.4433   51.6497 C   0  0  0  0  0  0  0  0  0  0  0  0
   21.4451   12.4957   52.5431 O   0  0  0  0  0  0  0  0  0  0  0  0
   21.0851   11.7528   50.4432 O   0  0  0  0  0  0  0  0  0  0  0  0
   21.0426   12.3303   53.4747 H   0  0  0  0  0  0  0  0  0  0  0  0
   21.7013    8.4736   55.5592 C   0  0  0  0  0  0  0  0  0  0  0  0
   21.4863    7.3813   56.3747 O   0  0  0  0  0  0  0  0  0  0  0  0
   22.2871    9.4675   56.0536 O   0  0  0  0  0  0  0  0  0  0  0  0
   21.9967    7.1663   57.2016 H   0  0  0  0  0  0  0  0  0  0  0  0
   22.5006    6.5032   54.2658 O   0  0  0  0  0  0  0  0  0  0  0  0
   23.7507    6.0116   54.2348 C   0  0  0  0  0  0  0  0  0  0  0  0
   24.8757    6.9170   54.4153 C   0  0  0  0  0  0  0  0  0  0  0  0
   26.0127    6.7441   53.6654 C   0  0  0  0  0  0  0  0  0  0  0  0
   27.1008    7.5737   53.8003 C   0  0  0  0  0  0  0  0  0  0  0  0
   27.0699    8.6122   54.7067 C   0  0  0  0  0  0  0  0  0  0  0  0
   28.4731    9.6339   54.8396 Cl  0  0  0  0  0  0  0  0  0  0  0  0
   25.9278    8.8046   55.4760 C   0  0  0  0  0  0  0  0  0  0  0  0
   24.8525    7.9555   55.3175 C   0  0  0  0  0  0  0  0  0  0  0  0
  1  2  1  0  0  0
  2  3  1  0  0  0
  3  4  1  0  0  0
  4  5  1  0  0  0
  5  6  1  0  0  0
  6 19  1  0  0  0
 19 20  1  0  0  0
 20 21  1  0  0  0
 21 22  2  0  0  0
 22 23  1  0  0  0
 23 24  2  0  0  0
 24 25  1  0  0  0
 24 26  1  0  0  0
 26 27  2  0  0  0
  4  7  1  0  0  0
  7  8  1  0  0  0
  7 11  1  0  0  0
 11 12  1  0  0  0
 11 13  2  0  0  0
  2 15  1  0  0  0
 15 16  1  0  0  0
 15 17  2  0  0  0
  6  2  1  0  0  0
 27 21  1  0  0  0
  7  3  1  0  0  0
  1  9  1  0  0  0
  1 10  1  0  0  0
 12 14  1  0  0  0
 16 18  1  0  0  0
M  END
> <minimizedAffinity>
4.48649

> <CNNscore>
0.6958201528

> <CNNaffinity>
6.0889554024

> <CNN_VS>
4.2368178368

> <CNNaffinity_variance>
0.2760345042

$$$$
[H]OC(=O)[C@@]1(F)[C@]2([H])C([H])([H])[C@@]([H])(OC([H])([H])c3c([H])c([H])c(Cl)c([H])c3[H])[C@](C(=O)O[H])(N([H])[H])[C@]12[H]


 27 29  0  0  0  0  0  0  0  0999 V2000
   22.3369    6.8568   52.2976 N   0  0  0  0  0  0  0  0  0  0  0  0
   23.0856    7.1961   53.4829 C   0  0  0  0  0  0  0  0  0  0  0  0
   22.1794    7.7590   54.5508 C   0  0  0  0  0  0  0  0  0  0  0  0
   22.8548    8.9099   55.1424 C   0  0  0  0  0  0  0  0  0  0  0  0
   24.1620    9.1319   54.4130 C   0  0  0  0  0  0  0  0  0  0  0  0
   24.1749    8.2165   53.2205 C   0  0  0  0  0  0  0  0  0  0  0  0
   21.5694    9.0980   54.3783 C   0  0  0  0  0  0  0  0  0  0  0  0
   21.6047    9.6203   53.1150 F   0  0  0  0  0  0  0  0  0  0  0  0
   22.4099    5.8248   52.1572 H   0  0  0  0  0  0  0  0  0  0  0  0
   21.3664    7.1814   52.4218 H   0  0  0  0  0  0  0  0  0  0  0  0
   20.3849    9.4223   55.1758 C   0  0  0  0  0  0  0  0  0  0  0  0
   19.4023    8.4690   55.3956 O   0  0  0  0  0  0  0  0  0  0  0  0
   20.1931   10.5605   55.6976 O   0  0  0  0  0  0  0  0  0  0  0  0
   19.2066    7.8510   54.5975 H   0  0  0  0  0  0  0  0  0  0  0  0
   23.7287    5.9791   54.0731 C   0  0  0  0  0  0  0  0  0  0  0  0
   24.3462    5.0535   53.2568 O   0  0  0  0  0  0  0  0  0  0  0  0
   23.7287    5.7623   55.3094 O   0  0  0  0  0  0  0  0  0  0  0  0
   25.0432    4.4031   53.5424 H   0  0  0  0  0  0  0  0  0  0  0  0
   25.3319    7.5569   53.0078 O   0  0  0  0  0  0  0  0  0  0  0  0
   26.5201    8.1800   53.0792 C   0  0  0  0  0  0  0  0  0  0  0  0
   27.0572    8.5401   54.3830 C   0  0  0  0  0  0  0  0  0  0  0  0
   26.1983    8.8119   55.4190 C   0  0  0  0  0  0  0  0  0  0  0  0
   26.6582    9.1562   56.6681 C   0  0  0  0  0  0  0  0  0  0  0  0
   28.0137    9.2363   56.9075 C   0  0  0  0  0  0  0  0  0  0  0  0
   28.5449    9.6763   58.5059 Cl  0  0  0  0  0  0  0  0  0  0  0  0
   28.9006    8.9649   55.8718 C   0  0  0  0  0  0  0  0  0  0  0  0
   28.4083    8.6221   54.6298 C   0  0  0  0  0  0  0  0  0  0  0  0
  1  2  1  0  0  0
  2  3  1  0  0  0
  3  4  1  0  0  0
  4  5  1  0  0  0
  5  6  1  0  0  0
  6 19  1  0  0  0
 19 20  1  0  0  0
 20 21  1  0  0  0
 21 22  2  0  0  0
 22 23  1  0  0  0
 23 24  2  0  0  0
 24 25  1  0  0  0
 24 26  1  0  0  0
 26 27  2  0  0  0
  4  7  1  0  0  0
  7  8  1  0  0  0
  7 11  1  0  0  0
 11 12  1  0  0  0
 11 13  2  0  0  0
  2 15  1  0  0  0
 15 16  1  0  0  0
 15 17  2  0  0  0
  6  2  1  0  0  0
 27 21  1  0  0  0
  7  3  1  0  0  0
  1  9  1  0  0  0
  1 10  1  0  0  0
 12 14  1  0  0  0
 16 18  1  0  0  0
M  END
> <minimizedAffinity>
3.84775

> <CNNscore>
0.6632952094

> <CNNaffinity>
6.2630071640

> <CNN_VS>
4.1542224884

> <CNNaffinity_variance>
0.2896037698

$$$$
[H]OC(=O)[C@@]1(F)[C@]2([H])C([H])([H])[C@@]([H])(OC([H])([H])c3c([H])c([H])c(Cl)c([H])c3[H])[C@](C(=O)O[H])(N([H])[H])[C@]12[H]


 27 29  0  0  0  0  0  0  0  0999 V2000
   21.7728    7.8245   51.5804 N   0  0  0  0  0  0  0  0  0  0  0  0
   21.4753    8.4941   52.8229 C   0  0  0  0  0  0  0  0  0  0  0  0
   20.9432    9.8843   52.5728 C   0  0  0  0  0  0  0  0  0  0  0  0
   21.5850   10.7820   53.5283 C   0  0  0  0  0  0  0  0  0  0  0  0
   22.5793    9.9874   54.3469 C   0  0  0  0  0  0  0  0  0  0  0  0
   22.6839    8.6212   53.7284 C   0  0  0  0  0  0  0  0  0  0  0  0
   21.8408   10.9414   52.0516 C   0  0  0  0  0  0  0  0  0  0  0  0
   23.0289   10.5189   51.5223 F   0  0  0  0  0  0  0  0  0  0  0  0
   21.1420    6.9961   51.5041 H   0  0  0  0  0  0  0  0  0  0  0  0
   21.6512    8.4989   50.8102 H   0  0  0  0  0  0  0  0  0  0  0  0
   21.2302   12.1087   51.4120 C   0  0  0  0  0  0  0  0  0  0  0  0
   20.6636   12.0037   50.1509 O   0  0  0  0  0  0  0  0  0  0  0  0
   21.1847   13.2510   51.9574 O   0  0  0  0  0  0  0  0  0  0  0  0
   21.1643   11.3887   49.4965 H   0  0  0  0  0  0  0  0  0  0  0  0
   20.4093    7.7635   53.5796 C   0  0  0  0  0  0  0  0  0  0  0  0
   20.0399    8.1832   54.8412 O   0  0  0  0  0  0  0  0  0  0  0  0
   19.8243    6.7614   53.1009 O   0  0  0  0  0  0  0  0  0  0  0  0
   19.1736    7.9823   55.2880 H   0  0  0  0  0  0  0  0  0  0  0  0
   22.6742    7.5890   54.5964 O   0  0  0  0  0  0  0  0  0  0  0  0
   23.8019    6.9378   54.9275 C   0  0  0  0  0  0  0  0  0  0  0  0
   25.0856    7.5963   54.7367 C   0  0  0  0  0  0  0  0  0  0  0  0
   25.6972    8.2117   55.8008 C   0  0  0  0  0  0  0  0  0  0  0  0
   26.9097    8.8465   55.6697 C   0  0  0  0  0  0  0  0  0  0  0  0
   27.5449    8.8772   54.4463 C   0  0  0  0  0  0  0  0  0  0  0  0
   29.0783    9.6936   54.3327 Cl  0  0  0  0  0  0  0  0  0  0  0  0
   26.9425    8.2600   53.3559 C   0  0  0  0  0  0  0  0  0  0  0  0
   25.7257    7.6313   53.5193 C   0  0  0  0  0  0  0  0  0  0  0  0
  1  2  1  0  0  0
  2  3  1  0  0  0
  3  4  1  0  0  0
  4  5  1  0  0  0
  5  6  1  0  0  0
  6 19  1  0  0  0
 19 20  1  0  0  0
 20 21  1  0  0  0
 21 22  2  0  0  0
 22 23  1  0  0  0
 23 24  2  0  0  0
 24 25  1  0  0  0
 24 26  1  0  0  0
 26 27  2  0  0  0
  4  7  1  0  0  0
  7  8  1  0  0  0
  7 11  1  0  0  0
 11 12  1  0  0  0
 11 13  2  0  0  0
  2 15  1  0  0  0
 15 16  1  0  0  0
 15 17  2  0  0  0
  6  2  1  0  0  0
 27 21  1  0  0  0
  7  3  1  0  0  0
  1  9  1  0  0  0
  1 10  1  0  0  0
 12 14  1  0  0  0
 16 18  1  0  0  0
M  END
> <minimizedAffinity>
8.37439

> <CNNscore>
0.6209737659

> <CNNaffinity>
5.8693785667

> <CNN_VS>
3.6447300911

> <CNNaffinity_variance>
0.3818975389

$$$$
[H]OC(=O)[C@@]1(F)[C@]2([H])C([H])([H])[C@@]([H])(OC([H])([H])c3c([H])c([H])c(Cl)c([H])c3[H])[C@](C(=O)O[H])(N([H])[H])[C@]12[H]


 27 29  0  0  0  0  0  0  0  0999 V2000
   22.4311    7.3745   52.1464 N   0  0  0  0  0  0  0  0  0  0  0  0
   22.3092    8.4145   53.1385 C   0  0  0  0  0  0  0  0  0  0  0  0
   23.6682    8.8856   53.5962 C   0  0  0  0  0  0  0  0  0  0  0  0
   23.6200    9.0312   55.0478 C   0  0  0  0  0  0  0  0  0  0  0  0
   22.2565    8.5900   55.5338 C   0  0  0  0  0  0  0  0  0  0  0  0
   21.5395    7.9712   54.3663 C   0  0  0  0  0  0  0  0  0  0  0  0
   24.5231    8.0003   54.4209 C   0  0  0  0  0  0  0  0  0  0  0  0
   24.1686    6.6800   54.4572 F   0  0  0  0  0  0  0  0  0  0  0  0
   22.0208    7.7321   51.2555 H   0  0  0  0  0  0  0  0  0  0  0  0
   23.4267    7.1213   52.0613 H   0  0  0  0  0  0  0  0  0  0  0  0
   25.9591    8.2827   54.4712 C   0  0  0  0  0  0  0  0  0  0  0  0
   26.5304    8.8218   55.6138 O   0  0  0  0  0  0  0  0  0  0  0  0
   26.7424    8.0574   53.5015 O   0  0  0  0  0  0  0  0  0  0  0  0
   25.9548    9.5194   56.1029 H   0  0  0  0  0  0  0  0  0  0  0  0
   21.6157    9.6140   52.5700 C   0  0  0  0  0  0  0  0  0  0  0  0
   20.9673    9.5317   51.3546 O   0  0  0  0  0  0  0  0  0  0  0  0
   21.6001   10.7171   53.1688 O   0  0  0  0  0  0  0  0  0  0  0  0
   20.2438   10.1393   51.0418 H   0  0  0  0  0  0  0  0  0  0  0  0
   20.2509    8.3394   54.2153 O   0  0  0  0  0  0  0  0  0  0  0  0
   19.3932    7.6123   53.4797 C   0  0  0  0  0  0  0  0  0  0  0  0
   19.5444    6.1656   53.4342 C   0  0  0  0  0  0  0  0  0  0  0  0
   20.7847    5.6197   53.2132 C   0  0  0  0  0  0  0  0  0  0  0  0
   20.9772    4.2594   53.1618 C   0  0  0  0  0  0  0  0  0  0  0  0
   19.9101    3.4035   53.3341 C   0  0  0  0  0  0  0  0  0  0  0  0
   20.2064    1.6896   53.2600 Cl  0  0  0  0  0  0  0  0  0  0  0  0
   18.6456    3.9359   53.5591 C   0  0  0  0  0  0  0  0  0  0  0  0
   18.4847    5.3049   53.6052 C   0  0  0  0  0  0  0  0  0  0  0  0
  1  2  1  0  0  0
  2  3  1  0  0  0
  3  4  1  0  0  0
  4  5  1  0  0  0
  5  6  1  0  0  0
  6 19  1  0  0  0
 19 20  1  0  0  0
 20 21  1  0  0  0
 21 22  2  0  0  0
 22 23  1  0  0  0
 23 24  2  0  0  0
 24 25  1  0  0  0
 24 26  1  0  0  0
 26 27  2  0  0  0
  4  7  1  0  0  0
  7  8  1  0  0  0
  7 11  1  0  0  0
 11 12  1  0  0  0
 11 13  2  0  0  0
  2 15  1  0  0  0
 15 16  1  0  0  0
 15 17  2  0  0  0
  6  2  1  0  0  0
 27 21  1  0  0  0
  7  3  1  0  0  0
  1  9  1  0  0  0
  1 10  1  0  0  0
 12 14  1  0  0  0
 16 18  1  0  0  0
M  END
> <minimizedAffinity>
12.83463

> <CNNscore>
0.5470138192

> <CNNaffinity>
5.9987373352

> <CNN_VS>
3.2813923359

> <CNNaffinity_variance>
0.5862888098

$$$$
[H]OC(=O)[C@@]1(F)[C@]2([H])C([H])([H])[C@@]([H])(OC([H])([H])c3c([H])c([H])c(Cl)c([H])c3[H])[C@](C(=O)O[H])(N([H])[H])[C@]12[H]


 27 29  0  0  0  0  0  0  0  0999 V2000
   20.8132    7.5772   52.4134 N   0  0  0  0  0  0  0  0  0  0  0  0
   21.8079    7.6624   53.4546 C   0  0  0  0  0  0  0  0  0  0  0  0
   21.4311    8.7072   54.4767 C   0  0  0  0  0  0  0  0  0  0  0  0
   22.6358    9.4664   54.7979 C   0  0  0  0  0  0  0  0  0  0  0  0
   23.7718    8.9596   53.9360 C   0  0  0  0  0  0  0  0  0  0  0  0
   23.1851    8.0116   52.9273 C   0  0  0  0  0  0  0  0  0  0  0  0
   21.4728   10.1447   54.1206 C   0  0  0  0  0  0  0  0  0  0  0  0
   21.5438   10.4352   52.7862 F   0  0  0  0  0  0  0  0  0  0  0  0
   20.3898    6.6237   52.4524 H   0  0  0  0  0  0  0  0  0  0  0  0
   20.1261    8.3320   52.5575 H   0  0  0  0  0  0  0  0  0  0  0  0
   20.7017   11.0796   54.9426 C   0  0  0  0  0  0  0  0  0  0  0  0
   20.2603   10.7087   56.2036 O   0  0  0  0  0  0  0  0  0  0  0  0
   20.4009   12.2495   54.5614 O   0  0  0  0  0  0  0  0  0  0  0  0
   19.9511    9.7318   56.2886 H   0  0  0  0  0  0  0  0  0  0  0  0
   21.9152    6.3656   54.1959 C   0  0  0  0  0  0  0  0  0  0  0  0
   21.5292    5.1857   53.5933 O   0  0  0  0  0  0  0  0  0  0  0  0
   22.3526    6.3074   55.3711 O   0  0  0  0  0  0  0  0  0  0  0  0
   21.8323    4.2749   53.8558 H   0  0  0  0  0  0  0  0  0  0  0  0
   23.8712    6.8656   52.7405 O   0  0  0  0  0  0  0  0  0  0  0  0
   24.7623    6.4240   53.6439 C   0  0  0  0  0  0  0  0  0  0  0  0
   25.7210    7.3593   54.2133 C   0  0  0  0  0  0  0  0  0  0  0  0
   25.4413    7.9737   55.4089 C   0  0  0  0  0  0  0  0  0  0  0  0
   26.3155    8.8642   55.9861 C   0  0  0  0  0  0  0  0  0  0  0  0
   27.5096    9.1618   55.3642 C   0  0  0  0  0  0  0  0  0  0  0  0
   28.5818   10.2956   56.1359 Cl  0  0  0  0  0  0  0  0  0  0  0  0
   27.8120    8.5505   54.1527 C   0  0  0  0  0  0  0  0  0  0  0  0
   26.9144    7.6615   53.5991 C   0  0  0  0  0  0  0  0  0  0  0  0
  1  2  1  0  0  0
  2  3  1  0  0  0
  3  4  1  0  0  0
  4  5  1  0  0  0
  5  6  1  0  0  0
  6 19  1  0  0  0
 19 20  1  0  0  0
 20 21  1  0  0  0
 21 22  2  0  0  0
 22 23  1  0  0  0
 23 24  2  0  0  0
 24 25  1  0  0  0
 24 26  1  0  0  0
 26 27  2  0  0  0
  4  7  1  0  0  0
  7  8  1  0  0  0
  7 11  1  0  0  0
 11 12  1  0  0  0
 11 13  2  0  0  0
  2 15  1  0  0  0
 15 16  1  0  0  0
 15 17  2  0  0  0
  6  2  1  0  0  0
 27 21  1  0  0  0
  7  3  1  0  0  0
  1  9  1  0  0  0
  1 10  1  0  0  0
 12 14  1  0  0  0
 16 18  1  0  0  0
M  END
> <minimizedAffinity>
6.67157

> <CNNscore>
0.5421631932

> <CNNaffinity>
6.1324615479

> <CNN_VS>
3.3247950077

> <CNNaffinity_variance>
0.4887181222

$$$$
[H]OC(=O)[C@@]1(F)[C@]2([H])C([H])([H])[C@@]([H])(OC([H])([H])c3c([H])c([H])c(Cl)c([H])c3[H])[C@](C(=O)O[H])(N([H])[H])[C@]12[H]


 27 29  0  0  0  0  0  0  0  0999 V2000
   21.0483    8.2670   56.0322 N   0  0  0  0  0  0  0  0  0  0  0  0
   21.5976    9.0485   54.9513 C   0  0  0  0  0  0  0  0  0  0  0  0
   20.9657    8.6675   53.6346 C   0  0  0  0  0  0  0  0  0  0  0  0
   22.0308    8.5869   52.6398 C   0  0  0  0  0  0  0  0  0  0  0  0
   23.3546    8.8471   53.3254 C   0  0  0  0  0  0  0  0  0  0  0  0
   23.0969    8.8824   54.8061 C   0  0  0  0  0  0  0  0  0  0  0  0
   21.2588    7.3505   53.0227 C   0  0  0  0  0  0  0  0  0  0  0  0
   21.8370    6.4192   53.8403 F   0  0  0  0  0  0  0  0  0  0  0  0
   20.5591    8.9204   56.6832 H   0  0  0  0  0  0  0  0  0  0  0  0
   20.4242    7.5511   55.6315 H   0  0  0  0  0  0  0  0  0  0  0  0
   20.3249    6.8349   52.0195 C   0  0  0  0  0  0  0  0  0  0  0  0
   19.7647    5.5746   52.1620 O   0  0  0  0  0  0  0  0  0  0  0  0
   19.9832    7.4910   50.9913 O   0  0  0  0  0  0  0  0  0  0  0  0
   20.3927    4.8582   52.5487 H   0  0  0  0  0  0  0  0  0  0  0  0
   21.3140   10.5055   55.1501 C   0  0  0  0  0  0  0  0  0  0  0  0
   20.9457   10.9795   56.3927 O   0  0  0  0  0  0  0  0  0  0  0  0
   21.4001   11.3324   54.2096 O   0  0  0  0  0  0  0  0  0  0  0  0
   21.0340   11.9209   56.7031 H   0  0  0  0  0  0  0  0  0  0  0  0
   23.7018    9.8841   55.4767 O   0  0  0  0  0  0  0  0  0  0  0  0
   24.8202    9.6769   56.1919 C   0  0  0  0  0  0  0  0  0  0  0  0
   25.9585    9.0267   55.5599 C   0  0  0  0  0  0  0  0  0  0  0  0
   25.7495    8.1452   54.5282 C   0  0  0  0  0  0  0  0  0  0  0  0
   26.7928    7.5069   53.9001 C   0  0  0  0  0  0  0  0  0  0  0  0
   28.0903    7.7442   54.3015 C   0  0  0  0  0  0  0  0  0  0  0  0
   29.3757    6.9111   53.4742 Cl  0  0  0  0  0  0  0  0  0  0  0  0
   28.3237    8.6335   55.3444 C   0  0  0  0  0  0  0  0  0  0  0  0
   27.2560    9.2583   55.9546 C   0  0  0  0  0  0  0  0  0  0  0  0
  1  2  1  0  0  0
  2  3  1  0  0  0
  3  4  1  0  0  0
  4  5  1  0  0  0
  5  6  1  0  0  0
  6 19  1  0  0  0
 19 20  1  0  0  0
 20 21  1  0  0  0
 21 22  2  0  0  0
 22 23  1  0  0  0
 23 24  2  0  0  0
 24 25  1  0  0  0
 24 26  1  0  0  0
 26 27  2  0  0  0
  4  7  1  0  0  0
  7  8  1  0  0  0
  7 11  1  0  0  0
 11 12  1  0  0  0
 11 13  2  0  0  0
  2 15  1  0  0  0
 15 16  1  0  0  0
 15 17  2  0  0  0
  6  2  1  0  0  0
 27 21  1  0  0  0
  7  3  1  0  0  0
  1  9  1  0  0  0
  1 10  1  0  0  0
 12 14  1  0  0  0
 16 18  1  0  0  0
M  END
> <minimizedAffinity>
8.02752

> <CNNscore>
0.5416237116

> <CNNaffinity>
5.7447261810

> <CNN_VS>
3.1114799976

> <CNNaffinity_variance>
0.1519061923

$$$$
[H]OC(=O)[C@@]1(F)[C@]2([H])C([H])([H])[C@@]([H])(OC([H])([H])c3c([H])c([H])c(Cl)c([H])c3[H])[C@](C(=O)O[H])(N([H])[H])[C@]12[H]


 27 29  0  0  0  0  0  0  0  0999 V2000
   23.6664    8.0167   55.4531 N   0  0  0  0  0  0  0  0  0  0  0  0
   24.5612    7.5360   54.4289 C   0  0  0  0  0  0  0  0  0  0  0  0
   25.9919    7.5549   54.9098 C   0  0  0  0  0  0  0  0  0  0  0  0
   26.8163    8.0782   53.8249 C   0  0  0  0  0  0  0  0  0  0  0  0
   25.9138    8.4608   52.6720 C   0  0  0  0  0  0  0  0  0  0  0  0
   24.4942    8.3548   53.1554 C   0  0  0  0  0  0  0  0  0  0  0  0
   26.6899    8.8452   55.1161 C   0  0  0  0  0  0  0  0  0  0  0  0
   25.8988    9.9596   55.1652 F   0  0  0  0  0  0  0  0  0  0  0  0
   23.0309    7.2317   55.7173 H   0  0  0  0  0  0  0  0  0  0  0  0
   24.2318    8.3637   56.2422 H   0  0  0  0  0  0  0  0  0  0  0  0
   27.8728    8.8572   55.9793 C   0  0  0  0  0  0  0  0  0  0  0  0
   27.8374    9.4906   57.2122 O   0  0  0  0  0  0  0  0  0  0  0  0
   28.9672    8.3052   55.6600 O   0  0  0  0  0  0  0  0  0  0  0  0
   27.2975   10.3652   57.2390 H   0  0  0  0  0  0  0  0  0  0  0  0
   24.2526    6.1134   54.0770 C   0  0  0  0  0  0  0  0  0  0  0  0
   24.6226    5.6046   52.8488 O   0  0  0  0  0  0  0  0  0  0  0  0
   23.6571    5.3473   54.8732 O   0  0  0  0  0  0  0  0  0  0  0  0
   24.7467    4.6407   52.6347 H   0  0  0  0  0  0  0  0  0  0  0  0
   23.6360    7.7517   52.3077 O   0  0  0  0  0  0  0  0  0  0  0  0
   22.3700    8.1789   52.1665 C   0  0  0  0  0  0  0  0  0  0  0  0
   21.7107    8.8327   53.2872 C   0  0  0  0  0  0  0  0  0  0  0  0
   21.8351   10.1903   53.4494 C   0  0  0  0  0  0  0  0  0  0  0  0
   21.2310   10.8523   54.4920 C   0  0  0  0  0  0  0  0  0  0  0  0
   20.4761   10.1531   55.4097 C   0  0  0  0  0  0  0  0  0  0  0  0
   19.7319   11.0375   56.7115 Cl  0  0  0  0  0  0  0  0  0  0  0  0
   20.3375    8.7774   55.2636 C   0  0  0  0  0  0  0  0  0  0  0  0
   20.9558    8.1420   54.2070 C   0  0  0  0  0  0  0  0  0  0  0  0
  1  2  1  0  0  0
  2  3  1  0  0  0
  3  4  1  0  0  0
  4  5  1  0  0  0
  5  6  1  0  0  0
  6 19  1  0  0  0
 19 20  1  0  0  0
 20 21  1  0  0  0
 21 22  2  0  0  0
 22 23  1  0  0  0
 23 24  2  0  0  0
 24 25  1  0  0  0
 24 26  1  0  0  0
 26 27  2  0  0  0
  4  7  1  0  0  0
  7  8  1  0  0  0
  7 11  1  0  0  0
 11 12  1  0  0  0
 11 13  2  0  0  0
  2 15  1  0  0  0
 15 16  1  0  0  0
 15 17  2  0  0  0
  6  2  1  0  0  0
 27 21  1  0  0  0
  7  3  1  0  0  0
  1  9  1  0  0  0
  1 10  1  0  0  0
 12 14  1  0  0  0
 16 18  1  0  0  0
M  END
> <minimizedAffinity>
9.17958

> <CNNscore>
0.5396950841

> <CNNaffinity>
5.7113218307

> <CNN_VS>
3.0823724270

> <CNNaffinity_variance>
0.2185815573

$$$$
[H]OC(=O)[C@@]1(F)[C@]2([H])C([H])([H])[C@@]([H])(OC([H])([H])c3c([H])c([H])c(Cl)c([H])c3[H])[C@](C(=O)O[H])(N([H])[H])[C@]12[H]


 27 29  0  0  0  0  0  0  0  0999 V2000
   22.7794    9.0182   55.3091 N   0  0  0  0  0  0  0  0  0  0  0  0
   22.7130    8.4122   54.0018 C   0  0  0  0  0  0  0  0  0  0  0  0
   22.6951    9.4643   52.9196 C   0  0  0  0  0  0  0  0  0  0  0  0
   21.6957    9.0667   51.9328 C   0  0  0  0  0  0  0  0  0  0  0  0
   21.0217    7.7985   52.4099 C   0  0  0  0  0  0  0  0  0  0  0  0
   21.4861    7.5421   53.8166 C   0  0  0  0  0  0  0  0  0  0  0  0
   21.5029   10.3252   52.7393 C   0  0  0  0  0  0  0  0  0  0  0  0
   20.6037   10.3362   53.7695 F   0  0  0  0  0  0  0  0  0  0  0  0
   23.6806    8.7299   55.7503 H   0  0  0  0  0  0  0  0  0  0  0  0
   22.6902   10.0393   55.1992 H   0  0  0  0  0  0  0  0  0  0  0  0
   21.6691   11.5879   52.0166 C   0  0  0  0  0  0  0  0  0  0  0  0
   21.2670   11.6998   50.6945 O   0  0  0  0  0  0  0  0  0  0  0  0
   22.1756   12.6234   52.5416 O   0  0  0  0  0  0  0  0  0  0  0  0
   21.4336   10.8671   50.1148 H   0  0  0  0  0  0  0  0  0  0  0  0
   23.9205    7.5639   53.7462 C   0  0  0  0  0  0  0  0  0  0  0  0
   24.3118    6.6149   54.6684 O   0  0  0  0  0  0  0  0  0  0  0  0
   24.6068    7.6842   52.7021 O   0  0  0  0  0  0  0  0  0  0  0  0
   24.8792    5.8201   54.4765 H   0  0  0  0  0  0  0  0  0  0  0  0
   21.8251    6.2663   54.0923 O   0  0  0  0  0  0  0  0  0  0  0  0
   21.3813    5.2430   53.3432 C   0  0  0  0  0  0  0  0  0  0  0  0
   20.0082    4.7879   53.5025 C   0  0  0  0  0  0  0  0  0  0  0  0
   19.0179    5.7002   53.7707 C   0  0  0  0  0  0  0  0  0  0  0  0
   17.7067    5.3184   53.9292 C   0  0  0  0  0  0  0  0  0  0  0  0
   17.3559    3.9895   53.8200 C   0  0  0  0  0  0  0  0  0  0  0  0
   15.6825    3.5576   54.0293 Cl  0  0  0  0  0  0  0  0  0  0  0  0
   18.3437    3.0494   53.5488 C   0  0  0  0  0  0  0  0  0  0  0  0
   19.6502    3.4637   53.3950 C   0  0  0  0  0  0  0  0  0  0  0  0
  1  2  1  0  0  0
  2  3  1  0  0  0
  3  4  1  0  0  0
  4  5  1  0  0  0
  5  6  1  0  0  0
  6 19  1  0  0  0
 19 20  1  0  0  0
 20 21  1  0  0  0
 21 22  2  0  0  0
 22 23  1  0  0  0
 23 24  2  0  0  0
 24 25  1  0  0  0
 24 26  1  0  0  0
 26 27  2  0  0  0
  4  7  1  0  0  0
  7  8  1  0  0  0
  7 11  1  0  0  0
 11 12  1  0  0  0
 11 13  2  0  0  0
  2 15  1  0  0  0
 15 16  1  0  0  0
 15 17  2  0  0  0
  6  2  1  0  0  0
 27 21  1  0  0  0
  7  3  1  0  0  0
  1  9  1  0  0  0
  1 10  1  0  0  0
 12 14  1  0  0  0
 16 18  1  0  0  0
M  END
> <minimizedAffinity>
12.13646

> <CNNscore>
0.5108230710

> <CNNaffinity>
5.9031839371

> <CNN_VS>
3.0154826641

> <CNNaffinity_variance>
0.5302491784

$$$$
[H]OC(=O)[C@@]1(F)[C@]2([H])C([H])([H])[C@@]([H])(OC([H])([H])c3c([H])c([H])c(Cl)c([H])c3[H])[C@](C(=O)O[H])(N([H])[H])[C@]12[H]


 27 29  0  0  0  0  0  0  0  0999 V2000
   23.9864    7.5677   53.4072 N   0  0  0  0  0  0  0  0  0  0  0  0
   22.7555    7.7240   54.1427 C   0  0  0  0  0  0  0  0  0  0  0  0
   21.5607    7.4762   53.2542 C   0  0  0  0  0  0  0  0  0  0  0  0
   20.5696    8.5067   53.5481 C   0  0  0  0  0  0  0  0  0  0  0  0
   21.1489    9.4575   54.5731 C   0  0  0  0  0  0  0  0  0  0  0  0
   22.6002    9.1056   54.7459 C   0  0  0  0  0  0  0  0  0  0  0  0
   21.2141    8.4438   52.1873 C   0  0  0  0  0  0  0  0  0  0  0  0
   22.1824    9.3509   51.8558 F   0  0  0  0  0  0  0  0  0  0  0  0
   24.5092    6.7662   53.8247 H   0  0  0  0  0  0  0  0  0  0  0  0
   23.7553    7.4269   52.4125 H   0  0  0  0  0  0  0  0  0  0  0  0
   20.3625    7.9815   51.0894 C   0  0  0  0  0  0  0  0  0  0  0  0
   20.9241    7.5485   49.8979 O   0  0  0  0  0  0  0  0  0  0  0  0
   19.0982    7.9506   51.1610 O   0  0  0  0  0  0  0  0  0  0  0  0
   21.7496    8.0764   49.5864 H   0  0  0  0  0  0  0  0  0  0  0  0
   22.6692    6.7249   55.2550 C   0  0  0  0  0  0  0  0  0  0  0  0
   21.6641    6.8167   56.1961 O   0  0  0  0  0  0  0  0  0  0  0  0
   23.4937    5.7852   55.3681 O   0  0  0  0  0  0  0  0  0  0  0  0
   21.3349    6.0706   56.7666 H   0  0  0  0  0  0  0  0  0  0  0  0
   23.0395    9.0640   56.0204 O   0  0  0  0  0  0  0  0  0  0  0  0
   24.1453    9.7231   56.4051 C   0  0  0  0  0  0  0  0  0  0  0  0
   25.4405    9.2969   55.8963 C   0  0  0  0  0  0  0  0  0  0  0  0
   25.5084    8.5874   54.7228 C   0  0  0  0  0  0  0  0  0  0  0  0
   26.7083    8.1634   54.2026 C   0  0  0  0  0  0  0  0  0  0  0  0
   27.8859    8.4477   54.8610 C   0  0  0  0  0  0  0  0  0  0  0  0
   29.3786    7.8886   54.1611 Cl  0  0  0  0  0  0  0  0  0  0  0  0
   27.8392    9.1652   56.0510 C   0  0  0  0  0  0  0  0  0  0  0  0
   26.6199    9.5767   56.5473 C   0  0  0  0  0  0  0  0  0  0  0  0
  1  2  1  0  0  0
  2  3  1  0  0  0
  3  4  1  0  0  0
  4  5  1  0  0  0
  5  6  1  0  0  0
  6 19  1  0  0  0
 19 20  1  0  0  0
 20 21  1  0  0  0
 21 22  2  0  0  0
 22 23  1  0  0  0
 23 24  2  0  0  0
 24 25  1  0  0  0
 24 26  1  0  0  0
 26 27  2  0  0  0
  4  7  1  0  0  0
  7  8  1  0  0  0
  7 11  1  0  0  0
 11 12  1  0  0  0
 11 13  2  0  0  0
  2 15  1  0  0  0
 15 16  1  0  0  0
 15 17  2  0  0  0
  6  2  1  0  0  0
 27 21  1  0  0  0
  7  3  1  0  0  0
  1  9  1  0  0  0
  1 10  1  0  0  0
 12 14  1  0  0  0
 16 18  1  0  0  0
M  END
> <minimizedAffinity>
2.78810

> <CNNscore>
0.4992449880

> <CNNaffinity>
6.0758895874

> <CNN_VS>
3.0333573818

> <CNNaffinity_variance>
0.2529746890

$$$$
[H]OC(=O)[C@@]([H])(N([H])[H])[C@@]1([H])[C@@]([H])(O[H])[C@]1([H])C(=O)O[H]


 17 17  0  0  0  0  0  0  0  0999 V2000
   22.3544    7.9057   52.8827 C   0  0  0  0  0  0  0  0  0  0  0  0
   21.3185    8.4668   52.0248 C   0  0  0  0  0  0  0  0  0  0  0  0
   20.2607    7.7953   51.4751 O   0  0  0  0  0  0  0  0  0  0  0  0
   21.2112    8.7132   53.4897 C   0  0  0  0  0  0  0  0  0  0  0  0
   19.5728    8.4835   51.2061 H   0  0  0  0  0  0  0  0  0  0  0  0
   21.0443    6.0008   53.4731 N   0  0  0  0  0  0  0  0  0  0  0  0
   22.4316    6.4918   53.3522 C   0  0  0  0  0  0  0  0  0  0  0  0
   20.4565    6.7780   53.8872 H   0  0  0  0  0  0  0  0  0  0  0  0
   20.9975    5.2219   54.1658 H   0  0  0  0  0  0  0  0  0  0  0  0
   23.0624    6.3060   54.6729 C   0  0  0  0  0  0  0  0  0  0  0  0
   22.3037    6.2115   55.8421 O   0  0  0  0  0  0  0  0  0  0  0  0
   24.3158    6.2305   54.7587 O   0  0  0  0  0  0  0  0  0  0  0  0
   22.3975    6.8997   56.5948 H   0  0  0  0  0  0  0  0  0  0  0  0
   21.5346   10.0389   54.0407 C   0  0  0  0  0  0  0  0  0  0  0  0
   21.9280   10.1669   55.3468 O   0  0  0  0  0  0  0  0  0  0  0  0
   21.4488   11.0492   53.3115 O   0  0  0  0  0  0  0  0  0  0  0  0
   22.3788    9.4328   55.8764 H   0  0  0  0  0  0  0  0  0  0  0  0
  6  7  1  0  0  0
  7  1  1  0  0  0
  1  2  1  0  0  0
  2  3  1  0  0  0
  2  4  1  0  0  0
  4 14  1  0  0  0
 14 15  1  0  0  0
 14 16  2  0  0  0
  7 10  1  0  0  0
 10 11  1  0  0  0
 10 12  2  0  0  0
  4  1  1  0  0  0
  6  8  1  0  0  0
  6  9  1  0  0  0
  3  5  1  0  0  0
 15 17  1  0  0  0
 11 13  1  0  0  0
M  END
> <minimizedAffinity>
-7.99263

> <CNNscore>
0.8665031195

> <CNNaffinity>
5.1911721230

> <CNN_VS>
4.4981670380

> <CNNaffinity_variance>
0.1763634980

$$$$
[H]OC(=O)[C@@]([H])(N([H])[H])[C@@]1([H])[C@@]([H])(O[H])[C@]1([H])C(=O)O[H]


 17 17  0  0  0  0  0  0  0  0999 V2000
   22.5743    7.9421   52.9623 C   0  0  0  0  0  0  0  0  0  0  0  0
   21.3582    8.4171   52.3149 C   0  0  0  0  0  0  0  0  0  0  0  0
   20.3072    7.6518   51.8888 O   0  0  0  0  0  0  0  0  0  0  0  0
   21.4609    8.5734   53.7924 C   0  0  0  0  0  0  0  0  0  0  0  0
   19.5127    8.2647   51.7771 H   0  0  0  0  0  0  0  0  0  0  0  0
   21.6157    5.9030   53.7476 N   0  0  0  0  0  0  0  0  0  0  0  0
   22.8827    6.5256   53.3148 C   0  0  0  0  0  0  0  0  0  0  0  0
   21.0901    6.6064   54.3392 H   0  0  0  0  0  0  0  0  0  0  0  0
   21.8091    5.0988   54.3837 H   0  0  0  0  0  0  0  0  0  0  0  0
   23.8395    6.3525   54.4245 C   0  0  0  0  0  0  0  0  0  0  0  0
   25.0313    7.0787   54.4863 O   0  0  0  0  0  0  0  0  0  0  0  0
   23.5844    5.5312   55.3434 O   0  0  0  0  0  0  0  0  0  0  0  0
   25.9419    6.6104   54.4621 H   0  0  0  0  0  0  0  0  0  0  0  0
   21.7192    9.8985   54.3781 C   0  0  0  0  0  0  0  0  0  0  0  0
   22.3554   10.0075   55.5866 O   0  0  0  0  0  0  0  0  0  0  0  0
   21.3554   10.9257   53.7680 O   0  0  0  0  0  0  0  0  0  0  0  0
   22.9964    9.3165   55.9528 H   0  0  0  0  0  0  0  0  0  0  0  0
  6  7  1  0  0  0
  7  1  1  0  0  0
  1  2  1  0  0  0
  2  3  1  0  0  0
  2  4  1  0  0  0
  4 14  1  0  0  0
 14 15  1  0  0  0
 14 16  2  0  0  0
  7 10  1  0  0  0
 10 11  1  0  0  0
 10 12  2  0  0  0
  4  1  1  0  0  0
  6  8  1  0  0  0
  6  9  1  0  0  0
  3  5  1  0  0  0
 15 17  1  0  0  0
 11 13  1  0  0  0
M  END
> <minimizedAffinity>
-7.80200

> <CNNscore>
0.8642926216

> <CNNaffinity>
5.2326369286

> <CNN_VS>
4.5225296021

> <CNNaffinity_variance>
0.1942580342

$$$$
[H]OC(=O)[C@@]([H])(N([H])[H])[C@@]1([H])[C@@]([H])(O[H])[C@]1([H])C(=O)O[H]


 17 17  0  0  0  0  0  0  0  0999 V2000
   22.0451    8.4182   54.1938 C   0  0  0  0  0  0  0  0  0  0  0  0
   22.4417    7.6039   55.3354 C   0  0  0  0  0  0  0  0  0  0  0  0
   21.8049    6.4867   55.8026 O   0  0  0  0  0  0  0  0  0  0  0  0
   23.1854    7.4137   54.0592 C   0  0  0  0  0  0  0  0  0  0  0  0
   22.4628    5.9827   56.3792 H   0  0  0  0  0  0  0  0  0  0  0  0
   20.7123    6.6947   53.2207 N   0  0  0  0  0  0  0  0  0  0  0  0
   20.8825    8.1596   53.2954 C   0  0  0  0  0  0  0  0  0  0  0  0
   21.6739    6.2557   53.1600 H   0  0  0  0  0  0  0  0  0  0  0  0
   20.2340    6.4332   52.3310 H   0  0  0  0  0  0  0  0  0  0  0  0
   21.0462    8.6374   51.9092 C   0  0  0  0  0  0  0  0  0  0  0  0
   20.8654    7.7891   50.8141 O   0  0  0  0  0  0  0  0  0  0  0  0
   21.3573    9.8385   51.6977 O   0  0  0  0  0  0  0  0  0  0  0  0
   21.6323    7.5848   50.1666 H   0  0  0  0  0  0  0  0  0  0  0  0
   24.5480    7.9495   53.9121 C   0  0  0  0  0  0  0  0  0  0  0  0
   25.0876    8.1326   52.6661 O   0  0  0  0  0  0  0  0  0  0  0  0
   25.2124    8.2374   54.9297 O   0  0  0  0  0  0  0  0  0  0  0  0
   24.5408    8.2944   51.8311 H   0  0  0  0  0  0  0  0  0  0  0  0
  6  7  1  0  0  0
  7  1  1  0  0  0
  1  2  1  0  0  0
  2  3  1  0  0  0
  2  4  1  0  0  0
  4 14  1  0  0  0
 14 15  1  0  0  0
 14 16  2  0  0  0
  7 10  1  0  0  0
 10 11  1  0  0  0
 10 12  2  0  0  0
  4  1  1  0  0  0
  6  8  1  0  0  0
  6  9  1  0  0  0
  3  5  1  0  0  0
 15 17  1  0  0  0
 11 13  1  0  0  0
M  END
> <minimizedAffinity>
-6.88804

> <CNNscore>
0.8302157521

> <CNNaffinity>
5.2719969749

> <CNN_VS>
4.3768949509

> <CNNaffinity_variance>
0.0850528032

$$$$
[H]OC(=O)[C@@]([H])(N([H])[H])[C@@]1([H])[C@@]([H])(O[H])[C@]1([H])C(=O)O[H]


 17 17  0  0  0  0  0  0  0  0999 V2000
   21.8255    7.8011   54.0003 C   0  0  0  0  0  0  0  0  0  0  0  0
   21.9237    6.9772   52.8022 C   0  0  0  0  0  0  0  0  0  0  0  0
   21.4463    7.2852   51.5576 O   0  0  0  0  0  0  0  0  0  0  0  0
   23.1329    7.7416   53.2163 C   0  0  0  0  0  0  0  0  0  0  0  0
   21.9238    6.6914   50.8952 H   0  0  0  0  0  0  0  0  0  0  0  0
   21.4590    9.8215   52.7848 N   0  0  0  0  0  0  0  0  0  0  0  0
   21.2131    9.1591   54.0814 C   0  0  0  0  0  0  0  0  0  0  0  0
   22.4441    9.5846   52.4773 H   0  0  0  0  0  0  0  0  0  0  0  0
   21.4498   10.8582   52.9031 H   0  0  0  0  0  0  0  0  0  0  0  0
   21.7814   10.0392   55.1202 C   0  0  0  0  0  0  0  0  0  0  0  0
   22.9158    9.6760   55.8501 O   0  0  0  0  0  0  0  0  0  0  0  0
   21.2366   11.1475   55.3628 O   0  0  0  0  0  0  0  0  0  0  0  0
   22.8782    9.5525   56.8661 H   0  0  0  0  0  0  0  0  0  0  0  0
   24.2681    7.0448   53.8418 C   0  0  0  0  0  0  0  0  0  0  0  0
   24.0769    5.8477   54.4803 O   0  0  0  0  0  0  0  0  0  0  0  0
   25.4091    7.5498   53.7884 O   0  0  0  0  0  0  0  0  0  0  0  0
   23.3300    5.2025   54.2609 H   0  0  0  0  0  0  0  0  0  0  0  0
  6  7  1  0  0  0
  7  1  1  0  0  0
  1  2  1  0  0  0
  2  3  1  0  0  0
  2  4  1  0  0  0
  4 14  1  0  0  0
 14 15  1  0  0  0
 14 16  2  0  0  0
  7 10  1  0  0  0
 10 11  1  0  0  0
 10 12  2  0  0  0
  4  1  1  0  0  0
  6  8  1  0  0  0
  6  9  1  0  0  0
  3  5  1  0  0  0
 15 17  1  0  0  0
 11 13  1  0  0  0
M  END
> <minimizedAffinity>
-6.59535

> <CNNscore>
0.7249957323

> <CNNaffinity>
5.0279107094

> <CNN_VS>
3.6452138424

> <CNNaffinity_variance>
0.0825804546

$$$$
[H]OC(=O)[C@@]([H])(N([H])[H])[C@@]1([H])[C@@]([H])(O[H])[C@]1([H])C(=O)O[H]


 17 17  0  0  0  0  0  0  0  0999 V2000
   22.0366    7.8644   53.9455 C   0  0  0  0  0  0  0  0  0  0  0  0
   22.1098    6.4272   54.1753 C   0  0  0  0  0  0  0  0  0  0  0  0
   21.3564    5.4627   53.5636 O   0  0  0  0  0  0  0  0  0  0  0  0
   23.1572    7.0437   53.3146 C   0  0  0  0  0  0  0  0  0  0  0  0
   21.8337    4.5819   53.6887 H   0  0  0  0  0  0  0  0  0  0  0  0
   21.4148    7.9524   51.6435 N   0  0  0  0  0  0  0  0  0  0  0  0
   21.1443    8.5503   52.9662 C   0  0  0  0  0  0  0  0  0  0  0  0
   22.4597    7.8049   51.5580 H   0  0  0  0  0  0  0  0  0  0  0  0
   21.1696    8.6275   50.8867 H   0  0  0  0  0  0  0  0  0  0  0  0
   21.3684   10.0020   52.8277 C   0  0  0  0  0  0  0  0  0  0  0  0
   21.4590   10.6146   51.5755 O   0  0  0  0  0  0  0  0  0  0  0  0
   21.4828   10.7150   53.8585 O   0  0  0  0  0  0  0  0  0  0  0  0
   22.3148   11.0916   51.2768 H   0  0  0  0  0  0  0  0  0  0  0  0
   24.5191    7.2409   53.8361 C   0  0  0  0  0  0  0  0  0  0  0  0
   25.3747    8.1158   53.2202 O   0  0  0  0  0  0  0  0  0  0  0  0
   24.8928    6.6061   54.8447 O   0  0  0  0  0  0  0  0  0  0  0  0
   25.0736    8.9143   52.6778 H   0  0  0  0  0  0  0  0  0  0  0  0
  6  7  1  0  0  0
  7  1  1  0  0  0
  1  2  1  0  0  0
  2  3  1  0  0  0
  2  4  1  0  0  0
  4 14  1  0  0  0
 14 15  1  0  0  0
 14 16  2  0  0  0
  7 10  1  0  0  0
 10 11  1  0  0  0
 10 12  2  0  0  0
  4  1  1  0  0  0
  6  8  1  0  0  0
  6  9  1  0  0  0
  3  5  1  0  0  0
 15 17  1  0  0  0
 11 13  1  0  0  0
M  END
> <minimizedAffinity>
-6.57041

> <CNNscore>
0.6670093536

> <CNNaffinity>
5.1418719292

> <CNN_VS>
3.4296767712

> <CNNaffinity_variance>
0.0692356527

$$$$
[H]OC(=O)[C@@]([H])(N([H])[H])[C@@]1([H])[C@@]([H])(O[H])[C@]1([H])C(=O)O[H]


 17 17  0  0  0  0  0  0  0  0999 V2000
   21.8477    7.0682   53.1830 C   0  0  0  0  0  0  0  0  0  0  0  0
   23.2905    7.2720   53.1583 C   0  0  0  0  0  0  0  0  0  0  0  0
   23.9499    8.3942   52.7368 O   0  0  0  0  0  0  0  0  0  0  0  0
   22.5956    7.4085   54.4684 C   0  0  0  0  0  0  0  0  0  0  0  0
   24.8831    8.3585   53.1204 H   0  0  0  0  0  0  0  0  0  0  0  0
   20.3922    7.7273   51.4108 N   0  0  0  0  0  0  0  0  0  0  0  0
   20.8152    8.0683   52.7838 C   0  0  0  0  0  0  0  0  0  0  0  0
   21.2537    7.4480   50.8623 H   0  0  0  0  0  0  0  0  0  0  0  0
   20.0216    8.5746   50.9277 H   0  0  0  0  0  0  0  0  0  0  0  0
   21.2823    9.4673   52.7470 C   0  0  0  0  0  0  0  0  0  0  0  0
   21.4716   10.2090   53.9156 O   0  0  0  0  0  0  0  0  0  0  0  0
   21.5182   10.0155   51.6389 O   0  0  0  0  0  0  0  0  0  0  0  0
   20.9281   11.0569   54.1019 H   0  0  0  0  0  0  0  0  0  0  0  0
   22.7183    6.3495   55.4828 C   0  0  0  0  0  0  0  0  0  0  0  0
   21.8387    6.2923   56.5316 O   0  0  0  0  0  0  0  0  0  0  0  0
   23.6294    5.5011   55.3837 O   0  0  0  0  0  0  0  0  0  0  0  0
   20.8970    6.6595   56.5009 H   0  0  0  0  0  0  0  0  0  0  0  0
  6  7  1  0  0  0
  7  1  1  0  0  0
  1  2  1  0  0  0
  2  3  1  0  0  0
  2  4  1  0  0  0
  4 14  1  0  0  0
 14 15  1  0  0  0
 14 16  2  0  0  0
  7 10  1  0  0  0
 10 11  1  0  0  0
 10 12  2  0  0  0
  4  1  1  0  0  0
  6  8  1  0  0  0
  6  9  1  0  0  0
  3  5  1  0  0  0
 15 17  1  0  0  0
 11 13  1  0  0  0
M  END
> <minimizedAffinity>
-6.64586

> <CNNscore>
0.6238488555

> <CNNaffinity>
4.7953310013

> <CNN_VS>
2.9915616512

> <CNNaffinity_variance>
0.1377824843

$$$$
[H]OC(=O)[C@@]([H])(N([H])[H])[C@@]1([H])[C@@]([H])(O[H])[C@]1([H])C(=O)O[H]


 17 17  0  0  0  0  0  0  0  0999 V2000
   22.5126    8.6485   53.5202 C   0  0  0  0  0  0  0  0  0  0  0  0
   23.2623    9.1253   54.6755 C   0  0  0  0  0  0  0  0  0  0  0  0
   22.7460    9.7083   55.8004 O   0  0  0  0  0  0  0  0  0  0  0  0
   23.0234    7.6595   54.5635 C   0  0  0  0  0  0  0  0  0  0  0  0
   23.4469    9.6417   56.5241 H   0  0  0  0  0  0  0  0  0  0  0  0
   20.4524    8.4460   54.7069 N   0  0  0  0  0  0  0  0  0  0  0  0
   21.0289    8.6760   53.3671 C   0  0  0  0  0  0  0  0  0  0  0  0
   21.0290    7.6997   55.1881 H   0  0  0  0  0  0  0  0  0  0  0  0
   19.4946    8.0409   54.6216 H   0  0  0  0  0  0  0  0  0  0  0  0
   20.4730    7.6337   52.4831 C   0  0  0  0  0  0  0  0  0  0  0  0
   20.0825    6.3858   52.9747 O   0  0  0  0  0  0  0  0  0  0  0  0
   20.3442    7.8654   51.2527 O   0  0  0  0  0  0  0  0  0  0  0  0
   20.5362    5.5235   52.6591 H   0  0  0  0  0  0  0  0  0  0  0  0
   24.1198    6.7613   54.1674 C   0  0  0  0  0  0  0  0  0  0  0  0
   25.3345    7.2755   53.7971 O   0  0  0  0  0  0  0  0  0  0  0  0
   23.9383    5.5256   54.1702 O   0  0  0  0  0  0  0  0  0  0  0  0
   25.6908    8.1678   54.1120 H   0  0  0  0  0  0  0  0  0  0  0  0
  6  7  1  0  0  0
  7  1  1  0  0  0
  1  2  1  0  0  0
  2  3  1  0  0  0
  2  4  1  0  0  0
  4 14  1  0  0  0
 14 15  1  0  0  0
 14 16  2  0  0  0
  7 10  1  0  0  0
 10 11  1  0  0  0
 10 12  2  0  0  0
  4  1  1  0  0  0
  6  8  1  0  0  0
  6  9  1  0  0  0
  3  5  1  0  0  0
 15 17  1  0  0  0
 11 13  1  0  0  0
M  END
> <minimizedAffinity>
-6.96167

> <CNNscore>
0.6149408221

> <CNNaffinity>
5.1866984367

> <CNN_VS>
3.1895124912

> <CNNaffinity_variance>
0.0585908964

$$$$
[H]OC(=O)[C@@]([H])(N([H])[H])[C@@]1([H])[C@@]([H])(O[H])[C@]1([H])C(=O)O[H]


 17 17  0  0  0  0  0  0  0  0999 V2000
   21.5138    7.5948   53.9891 C   0  0  0  0  0  0  0  0  0  0  0  0
   21.6624    8.9457   54.5154 C   0  0  0  0  0  0  0  0  0  0  0  0
   22.6058    9.3755   55.4082 O   0  0  0  0  0  0  0  0  0  0  0  0
   22.1745    8.6785   53.1426 C   0  0  0  0  0  0  0  0  0  0  0  0
   22.6511   10.3817   55.3390 H   0  0  0  0  0  0  0  0  0  0  0  0
   22.3499    6.2393   55.7660 N   0  0  0  0  0  0  0  0  0  0  0  0
   22.3935    6.4313   54.3026 C   0  0  0  0  0  0  0  0  0  0  0  0
   22.3705    7.1943   56.2227 H   0  0  0  0  0  0  0  0  0  0  0  0
   23.2176    5.7600   56.0918 H   0  0  0  0  0  0  0  0  0  0  0  0
   23.8132    6.6068   53.9414 C   0  0  0  0  0  0  0  0  0  0  0  0
   24.3082    6.2115   52.6963 O   0  0  0  0  0  0  0  0  0  0  0  0
   24.6066    7.1244   54.7701 O   0  0  0  0  0  0  0  0  0  0  0  0
   25.0288    5.4883   52.6151 H   0  0  0  0  0  0  0  0  0  0  0  0
   21.4334    9.1695   51.9699 C   0  0  0  0  0  0  0  0  0  0  0  0
   21.3814   10.5112   51.6977 O   0  0  0  0  0  0  0  0  0  0  0  0
   20.8507    8.3566   51.2219 O   0  0  0  0  0  0  0  0  0  0  0  0
   22.0881   11.1747   51.9856 H   0  0  0  0  0  0  0  0  0  0  0  0
  6  7  1  0  0  0
  7  1  1  0  0  0
  1  2  1  0  0  0
  2  3  1  0  0  0
  2  4  1  0  0  0
  4 14  1  0  0  0
 14 15  1  0  0  0
 14 16  2  0  0  0
  7 10  1  0  0  0
 10 11  1  0  0  0
 10 12  2  0  0  0
  4  1  1  0  0  0
  6  8  1  0  0  0
  6  9  1  0  0  0
  3  5  1  0  0  0
 15 17  1  0  0  0
 11 13  1  0  0  0
M  END
> <minimizedAffinity>
-7.27478

> <CNNscore>
0.5934934020

> <CNNaffinity>
4.7642922401

> <CNN_VS>
2.8275759220

> <CNNaffinity_variance>
0.3829768896

$$$$
[H]OC(=O)[C@@]([H])(N([H])[H])[C@@]1([H])[C@@]([H])(O[H])[C@]1([H])C(=O)O[H]


 17 17  0  0  0  0  0  0  0  0999 V2000
   26.5905    7.8620   55.1096 C   0  0  0  0  0  0  0  0  0  0  0  0
   26.0296    8.6940   56.1665 C   0  0  0  0  0  0  0  0  0  0  0  0
   26.4038    9.9705   56.4865 O   0  0  0  0  0  0  0  0  0  0  0  0
   25.2538    8.5671   54.9016 C   0  0  0  0  0  0  0  0  0  0  0  0
   25.6538   10.3793   57.0247 H   0  0  0  0  0  0  0  0  0  0  0  0
   28.3957    9.3856   54.7728 N   0  0  0  0  0  0  0  0  0  0  0  0
   27.6599    8.2664   54.1513 C   0  0  0  0  0  0  0  0  0  0  0  0
   27.6909   10.0192   55.2449 H   0  0  0  0  0  0  0  0  0  0  0  0
   28.8444    9.9737   54.0370 H   0  0  0  0  0  0  0  0  0  0  0  0
   27.1763    8.7522   52.8447 C   0  0  0  0  0  0  0  0  0  0  0  0
   28.0194    9.4166   51.9507 O   0  0  0  0  0  0  0  0  0  0  0  0
   25.9746    8.5686   52.5187 O   0  0  0  0  0  0  0  0  0  0  0  0
   27.8397   10.3847   51.6688 H   0  0  0  0  0  0  0  0  0  0  0  0
   24.0443    7.7298   54.8586 C   0  0  0  0  0  0  0  0  0  0  0  0
   24.1474    6.3765   54.6714 O   0  0  0  0  0  0  0  0  0  0  0  0
   22.9210    8.2587   54.9936 O   0  0  0  0  0  0  0  0  0  0  0  0
   24.9593    5.8303   54.9263 H   0  0  0  0  0  0  0  0  0  0  0  0
  6  7  1  0  0  0
  7  1  1  0  0  0
  1  2  1  0  0  0
  2  3  1  0  0  0
  2  4  1  0  0  0
  4 14  1  0  0  0
 14 15  1  0  0  0
 14 16  2  0  0  0
  7 10  1  0  0  0
 10 11  1  0  0  0
 10 12  2  0  0  0
  4  1  1  0  0  0
  6  8  1  0  0  0
  6  9  1  0  0  0
  3  5  1  0  0  0
 15 17  1  0  0  0
 11 13  1  0  0  0
M  END
> <minimizedAffinity>
5.13749

> <CNNscore>
0.5767470002

> <CNNaffinity>
3.9686369896

> <CNN_VS>
2.2888994217

> <CNNaffinity_variance>
0.3722056448

$$$$
[H]c1nc(C([H])([H])[H])c([H])c(-c2c([H])c([H])c([H])c(C3=Nc4c([H])c(OC([H])([H])C([H])([H])[H])c(C(F)(F)F)c([H])c4N([H])C(=O)C3([H])[H])c2[H])c1[H]


 33 36  0  0  0  0  0  0  0  0999 V2000
   20.0293    4.4024   53.8714 C   0  0  0  0  0  0  0  0  0  0  0  0
   21.2391    5.0450   54.0344 C   0  0  0  0  0  0  0  0  0  0  0  0
   21.3411    6.4226   54.0096 C   0  0  0  0  0  0  0  0  0  0  0  0
   22.6421    6.8992   54.1862 N   0  0  0  0  0  0  0  0  0  0  0  0
   23.1285    8.0361   54.6127 C   0  0  0  0  0  0  0  0  0  0  0  0
   22.3442    9.1899   55.0484 C   0  0  0  0  0  0  0  0  0  0  0  0
   21.2032    9.5155   54.1191 C   0  0  0  0  0  0  0  0  0  0  0  0
   21.1716   10.6757   53.6069 O   0  0  0  0  0  0  0  0  0  0  0  0
   20.1560    8.6269   53.7692 N   0  0  0  0  0  0  0  0  0  0  0  0
   20.2034    7.2032   53.8161 C   0  0  0  0  0  0  0  0  0  0  0  0
   19.0026    6.5816   53.6537 C   0  0  0  0  0  0  0  0  0  0  0  0
   18.9197    5.1990   53.6815 C   0  0  0  0  0  0  0  0  0  0  0  0
   19.2605    9.0424   53.4449 H   0  0  0  0  0  0  0  0  0  0  0  0
   24.5767    8.1266   54.6464 C   0  0  0  0  0  0  0  0  0  0  0  0
   25.3006    7.5111   53.6141 C   0  0  0  0  0  0  0  0  0  0  0  0
   26.6781    7.5435   53.5699 C   0  0  0  0  0  0  0  0  0  0  0  0
   27.4032    8.1904   54.5514 C   0  0  0  0  0  0  0  0  0  0  0  0
   26.6906    8.7933   55.5627 C   0  0  0  0  0  0  0  0  0  0  0  0
   25.2855    8.7643   55.6146 C   0  0  0  0  0  0  0  0  0  0  0  0
   27.4375    9.4891   56.6221 C   0  0  0  0  0  0  0  0  0  0  0  0
   28.3725    8.8398   57.3907 C   0  0  0  0  0  0  0  0  0  0  0  0
   29.0370    9.5487   58.3664 C   0  0  0  0  0  0  0  0  0  0  0  0
   28.7934   10.8565   58.5838 N   0  0  0  0  0  0  0  0  0  0  0  0
   27.8841   11.4907   57.8373 C   0  0  0  0  0  0  0  0  0  0  0  0
   27.6082   12.9550   58.0776 C   0  0  0  0  0  0  0  0  0  0  0  0
   27.2013   10.8195   56.8558 C   0  0  0  0  0  0  0  0  0  0  0  0
   17.6082    4.5306   53.5039 C   0  0  0  0  0  0  0  0  0  0  0  0
   17.2361    3.9008   54.6896 F   0  0  0  0  0  0  0  0  0  0  0  0
   17.6741    3.6041   52.4730 F   0  0  0  0  0  0  0  0  0  0  0  0
   16.6517    5.5071   53.2457 F   0  0  0  0  0  0  0  0  0  0  0  0
   19.8965    3.0154   53.8919 O   0  0  0  0  0  0  0  0  0  0  0  0
   20.8320    1.1740   52.7485 C   0  0  0  0  0  0  0  0  0  0  0  0
   19.7489    2.2306   52.7511 C   0  0  0  0  0  0  0  0  0  0  0  0
 32 33  1  0  0  0
 33 31  1  0  0  0
 31  1  1  0  0  0
  1  2  2  0  0  0
  2  3  1  0  0  0
  3  4  1  0  0  0
  4  5  2  0  0  0
  5  6  1  0  0  0
  6  7  1  0  0  0
  7  8  2  0  0  0
  7  9  1  0  0  0
  9 10  1  0  0  0
 10 11  1  0  0  0
 11 12  2  0  0  0
 12 27  1  0  0  0
 27 28  1  0  0  0
 27 29  1  0  0  0
 27 30  1  0  0  0
  5 14  1  0  0  0
 14 15  2  0  0  0
 15 16  1  0  0  0
 16 17  2  0  0  0
 17 18  1  0  0  0
 18 19  2  0  0  0
 18 20  1  0  0  0
 20 21  2  0  0  0
 21 22  1  0  0  0
 22 23  2  0  0  0
 23 24  1  0  0  0
 24 25  1  0  0  0
 24 26  2  0  0  0
 12  1  1  0  0  0
 19 14  1  0  0  0
 26 20  1  0  0  0
 10  3  2  0  0  0
  9 13  1  0  0  0
M  END
> <minimizedAffinity>
33.66368

> <CNNscore>
0.5446785688

> <CNNaffinity>
6.5649757385

> <CNN_VS>
3.5758016109

> <CNNaffinity_variance>
0.4533994794

$$$$
[H]c1nc(C([H])([H])[H])c([H])c(-c2c([H])c([H])c([H])c(C3=Nc4c([H])c(OC([H])([H])C([H])([H])[H])c(C(F)(F)F)c([H])c4N([H])C(=O)C3([H])[H])c2[H])c1[H]


 33 36  0  0  0  0  0  0  0  0999 V2000
   20.8915    4.3525   53.5612 C   0  0  0  0  0  0  0  0  0  0  0  0
   22.0707    5.0665   53.5080 C   0  0  0  0  0  0  0  0  0  0  0  0
   22.0856    6.4479   53.4943 C   0  0  0  0  0  0  0  0  0  0  0  0
   23.3665    7.0016   53.4337 N   0  0  0  0  0  0  0  0  0  0  0  0
   23.8575    8.1618   53.7859 C   0  0  0  0  0  0  0  0  0  0  0  0
   23.1036    9.2607   54.3860 C   0  0  0  0  0  0  0  0  0  0  0  0
   21.7906    9.5252   53.6947 C   0  0  0  0  0  0  0  0  0  0  0  0
   21.5953   10.6865   53.2228 O   0  0  0  0  0  0  0  0  0  0  0  0
   20.7499    8.5776   53.5285 N   0  0  0  0  0  0  0  0  0  0  0  0
   20.8883    7.1591   53.5348 C   0  0  0  0  0  0  0  0  0  0  0  0
   19.7168    6.4667   53.5874 C   0  0  0  0  0  0  0  0  0  0  0  0
   19.7214    5.0814   53.6003 C   0  0  0  0  0  0  0  0  0  0  0  0
   19.7866    8.9407   53.3872 H   0  0  0  0  0  0  0  0  0  0  0  0
   25.2782    8.3406   53.5490 C   0  0  0  0  0  0  0  0  0  0  0  0
   26.1641    8.0457   54.5963 C   0  0  0  0  0  0  0  0  0  0  0  0
   27.5283    8.1914   54.4601 C   0  0  0  0  0  0  0  0  0  0  0  0
   28.0779    8.6380   53.2742 C   0  0  0  0  0  0  0  0  0  0  0  0
   27.2067    8.9266   52.2488 C   0  0  0  0  0  0  0  0  0  0  0  0
   25.8141    8.7805   52.3803 C   0  0  0  0  0  0  0  0  0  0  0  0
   27.7647    9.4050   50.9744 C   0  0  0  0  0  0  0  0  0  0  0  0
   27.9600   10.7423   50.7296 C   0  0  0  0  0  0  0  0  0  0  0  0
   28.4862   11.1245   49.5159 C   0  0  0  0  0  0  0  0  0  0  0  0
   28.8123   10.2230   48.5682 N   0  0  0  0  0  0  0  0  0  0  0  0
   28.6231    8.9210   48.8039 C   0  0  0  0  0  0  0  0  0  0  0  0
   28.9868    7.9085   47.7453 C   0  0  0  0  0  0  0  0  0  0  0  0
   28.1015    8.5007   50.0001 C   0  0  0  0  0  0  0  0  0  0  0  0
   18.4412    4.3356   53.6576 C   0  0  0  0  0  0  0  0  0  0  0  0
   18.3860    3.5842   54.8295 F   0  0  0  0  0  0  0  0  0  0  0  0
   18.3163    3.5051   52.5531 F   0  0  0  0  0  0  0  0  0  0  0  0
   17.4011    5.2573   53.7173 F   0  0  0  0  0  0  0  0  0  0  0  0
   20.8461    2.9598   53.5761 O   0  0  0  0  0  0  0  0  0  0  0  0
   21.1972    0.7749   52.7540 C   0  0  0  0  0  0  0  0  0  0  0  0
   20.7144    2.1730   52.4348 C   0  0  0  0  0  0  0  0  0  0  0  0
 32 33  1  0  0  0
 33 31  1  0  0  0
 31  1  1  0  0  0
  1  2  2  0  0  0
  2  3  1  0  0  0
  3  4  1  0  0  0
  4  5  2  0  0  0
  5  6  1  0  0  0
  6  7  1  0  0  0
  7  8  2  0  0  0
  7  9  1  0  0  0
  9 10  1  0  0  0
 10 11  1  0  0  0
 11 12  2  0  0  0
 12 27  1  0  0  0
 27 28  1  0  0  0
 27 29  1  0  0  0
 27 30  1  0  0  0
  5 14  1  0  0  0
 14 15  2  0  0  0
 15 16  1  0  0  0
 16 17  2  0  0  0
 17 18  1  0  0  0
 18 19  2  0  0  0
 18 20  1  0  0  0
 20 21  2  0  0  0
 21 22  1  0  0  0
 22 23  2  0  0  0
 23 24  1  0  0  0
 24 25  1  0  0  0
 24 26  2  0  0  0
 12  1  1  0  0  0
 19 14  1  0  0  0
 26 20  1  0  0  0
 10  3  2  0  0  0
  9 13  1  0  0  0
M  END
> <minimizedAffinity>
36.78463

> <CNNscore>
0.5104426742

> <CNNaffinity>
6.2589879036

> <CNN_VS>
3.1948544979

> <CNNaffinity_variance>
0.3730404973

$$$$
[H]c1nc(C([H])([H])[H])c([H])c(-c2c([H])c([H])c([H])c(C3=Nc4c([H])c(OC([H])([H])C([H])([H])[H])c(C(F)(F)F)c([H])c4N([H])C(=O)C3([H])[H])c2[H])c1[H]


 33 36  0  0  0  0  0  0  0  0999 V2000
   21.0896    4.8558   53.8005 C   0  0  0  0  0  0  0  0  0  0  0  0
   22.2504    5.5423   54.0913 C   0  0  0  0  0  0  0  0  0  0  0  0
   22.2751    6.9196   54.1958 C   0  0  0  0  0  0  0  0  0  0  0  0
   23.5354    7.4445   54.4906 N   0  0  0  0  0  0  0  0  0  0  0  0
   23.9327    8.5607   55.0450 C   0  0  0  0  0  0  0  0  0  0  0  0
   23.0618    9.6272   55.5352 C   0  0  0  0  0  0  0  0  0  0  0  0
   21.9558    9.9779   54.5731 C   0  0  0  0  0  0  0  0  0  0  0  0
   21.8861   11.1773   54.1657 O   0  0  0  0  0  0  0  0  0  0  0  0
   20.9813    9.0725   54.0841 N   0  0  0  0  0  0  0  0  0  0  0  0
   21.1070    7.6549   54.0062 C   0  0  0  0  0  0  0  0  0  0  0  0
   19.9539    6.9898   53.7185 C   0  0  0  0  0  0  0  0  0  0  0  0
   19.9483    5.6081   53.6176 C   0  0  0  0  0  0  0  0  0  0  0  0
   20.0824    9.4694   53.7461 H   0  0  0  0  0  0  0  0  0  0  0  0
   25.3695    8.7224   55.1719 C   0  0  0  0  0  0  0  0  0  0  0  0
   26.1704    8.3966   54.0669 C   0  0  0  0  0  0  0  0  0  0  0  0
   27.5435    8.5154   54.1014 C   0  0  0  0  0  0  0  0  0  0  0  0
   28.1872    8.9645   55.2379 C   0  0  0  0  0  0  0  0  0  0  0  0
   27.3992    9.2834   56.3202 C   0  0  0  0  0  0  0  0  0  0  0  0
   25.9981    9.1647   56.2925 C   0  0  0  0  0  0  0  0  0  0  0  0
   28.0585    9.7638   57.5445 C   0  0  0  0  0  0  0  0  0  0  0  0
   28.2485   11.1030   57.7830 C   0  0  0  0  0  0  0  0  0  0  0  0
   28.8727   11.4870   58.9488 C   0  0  0  0  0  0  0  0  0  0  0  0
   29.2990   10.5855   59.8558 N   0  0  0  0  0  0  0  0  0  0  0  0
   29.1153    9.2817   59.6261 C   0  0  0  0  0  0  0  0  0  0  0  0
   29.5913    8.2691   60.6391 C   0  0  0  0  0  0  0  0  0  0  0  0
   28.4978    8.8595   58.4770 C   0  0  0  0  0  0  0  0  0  0  0  0
   18.6885    4.8921   53.3040 C   0  0  0  0  0  0  0  0  0  0  0  0
   18.4590    3.9028   54.2577 F   0  0  0  0  0  0  0  0  0  0  0  0
   18.7564    4.3270   52.0385 F   0  0  0  0  0  0  0  0  0  0  0  0
   17.6366    5.7975   53.3975 F   0  0  0  0  0  0  0  0  0  0  0  0
   21.0349    3.4679   53.6891 O   0  0  0  0  0  0  0  0  0  0  0  0
   20.7381    1.3157   52.7653 C   0  0  0  0  0  0  0  0  0  0  0  0
   20.4603    2.7954   52.6136 C   0  0  0  0  0  0  0  0  0  0  0  0
 32 33  1  0  0  0
 33 31  1  0  0  0
 31  1  1  0  0  0
  1  2  2  0  0  0
  2  3  1  0  0  0
  3  4  1  0  0  0
  4  5  2  0  0  0
  5  6  1  0  0  0
  6  7  1  0  0  0
  7  8  2  0  0  0
  7  9  1  0  0  0
  9 10  1  0  0  0
 10 11  1  0  0  0
 11 12  2  0  0  0
 12 27  1  0  0  0
 27 28  1  0  0  0
 27 29  1  0  0  0
 27 30  1  0  0  0
  5 14  1  0  0  0
 14 15  2  0  0  0
 15 16  1  0  0  0
 16 17  2  0  0  0
 17 18  1  0  0  0
 18 19  2  0  0  0
 18 20  1  0  0  0
 20 21  2  0  0  0
 21 22  1  0  0  0
 22 23  2  0  0  0
 23 24  1  0  0  0
 24 25  1  0  0  0
 24 26  2  0  0  0
 12  1  1  0  0  0
 19 14  1  0  0  0
 26 20  1  0  0  0
 10  3  2  0  0  0
  9 13  1  0  0  0
M  END
> <minimizedAffinity>
22.87136

> <CNNscore>
0.5006892681

> <CNNaffinity>
6.5338730812

> <CNN_VS>
3.2714400291

> <CNNaffinity_variance>
0.1129589304

$$$$
[H]c1nc(C([H])([H])[H])c([H])c(-c2c([H])c([H])c([H])c(C3=Nc4c([H])c(OC([H])([H])C([H])([H])[H])c(C(F)(F)F)c([H])c4N([H])C(=O)C3([H])[H])c2[H])c1[H]


 33 36  0  0  0  0  0  0  0  0999 V2000
   19.2451    4.4093   53.3763 C   0  0  0  0  0  0  0  0  0  0  0  0
   19.5270    5.7543   53.4972 C   0  0  0  0  0  0  0  0  0  0  0  0
   20.8232    6.2317   53.4745 C   0  0  0  0  0  0  0  0  0  0  0  0
   20.9206    7.6179   53.6147 N   0  0  0  0  0  0  0  0  0  0  0  0
   21.8316    8.4906   53.2685 C   0  0  0  0  0  0  0  0  0  0  0  0
   23.0872    8.1877   52.5846 C   0  0  0  0  0  0  0  0  0  0  0  0
   23.8087    7.0005   53.1694 C   0  0  0  0  0  0  0  0  0  0  0  0
   24.9908    7.1786   53.5939 O   0  0  0  0  0  0  0  0  0  0  0  0
   23.2718    5.6939   53.2838 N   0  0  0  0  0  0  0  0  0  0  0  0
   21.8899    5.3477   53.3262 C   0  0  0  0  0  0  0  0  0  0  0  0
   21.6258    4.0171   53.2059 C   0  0  0  0  0  0  0  0  0  0  0  0
   20.3194    3.5568   53.2309 C   0  0  0  0  0  0  0  0  0  0  0  0
   23.9418    4.9019   53.3434 H   0  0  0  0  0  0  0  0  0  0  0  0
   21.5383    9.8717   53.6049 C   0  0  0  0  0  0  0  0  0  0  0  0
   21.1730   10.1655   54.9273 C   0  0  0  0  0  0  0  0  0  0  0  0
   20.8732   11.4486   55.3329 C   0  0  0  0  0  0  0  0  0  0  0  0
   20.9221   12.5027   54.4418 C   0  0  0  0  0  0  0  0  0  0  0  0
   21.2807   12.2117   53.1454 C   0  0  0  0  0  0  0  0  0  0  0  0
   21.5879   10.9054   52.7243 C   0  0  0  0  0  0  0  0  0  0  0  0
   21.3403   13.3154   52.1745 C   0  0  0  0  0  0  0  0  0  0  0  0
   20.3134   14.2183   52.0454 C   0  0  0  0  0  0  0  0  0  0  0  0
   20.4313   15.2287   51.1173 C   0  0  0  0  0  0  0  0  0  0  0  0
   21.5240   15.3521   50.3375 N   0  0  0  0  0  0  0  0  0  0  0  0
   22.5247   14.4748   50.4612 C   0  0  0  0  0  0  0  0  0  0  0  0
   23.7497   14.6094   49.5899 C   0  0  0  0  0  0  0  0  0  0  0  0
   22.4448   13.4547   51.3739 C   0  0  0  0  0  0  0  0  0  0  0  0
   20.0411    2.1065   53.0992 C   0  0  0  0  0  0  0  0  0  0  0  0
   18.7785    1.9179   52.5413 F   0  0  0  0  0  0  0  0  0  0  0  0
   20.1112    1.4868   54.3388 F   0  0  0  0  0  0  0  0  0  0  0  0
   20.9628    1.5638   52.2099 F   0  0  0  0  0  0  0  0  0  0  0  0
   17.9484    3.8996   53.3958 O   0  0  0  0  0  0  0  0  0  0  0  0
   15.6488    3.8806   53.9295 C   0  0  0  0  0  0  0  0  0  0  0  0
   17.0556    4.0831   54.4486 C   0  0  0  0  0  0  0  0  0  0  0  0
 32 33  1  0  0  0
 33 31  1  0  0  0
 31  1  1  0  0  0
  1  2  2  0  0  0
  2  3  1  0  0  0
  3  4  1  0  0  0
  4  5  2  0  0  0
  5  6  1  0  0  0
  6  7  1  0  0  0
  7  8  2  0  0  0
  7  9  1  0  0  0
  9 10  1  0  0  0
 10 11  1  0  0  0
 11 12  2  0  0  0
 12 27  1  0  0  0
 27 28  1  0  0  0
 27 29  1  0  0  0
 27 30  1  0  0  0
  5 14  1  0  0  0
 14 15  2  0  0  0
 15 16  1  0  0  0
 16 17  2  0  0  0
 17 18  1  0  0  0
 18 19  2  0  0  0
 18 20  1  0  0  0
 20 21  2  0  0  0
 21 22  1  0  0  0
 22 23  2  0  0  0
 23 24  1  0  0  0
 24 25  1  0  0  0
 24 26  2  0  0  0
 12  1  1  0  0  0
 19 14  1  0  0  0
 26 20  1  0  0  0
 10  3  2  0  0  0
  9 13  1  0  0  0
M  END
> <minimizedAffinity>
46.70504

> <CNNscore>
0.4944710135

> <CNNaffinity>
6.4475769997

> <CNN_VS>
3.1881399155

> <CNNaffinity_variance>
0.3863675296

$$$$
[H]c1nc(C([H])([H])[H])c([H])c(-c2c([H])c([H])c([H])c(C3=Nc4c([H])c(OC([H])([H])C([H])([H])[H])c(C(F)(F)F)c([H])c4N([H])C(=O)C3([H])[H])c2[H])c1[H]


 33 36  0  0  0  0  0  0  0  0999 V2000
   26.6356    9.4452   55.8033 C   0  0  0  0  0  0  0  0  0  0  0  0
   25.3654    9.0210   55.4723 C   0  0  0  0  0  0  0  0  0  0  0  0
   25.1499    8.0326   54.5313 C   0  0  0  0  0  0  0  0  0  0  0  0
   23.8020    7.7341   54.3195 N   0  0  0  0  0  0  0  0  0  0  0  0
   23.1801    6.6756   53.8678 C   0  0  0  0  0  0  0  0  0  0  0  0
   23.8153    5.4323   53.4355 C   0  0  0  0  0  0  0  0  0  0  0  0
   25.0130    5.6564   52.5484 C   0  0  0  0  0  0  0  0  0  0  0  0
   24.9977    5.1333   51.3927 O   0  0  0  0  0  0  0  0  0  0  0  0
   26.1619    6.4073   52.9017 N   0  0  0  0  0  0  0  0  0  0  0  0
   26.2309    7.4347   53.8872 C   0  0  0  0  0  0  0  0  0  0  0  0
   27.4904    7.8441   54.2044 C   0  0  0  0  0  0  0  0  0  0  0  0
   27.6872    8.8368   55.1507 C   0  0  0  0  0  0  0  0  0  0  0  0
   27.0471    6.1972   52.3998 H   0  0  0  0  0  0  0  0  0  0  0  0
   21.7335    6.7760   53.8051 C   0  0  0  0  0  0  0  0  0  0  0  0
   21.1576    8.0541   53.8627 C   0  0  0  0  0  0  0  0  0  0  0  0
   19.7926    8.2416   53.8144 C   0  0  0  0  0  0  0  0  0  0  0  0
   18.9334    7.1656   53.7064 C   0  0  0  0  0  0  0  0  0  0  0  0
   19.5009    5.9132   53.6501 C   0  0  0  0  0  0  0  0  0  0  0  0
   20.8923    5.7142   53.6988 C   0  0  0  0  0  0  0  0  0  0  0  0
   18.6091    4.7487   53.5355 C   0  0  0  0  0  0  0  0  0  0  0  0
   19.0790    3.5153   53.1555 C   0  0  0  0  0  0  0  0  0  0  0  0
   18.1919    2.4659   53.0675 C   0  0  0  0  0  0  0  0  0  0  0  0
   16.8814    2.6193   53.3437 N   0  0  0  0  0  0  0  0  0  0  0  0
   16.4216    3.8185   53.7137 C   0  0  0  0  0  0  0  0  0  0  0  0
   14.9550    3.9945   54.0237 C   0  0  0  0  0  0  0  0  0  0  0  0
   17.2735    4.8882   53.8130 C   0  0  0  0  0  0  0  0  0  0  0  0
   29.0619    9.2764   55.4900 C   0  0  0  0  0  0  0  0  0  0  0  0
   29.9883    8.3967   54.9344 F   0  0  0  0  0  0  0  0  0  0  0  0
   29.2249    9.3326   56.8669 F   0  0  0  0  0  0  0  0  0  0  0  0
   29.2803   10.5189   54.9040 F   0  0  0  0  0  0  0  0  0  0  0  0
   26.8830   10.4394   56.7479 O   0  0  0  0  0  0  0  0  0  0  0  0
   28.4934   10.9943   58.3825 C   0  0  0  0  0  0  0  0  0  0  0  0
   27.2541   10.1858   58.0659 C   0  0  0  0  0  0  0  0  0  0  0  0
 32 33  1  0  0  0
 33 31  1  0  0  0
 31  1  1  0  0  0
  1  2  2  0  0  0
  2  3  1  0  0  0
  3  4  1  0  0  0
  4  5  2  0  0  0
  5  6  1  0  0  0
  6  7  1  0  0  0
  7  8  2  0  0  0
  7  9  1  0  0  0
  9 10  1  0  0  0
 10 11  1  0  0  0
 11 12  2  0  0  0
 12 27  1  0  0  0
 27 28  1  0  0  0
 27 29  1  0  0  0
 27 30  1  0  0  0
  5 14  1  0  0  0
 14 15  2  0  0  0
 15 16  1  0  0  0
 16 17  2  0  0  0
 17 18  1  0  0  0
 18 19  2  0  0  0
 18 20  1  0  0  0
 20 21  2  0  0  0
 21 22  1  0  0  0
 22 23  2  0  0  0
 23 24  1  0  0  0
 24 25  1  0  0  0
 24 26  2  0  0  0
 12  1  1  0  0  0
 19 14  1  0  0  0
 26 20  1  0  0  0
 10  3  2  0  0  0
  9 13  1  0  0  0
M  END
> <minimizedAffinity>
41.18766

> <CNNscore>
0.4654409587

> <CNNaffinity>
5.9357595444

> <CNN_VS>
2.7627456188

> <CNNaffinity_variance>
0.2501720190

$$$$
[H]c1nc(C([H])([H])[H])c([H])c(-c2c([H])c([H])c([H])c(C3=Nc4c([H])c(OC([H])([H])C([H])([H])[H])c(C(F)(F)F)c([H])c4N([H])C(=O)C3([H])[H])c2[H])c1[H]


 33 36  0  0  0  0  0  0  0  0999 V2000
   22.2565    8.8498   53.8774 C   0  0  0  0  0  0  0  0  0  0  0  0
   23.4534    8.4497   53.3202 C   0  0  0  0  0  0  0  0  0  0  0  0
   24.6586    8.6424   53.9675 C   0  0  0  0  0  0  0  0  0  0  0  0
   25.7669    8.1801   53.2541 N   0  0  0  0  0  0  0  0  0  0  0  0
   26.9672    7.8025   53.6115 C   0  0  0  0  0  0  0  0  0  0  0  0
   27.4805    7.7731   54.9797 C   0  0  0  0  0  0  0  0  0  0  0  0
   27.1562    9.0205   55.7609 C   0  0  0  0  0  0  0  0  0  0  0  0
   28.1242    9.6821   56.2453 O   0  0  0  0  0  0  0  0  0  0  0  0
   25.8507    9.5175   56.0008 N   0  0  0  0  0  0  0  0  0  0  0  0
   24.6887    9.2555   55.2182 C   0  0  0  0  0  0  0  0  0  0  0  0
   23.5143    9.6556   55.7799 C   0  0  0  0  0  0  0  0  0  0  0  0
   22.3153    9.4539   55.1157 C   0  0  0  0  0  0  0  0  0  0  0  0
   25.7149   10.1348   56.8255 H   0  0  0  0  0  0  0  0  0  0  0  0
   27.8401    7.3794   52.5319 C   0  0  0  0  0  0  0  0  0  0  0  0
   28.6536    6.2559   52.7426 C   0  0  0  0  0  0  0  0  0  0  0  0
   29.5156    5.7877   51.7738 C   0  0  0  0  0  0  0  0  0  0  0  0
   29.6101    6.4152   50.5470 C   0  0  0  0  0  0  0  0  0  0  0  0
   28.8111    7.5170   50.3430 C   0  0  0  0  0  0  0  0  0  0  0  0
   27.9296    8.0003   51.3265 C   0  0  0  0  0  0  0  0  0  0  0  0
   28.8919    8.2054   49.0453 C   0  0  0  0  0  0  0  0  0  0  0  0
   29.1086    7.5175   47.8764 C   0  0  0  0  0  0  0  0  0  0  0  0
   29.1738    8.2216   46.6949 C   0  0  0  0  0  0  0  0  0  0  0  0
   29.0308    9.5615   46.6583 N   0  0  0  0  0  0  0  0  0  0  0  0
   28.8199   10.2332   47.7943 C   0  0  0  0  0  0  0  0  0  0  0  0
   28.6594   11.7336   47.7577 C   0  0  0  0  0  0  0  0  0  0  0  0
   28.7486    9.5681   48.9911 C   0  0  0  0  0  0  0  0  0  0  0  0
   21.0414    9.8926   55.7346 C   0  0  0  0  0  0  0  0  0  0  0  0
   20.1500    8.8232   55.7862 F   0  0  0  0  0  0  0  0  0  0  0  0
   20.4882   10.9393   55.0108 F   0  0  0  0  0  0  0  0  0  0  0  0
   21.3008   10.2683   57.0486 F   0  0  0  0  0  0  0  0  0  0  0  0
   21.0266    8.6684   53.2479 O   0  0  0  0  0  0  0  0  0  0  0  0
   20.6017    8.1571   50.9827 C   0  0  0  0  0  0  0  0  0  0  0  0
   20.7410    7.6117   52.3872 C   0  0  0  0  0  0  0  0  0  0  0  0
 32 33  1  0  0  0
 33 31  1  0  0  0
 31  1  1  0  0  0
  1  2  2  0  0  0
  2  3  1  0  0  0
  3  4  1  0  0  0
  4  5  2  0  0  0
  5  6  1  0  0  0
  6  7  1  0  0  0
  7  8  2  0  0  0
  7  9  1  0  0  0
  9 10  1  0  0  0
 10 11  1  0  0  0
 11 12  2  0  0  0
 12 27  1  0  0  0
 27 28  1  0  0  0
 27 29  1  0  0  0
 27 30  1  0  0  0
  5 14  1  0  0  0
 14 15  2  0  0  0
 15 16  1  0  0  0
 16 17  2  0  0  0
 17 18  1  0  0  0
 18 19  2  0  0  0
 18 20  1  0  0  0
 20 21  2  0  0  0
 21 22  1  0  0  0
 22 23  2  0  0  0
 23 24  1  0  0  0
 24 25  1  0  0  0
 24 26  2  0  0  0
 12  1  1  0  0  0
 19 14  1  0  0  0
 26 20  1  0  0  0
 10  3  2  0  0  0
  9 13  1  0  0  0
M  END
> <minimizedAffinity>
48.97511

> <CNNscore>
0.4618838131

> <CNNaffinity>
6.1274456978

> <CNN_VS>
2.8301680088

> <CNNaffinity_variance>
0.2835748196

$$$$
[H]c1nc(C([H])([H])[H])c([H])c(-c2c([H])c([H])c([H])c(C3=Nc4c([H])c(OC([H])([H])C([H])([H])[H])c(C(F)(F)F)c([H])c4N([H])C(=O)C3([H])[H])c2[H])c1[H]


 33 36  0  0  0  0  0  0  0  0999 V2000
   21.1730    5.0559   53.7920 C   0  0  0  0  0  0  0  0  0  0  0  0
   22.3362    5.7210   54.1205 C   0  0  0  0  0  0  0  0  0  0  0  0
   22.3834    7.0979   54.2238 C   0  0  0  0  0  0  0  0  0  0  0  0
   23.6429    7.5994   54.5599 N   0  0  0  0  0  0  0  0  0  0  0  0
   24.0424    8.7091   55.1257 C   0  0  0  0  0  0  0  0  0  0  0  0
   23.1759    9.7928   55.5850 C   0  0  0  0  0  0  0  0  0  0  0  0
   22.1096   10.1624   54.5860 C   0  0  0  0  0  0  0  0  0  0  0  0
   22.0761   11.3620   54.1749 O   0  0  0  0  0  0  0  0  0  0  0  0
   21.1349    9.2745   54.0659 N   0  0  0  0  0  0  0  0  0  0  0  0
   21.2364    7.8546   53.9943 C   0  0  0  0  0  0  0  0  0  0  0  0
   20.0812    7.2108   53.6690 C   0  0  0  0  0  0  0  0  0  0  0  0
   20.0529    5.8292   53.5699 C   0  0  0  0  0  0  0  0  0  0  0  0
   20.2555    9.6876   53.6975 H   0  0  0  0  0  0  0  0  0  0  0  0
   25.4770    8.8440   55.3004 C   0  0  0  0  0  0  0  0  0  0  0  0
   26.3056    8.5475   54.2076 C   0  0  0  0  0  0  0  0  0  0  0  0
   27.6786    8.6440   54.2865 C   0  0  0  0  0  0  0  0  0  0  0  0
   28.2946    9.0404   55.4575 C   0  0  0  0  0  0  0  0  0  0  0  0
   27.4795    9.3306   56.5277 C   0  0  0  0  0  0  0  0  0  0  0  0
   26.0783    9.2344   56.4547 C   0  0  0  0  0  0  0  0  0  0  0  0
   28.1089    9.7547   57.7879 C   0  0  0  0  0  0  0  0  0  0  0  0
   28.6989    8.8521   58.6387 C   0  0  0  0  0  0  0  0  0  0  0  0
   29.2706    9.3141   59.8031 C   0  0  0  0  0  0  0  0  0  0  0  0
   29.2652   10.6229   60.1258 N   0  0  0  0  0  0  0  0  0  0  0  0
   28.6917   11.5032   59.2996 C   0  0  0  0  0  0  0  0  0  0  0  0
   28.6833   12.9695   59.6574 C   0  0  0  0  0  0  0  0  0  0  0  0
   28.1118   11.0824   58.1307 C   0  0  0  0  0  0  0  0  0  0  0  0
   18.7910    5.1365   53.2154 C   0  0  0  0  0  0  0  0  0  0  0  0
   18.5301    4.1294   54.1420 F   0  0  0  0  0  0  0  0  0  0  0  0
   18.8775    4.5986   51.9392 F   0  0  0  0  0  0  0  0  0  0  0  0
   17.7486    6.0529   53.3081 F   0  0  0  0  0  0  0  0  0  0  0  0
   21.0959    3.6690   53.6806 O   0  0  0  0  0  0  0  0  0  0  0  0
   20.6679    1.5947   52.6379 C   0  0  0  0  0  0  0  0  0  0  0  0
   20.1700    3.0025   52.8822 C   0  0  0  0  0  0  0  0  0  0  0  0
 32 33  1  0  0  0
 33 31  1  0  0  0
 31  1  1  0  0  0
  1  2  2  0  0  0
  2  3  1  0  0  0
  3  4  1  0  0  0
  4  5  2  0  0  0
  5  6  1  0  0  0
  6  7  1  0  0  0
  7  8  2  0  0  0
  7  9  1  0  0  0
  9 10  1  0  0  0
 10 11  1  0  0  0
 11 12  2  0  0  0
 12 27  1  0  0  0
 27 28  1  0  0  0
 27 29  1  0  0  0
 27 30  1  0  0  0
  5 14  1  0  0  0
 14 15  2  0  0  0
 15 16  1  0  0  0
 16 17  2  0  0  0
 17 18  1  0  0  0
 18 19  2  0  0  0
 18 20  1  0  0  0
 20 21  2  0  0  0
 21 22  1  0  0  0
 22 23  2  0  0  0
 23 24  1  0  0  0
 24 25  1  0  0  0
 24 26  2  0  0  0
 12  1  1  0  0  0
 19 14  1  0  0  0
 26 20  1  0  0  0
 10  3  2  0  0  0
  9 13  1  0  0  0
M  END
> <minimizedAffinity>
22.35242

> <CNNscore>
0.4554424882

> <CNNaffinity>
6.4757905006

> <CNN_VS>
2.9493501186

> <CNNaffinity_variance>
0.0701644868

$$$$
[H]c1nc(C([H])([H])[H])c([H])c(-c2c([H])c([H])c([H])c(C3=Nc4c([H])c(OC([H])([H])C([H])([H])[H])c(C(F)(F)F)c([H])c4N([H])C(=O)C3([H])[H])c2[H])c1[H]


 33 36  0  0  0  0  0  0  0  0999 V2000
   22.5181    7.5507   53.2783 C   0  0  0  0  0  0  0  0  0  0  0  0
   23.6446    8.0188   52.6340 C   0  0  0  0  0  0  0  0  0  0  0  0
   24.7953    8.3467   53.3247 C   0  0  0  0  0  0  0  0  0  0  0  0
   25.8336    8.8078   52.5122 N   0  0  0  0  0  0  0  0  0  0  0  0
   27.1335    8.8419   52.6545 C   0  0  0  0  0  0  0  0  0  0  0  0
   27.8780    8.3560   53.8145 C   0  0  0  0  0  0  0  0  0  0  0  0
   27.2760    8.7864   55.1275 C   0  0  0  0  0  0  0  0  0  0  0  0
   28.0064    9.4541   55.9212 O   0  0  0  0  0  0  0  0  0  0  0  0
   25.9532    8.5041   55.5509 N   0  0  0  0  0  0  0  0  0  0  0  0
   24.8408    8.2082   54.7103 C   0  0  0  0  0  0  0  0  0  0  0  0
   23.7357    7.7472   55.3591 C   0  0  0  0  0  0  0  0  0  0  0  0
   22.5906    7.4234   54.6496 C   0  0  0  0  0  0  0  0  0  0  0  0
   25.7632    8.5106   56.5724 H   0  0  0  0  0  0  0  0  0  0  0  0
   27.8719    9.4163   51.5448 C   0  0  0  0  0  0  0  0  0  0  0  0
   28.5896   10.6003   51.7720 C   0  0  0  0  0  0  0  0  0  0  0  0
   29.3143   11.2164   50.7740 C   0  0  0  0  0  0  0  0  0  0  0  0
   29.3602   10.6841   49.5003 C   0  0  0  0  0  0  0  0  0  0  0  0
   28.6554    9.5228   49.2803 C   0  0  0  0  0  0  0  0  0  0  0  0
   27.9139    8.8887   50.2932 C   0  0  0  0  0  0  0  0  0  0  0  0
   28.6861    8.9340   47.9324 C   0  0  0  0  0  0  0  0  0  0  0  0
   29.8085    8.3119   47.4428 C   0  0  0  0  0  0  0  0  0  0  0  0
   29.7719    7.7813   46.1727 C   0  0  0  0  0  0  0  0  0  0  0  0
   28.6677    7.8573   45.4033 N   0  0  0  0  0  0  0  0  0  0  0  0
   27.5742    8.4622   45.8774 C   0  0  0  0  0  0  0  0  0  0  0  0
   26.3358    8.5496   45.0189 C   0  0  0  0  0  0  0  0  0  0  0  0
   27.5711    9.0030   47.1373 C   0  0  0  0  0  0  0  0  0  0  0  0
   21.3921    6.9222   55.3641 C   0  0  0  0  0  0  0  0  0  0  0  0
   20.3789    7.8770   55.3115 F   0  0  0  0  0  0  0  0  0  0  0  0
   21.7037    6.6308   56.6845 F   0  0  0  0  0  0  0  0  0  0  0  0
   20.9236    5.7963   54.6949 F   0  0  0  0  0  0  0  0  0  0  0  0
   21.3443    7.2124   52.6080 O   0  0  0  0  0  0  0  0  0  0  0  0
   20.6601    9.2899   51.7196 C   0  0  0  0  0  0  0  0  0  0  0  0
   20.9137    7.8257   51.4343 C   0  0  0  0  0  0  0  0  0  0  0  0
 32 33  1  0  0  0
 33 31  1  0  0  0
 31  1  1  0  0  0
  1  2  2  0  0  0
  2  3  1  0  0  0
  3  4  1  0  0  0
  4  5  2  0  0  0
  5  6  1  0  0  0
  6  7  1  0  0  0
  7  8  2  0  0  0
  7  9  1  0  0  0
  9 10  1  0  0  0
 10 11  1  0  0  0
 11 12  2  0  0  0
 12 27  1  0  0  0
 27 28  1  0  0  0
 27 29  1  0  0  0
 27 30  1  0  0  0
  5 14  1  0  0  0
 14 15  2  0  0  0
 15 16  1  0  0  0
 16 17  2  0  0  0
 17 18  1  0  0  0
 18 19  2  0  0  0
 18 20  1  0  0  0
 20 21  2  0  0  0
 21 22  1  0  0  0
 22 23  2  0  0  0
 23 24  1  0  0  0
 24 25  1  0  0  0
 24 26  2  0  0  0
 12  1  1  0  0  0
 19 14  1  0  0  0
 26 20  1  0  0  0
 10  3  2  0  0  0
  9 13  1  0  0  0
M  END
> <minimizedAffinity>
33.67892

> <CNNscore>
0.4484462440

> <CNNaffinity>
6.1348466873

> <CNN_VS>
2.7511489391

> <CNNaffinity_variance>
0.1237353086

$$$$
[H]c1nc(C([H])([H])[H])c([H])c(-c2c([H])c([H])c([H])c(C3=Nc4c([H])c(OC([H])([H])C([H])([H])[H])c(C(F)(F)F)c([H])c4N([H])C(=O)C3([H])[H])c2[H])c1[H]


 33 36  0  0  0  0  0  0  0  0999 V2000
   22.0978   13.5069   50.9769 C   0  0  0  0  0  0  0  0  0  0  0  0
   22.5661   12.3593   51.5826 C   0  0  0  0  0  0  0  0  0  0  0  0
   21.8356   11.1867   51.5842 C   0  0  0  0  0  0  0  0  0  0  0  0
   22.4612   10.1286   52.2475 N   0  0  0  0  0  0  0  0  0  0  0  0
   22.3514    8.8280   52.1608 C   0  0  0  0  0  0  0  0  0  0  0  0
   21.4577    8.1055   51.2578 C   0  0  0  0  0  0  0  0  0  0  0  0
   20.0615    8.6723   51.2273 C   0  0  0  0  0  0  0  0  0  0  0  0
   19.1035    7.8984   51.5320 O   0  0  0  0  0  0  0  0  0  0  0  0
   19.7291   10.0064   50.8835 N   0  0  0  0  0  0  0  0  0  0  0  0
   20.5896   11.1399   50.9627 C   0  0  0  0  0  0  0  0  0  0  0  0
   20.1152   12.2658   50.3610 C   0  0  0  0  0  0  0  0  0  0  0  0
   20.8620   13.4327   50.3695 C   0  0  0  0  0  0  0  0  0  0  0  0
   18.7661   10.1888   50.5385 H   0  0  0  0  0  0  0  0  0  0  0  0
   23.2070    8.0647   53.0507 C   0  0  0  0  0  0  0  0  0  0  0  0
   22.8386    6.7440   53.3484 C   0  0  0  0  0  0  0  0  0  0  0  0
   23.5901    5.9490   54.1874 C   0  0  0  0  0  0  0  0  0  0  0  0
   24.7457    6.4297   54.7716 C   0  0  0  0  0  0  0  0  0  0  0  0
   25.1046    7.7254   54.4779 C   0  0  0  0  0  0  0  0  0  0  0  0
   24.3431    8.5423   53.6230 C   0  0  0  0  0  0  0  0  0  0  0  0
   26.3308    8.2637   55.0870 C   0  0  0  0  0  0  0  0  0  0  0  0
   26.2986    8.9862   56.2546 C   0  0  0  0  0  0  0  0  0  0  0  0
   27.4822    9.4625   56.7727 C   0  0  0  0  0  0  0  0  0  0  0  0
   28.6643    9.2378   56.1650 N   0  0  0  0  0  0  0  0  0  0  0  0
   28.6983    8.5351   55.0286 C   0  0  0  0  0  0  0  0  0  0  0  0
   30.0199    8.2815   54.3450 C   0  0  0  0  0  0  0  0  0  0  0  0
   27.5412    8.0440   54.4812 C   0  0  0  0  0  0  0  0  0  0  0  0
   20.3378   14.6538   49.7118 C   0  0  0  0  0  0  0  0  0  0  0  0
   19.7323   14.3151   48.5037 F   0  0  0  0  0  0  0  0  0  0  0  0
   21.3636   15.5621   49.4922 F   0  0  0  0  0  0  0  0  0  0  0  0
   19.3474   15.1964   50.5239 F   0  0  0  0  0  0  0  0  0  0  0  0
   22.8124   14.7032   50.9596 O   0  0  0  0  0  0  0  0  0  0  0  0
   23.9847   15.5471   49.0923 C   0  0  0  0  0  0  0  0  0  0  0  0
   24.0911   14.8384   50.4250 C   0  0  0  0  0  0  0  0  0  0  0  0
 32 33  1  0  0  0
 33 31  1  0  0  0
 31  1  1  0  0  0
  1  2  2  0  0  0
  2  3  1  0  0  0
  3  4  1  0  0  0
  4  5  2  0  0  0
  5  6  1  0  0  0
  6  7  1  0  0  0
  7  8  2  0  0  0
  7  9  1  0  0  0
  9 10  1  0  0  0
 10 11  1  0  0  0
 11 12  2  0  0  0
 12 27  1  0  0  0
 27 28  1  0  0  0
 27 29  1  0  0  0
 27 30  1  0  0  0
  5 14  1  0  0  0
 14 15  2  0  0  0
 15 16  1  0  0  0
 16 17  2  0  0  0
 17 18  1  0  0  0
 18 19  2  0  0  0
 18 20  1  0  0  0
 20 21  2  0  0  0
 21 22  1  0  0  0
 22 23  2  0  0  0
 23 24  1  0  0  0
 24 25  1  0  0  0
 24 26  2  0  0  0
 12  1  1  0  0  0
 19 14  1  0  0  0
 26 20  1  0  0  0
 10  3  2  0  0  0
  9 13  1  0  0  0
M  END
> <minimizedAffinity>
49.84990

> <CNNscore>
0.4405913651

> <CNNaffinity>
5.8994889259

> <CNN_VS>
2.5992639065

> <CNNaffinity_variance>
0.5054789782

$$$$
[H]OC(=O)[C@@]1(F)[C@]2([H])C([H])([H])[C@@]([H])(OC([H])([H])c3c([H])c([H])c([H])c([H])c3[H])[C@](C(=O)O[H])(N([H])[H])[C@]12[H]


 26 28  0  0  0  0  0  0  0  0999 V2000
   19.8616    8.1187   54.2364 N   0  0  0  0  0  0  0  0  0  0  0  0
   21.2684    8.4717   54.2098 C   0  0  0  0  0  0  0  0  0  0  0  0
   21.5041    9.8090   53.5819 C   0  0  0  0  0  0  0  0  0  0  0  0
   22.7242    9.6656   52.7794 C   0  0  0  0  0  0  0  0  0  0  0  0
   23.1821    8.2440   52.8568 C   0  0  0  0  0  0  0  0  0  0  0  0
   22.0374    7.4490   53.4011 C   0  0  0  0  0  0  0  0  0  0  0  0
   21.4406   10.0334   52.1317 C   0  0  0  0  0  0  0  0  0  0  0  0
   20.8089    9.1406   51.2805 F   0  0  0  0  0  0  0  0  0  0  0  0
   19.4068    8.3759   53.3513 H   0  0  0  0  0  0  0  0  0  0  0  0
   19.3780    8.4417   55.0838 H   0  0  0  0  0  0  0  0  0  0  0  0
   21.3122   11.4527   51.7024 C   0  0  0  0  0  0  0  0  0  0  0  0
   21.0789   11.8309   50.3961 O   0  0  0  0  0  0  0  0  0  0  0  0
   21.4232   12.3670   52.5848 O   0  0  0  0  0  0  0  0  0  0  0  0
   21.6845   11.4098   49.6789 H   0  0  0  0  0  0  0  0  0  0  0  0
   21.8042    8.5021   55.5863 C   0  0  0  0  0  0  0  0  0  0  0  0
   21.5998    7.4141   56.4084 O   0  0  0  0  0  0  0  0  0  0  0  0
   22.4362    9.4862   56.0228 O   0  0  0  0  0  0  0  0  0  0  0  0
   21.4705    7.5513   57.4068 H   0  0  0  0  0  0  0  0  0  0  0  0
   22.4089    6.4239   54.2289 O   0  0  0  0  0  0  0  0  0  0  0  0
   23.6539    5.8829   53.9154 C   0  0  0  0  0  0  0  0  0  0  0  0
   24.7206    6.9040   54.1019 C   0  0  0  0  0  0  0  0  0  0  0  0
   24.9488    7.5171   55.3151 C   0  0  0  0  0  0  0  0  0  0  0  0
   25.9357    8.4624   55.4889 C   0  0  0  0  0  0  0  0  0  0  0  0
   26.7401    8.8363   54.4525 C   0  0  0  0  0  0  0  0  0  0  0  0
   26.5331    8.2340   53.2149 C   0  0  0  0  0  0  0  0  0  0  0  0
   25.5447    7.2887   53.0442 C   0  0  0  0  0  0  0  0  0  0  0  0
  1  2  1  0  0  0
  2  3  1  0  0  0
  3  4  1  0  0  0
  4  5  1  0  0  0
  5  6  1  0  0  0
  6 19  1  0  0  0
 19 20  1  0  0  0
 20 21  1  0  0  0
 21 22  2  0  0  0
 22 23  1  0  0  0
 23 24  2  0  0  0
 24 25  1  0  0  0
 25 26  2  0  0  0
  4  7  1  0  0  0
  7  8  1  0  0  0
  7 11  1  0  0  0
 11 12  1  0  0  0
 11 13  2  0  0  0
  2 15  1  0  0  0
 15 16  1  0  0  0
 15 17  2  0  0  0
  6  2  1  0  0  0
 26 21  1  0  0  0
  7  3  1  0  0  0
  1  9  1  0  0  0
  1 10  1  0  0  0
 12 14  1  0  0  0
 16 18  1  0  0  0
M  END
> <minimizedAffinity>
1.99483

> <CNNscore>
0.7219247222

> <CNNaffinity>
6.0242218971

> <CNN_VS>
4.3490347862

> <CNNaffinity_variance>
0.2880420089

$$$$
[H]OC(=O)[C@@]1(F)[C@]2([H])C([H])([H])[C@@]([H])(OC([H])([H])c3c([H])c([H])c([H])c([H])c3[H])[C@](C(=O)O[H])(N([H])[H])[C@]12[H]


 26 28  0  0  0  0  0  0  0  0999 V2000
   21.7721    7.3859   51.9400 N   0  0  0  0  0  0  0  0  0  0  0  0
   21.3718    8.2074   53.0667 C   0  0  0  0  0  0  0  0  0  0  0  0
   20.9801    9.5893   52.6481 C   0  0  0  0  0  0  0  0  0  0  0  0
   21.5118   10.4867   53.6801 C   0  0  0  0  0  0  0  0  0  0  0  0
   22.2798    9.6719   54.6716 C   0  0  0  0  0  0  0  0  0  0  0  0
   22.5239    8.3378   54.0399 C   0  0  0  0  0  0  0  0  0  0  0  0
   21.9587   10.6177   52.2710 C   0  0  0  0  0  0  0  0  0  0  0  0
   23.2600   10.2954   51.9200 F   0  0  0  0  0  0  0  0  0  0  0  0
   22.3529    7.9259   51.2862 H   0  0  0  0  0  0  0  0  0  0  0  0
   20.9892    6.8784   51.5092 H   0  0  0  0  0  0  0  0  0  0  0  0
   21.4150   11.7835   51.5223 C   0  0  0  0  0  0  0  0  0  0  0  0
   21.4859   13.0813   51.9856 O   0  0  0  0  0  0  0  0  0  0  0  0
   20.8549   11.5746   50.3955 O   0  0  0  0  0  0  0  0  0  0  0  0
   21.1762   13.2430   52.9532 H   0  0  0  0  0  0  0  0  0  0  0  0
   20.2230    7.5863   53.7575 C   0  0  0  0  0  0  0  0  0  0  0  0
   19.8454    8.0670   54.9935 O   0  0  0  0  0  0  0  0  0  0  0  0
   19.5868    6.6392   53.2510 O   0  0  0  0  0  0  0  0  0  0  0  0
   19.4689    7.4309   55.6905 H   0  0  0  0  0  0  0  0  0  0  0  0
   22.4807    7.2857   54.9148 O   0  0  0  0  0  0  0  0  0  0  0  0
   23.6068    6.4678   54.8527 C   0  0  0  0  0  0  0  0  0  0  0  0
   24.8005    7.2642   54.4579 C   0  0  0  0  0  0  0  0  0  0  0  0
   25.0467    7.6224   53.1499 C   0  0  0  0  0  0  0  0  0  0  0  0
   26.1514    8.3595   52.7833 C   0  0  0  0  0  0  0  0  0  0  0  0
   27.0606    8.7716   53.7131 C   0  0  0  0  0  0  0  0  0  0  0  0
   26.8383    8.4247   55.0425 C   0  0  0  0  0  0  0  0  0  0  0  0
   25.7322    7.6871   55.4061 C   0  0  0  0  0  0  0  0  0  0  0  0
  1  2  1  0  0  0
  2  3  1  0  0  0
  3  4  1  0  0  0
  4  5  1  0  0  0
  5  6  1  0  0  0
  6 19  1  0  0  0
 19 20  1  0  0  0
 20 21  1  0  0  0
 21 22  2  0  0  0
 22 23  1  0  0  0
 23 24  2  0  0  0
 24 25  1  0  0  0
 25 26  2  0  0  0
  4  7  1  0  0  0
  7  8  1  0  0  0
  7 11  1  0  0  0
 11 12  1  0  0  0
 11 13  2  0  0  0
  2 15  1  0  0  0
 15 16  1  0  0  0
 15 17  2  0  0  0
  6  2  1  0  0  0
 26 21  1  0  0  0
  7  3  1  0  0  0
  1  9  1  0  0  0
  1 10  1  0  0  0
 12 14  1  0  0  0
 16 18  1  0  0  0
M  END
> <minimizedAffinity>
4.61371

> <CNNscore>
0.6528694630

> <CNNaffinity>
5.8310580254

> <CNN_VS>
3.8069198132

> <CNNaffinity_variance>
0.3067831993

$$$$
[H]OC(=O)[C@@]1(F)[C@]2([H])C([H])([H])[C@@]([H])(OC([H])([H])c3c([H])c([H])c([H])c([H])c3[H])[C@](C(=O)O[H])(N([H])[H])[C@]12[H]


 26 28  0  0  0  0  0  0  0  0999 V2000
   22.3680    6.8950   52.4258 N   0  0  0  0  0  0  0  0  0  0  0  0
   23.0221    7.2308   53.6764 C   0  0  0  0  0  0  0  0  0  0  0  0
   22.1031    7.9347   54.6241 C   0  0  0  0  0  0  0  0  0  0  0  0
   22.9129    8.9736   55.2706 C   0  0  0  0  0  0  0  0  0  0  0  0
   24.2832    8.9523   54.6718 C   0  0  0  0  0  0  0  0  0  0  0  0
   24.1924    8.1532   53.4101 C   0  0  0  0  0  0  0  0  0  0  0  0
   21.7208    9.3443   54.4681 C   0  0  0  0  0  0  0  0  0  0  0  0
   21.8723   10.0143   53.2645 F   0  0  0  0  0  0  0  0  0  0  0  0
   21.7727    7.6705   52.1087 H   0  0  0  0  0  0  0  0  0  0  0  0
   21.9115    5.9744   52.4409 H   0  0  0  0  0  0  0  0  0  0  0  0
   20.5260    9.7793   55.2416 C   0  0  0  0  0  0  0  0  0  0  0  0
   20.3604   11.0621   55.7222 O   0  0  0  0  0  0  0  0  0  0  0  0
   19.6078    8.9248   55.4731 O   0  0  0  0  0  0  0  0  0  0  0  0
   21.1514   11.4655   56.2419 H   0  0  0  0  0  0  0  0  0  0  0  0
   23.5144    6.0013   54.3311 C   0  0  0  0  0  0  0  0  0  0  0  0
   24.0976    5.0191   53.5587 O   0  0  0  0  0  0  0  0  0  0  0  0
   23.4158    5.8298   55.5637 O   0  0  0  0  0  0  0  0  0  0  0  0
   23.9812    4.0416   53.8102 H   0  0  0  0  0  0  0  0  0  0  0  0
   25.2997    7.3926   53.1462 O   0  0  0  0  0  0  0  0  0  0  0  0
   26.4506    8.1473   52.9298 C   0  0  0  0  0  0  0  0  0  0  0  0
   27.0748    8.5185   54.2290 C   0  0  0  0  0  0  0  0  0  0  0  0
   26.3266    8.7849   55.3556 C   0  0  0  0  0  0  0  0  0  0  0  0
   26.9032    9.1287   56.5586 C   0  0  0  0  0  0  0  0  0  0  0  0
   28.2582    9.2210   56.6869 C   0  0  0  0  0  0  0  0  0  0  0  0
   29.0397    8.9575   55.5658 C   0  0  0  0  0  0  0  0  0  0  0  0
   28.4599    8.6139   54.3635 C   0  0  0  0  0  0  0  0  0  0  0  0
  1  2  1  0  0  0
  2  3  1  0  0  0
  3  4  1  0  0  0
  4  5  1  0  0  0
  5  6  1  0  0  0
  6 19  1  0  0  0
 19 20  1  0  0  0
 20 21  1  0  0  0
 21 22  2  0  0  0
 22 23  1  0  0  0
 23 24  2  0  0  0
 24 25  1  0  0  0
 25 26  2  0  0  0
  4  7  1  0  0  0
  7  8  1  0  0  0
  7 11  1  0  0  0
 11 12  1  0  0  0
 11 13  2  0  0  0
  2 15  1  0  0  0
 15 16  1  0  0  0
 15 17  2  0  0  0
  6  2  1  0  0  0
 26 21  1  0  0  0
  7  3  1  0  0  0
  1  9  1  0  0  0
  1 10  1  0  0  0
 12 14  1  0  0  0
 16 18  1  0  0  0
M  END
> <minimizedAffinity>
3.02439

> <CNNscore>
0.6158956885

> <CNNaffinity>
6.0697097778

> <CNN_VS>
3.7383081913

> <CNNaffinity_variance>
0.2343178093

$$$$
[H]OC(=O)[C@@]1(F)[C@]2([H])C([H])([H])[C@@]([H])(OC([H])([H])c3c([H])c([H])c([H])c([H])c3[H])[C@](C(=O)O[H])(N([H])[H])[C@]12[H]


 26 28  0  0  0  0  0  0  0  0999 V2000
   23.0352    6.3497   51.7852 N   0  0  0  0  0  0  0  0  0  0  0  0
   22.7918    6.7335   53.1629 C   0  0  0  0  0  0  0  0  0  0  0  0
   21.4422    6.2995   53.6409 C   0  0  0  0  0  0  0  0  0  0  0  0
   20.9374    7.4001   54.4697 C   0  0  0  0  0  0  0  0  0  0  0  0
   21.9306    8.5177   54.4357 C   0  0  0  0  0  0  0  0  0  0  0  0
   22.8562    8.2403   53.2933 C   0  0  0  0  0  0  0  0  0  0  0  0
   20.1998    6.9799   53.2524 C   0  0  0  0  0  0  0  0  0  0  0  0
   20.1388    7.8184   52.1507 F   0  0  0  0  0  0  0  0  0  0  0  0
   22.1956    6.5037   51.2126 H   0  0  0  0  0  0  0  0  0  0  0  0
   23.4603    5.4187   51.6923 H   0  0  0  0  0  0  0  0  0  0  0  0
   18.9443    6.2151   53.4846 C   0  0  0  0  0  0  0  0  0  0  0  0
   17.7096    6.8129   53.6340 O   0  0  0  0  0  0  0  0  0  0  0  0
   19.0107    4.9430   53.5491 O   0  0  0  0  0  0  0  0  0  0  0  0
   17.6523    7.5912   54.3043 H   0  0  0  0  0  0  0  0  0  0  0  0
   23.8142    6.1278   54.0406 C   0  0  0  0  0  0  0  0  0  0  0  0
   23.4740    5.7965   55.3352 O   0  0  0  0  0  0  0  0  0  0  0  0
   24.9761    5.9088   53.6402 O   0  0  0  0  0  0  0  0  0  0  0  0
   24.1649    5.8749   56.0759 H   0  0  0  0  0  0  0  0  0  0  0  0
   24.1555    8.6060   53.5217 O   0  0  0  0  0  0  0  0  0  0  0  0
   24.4380    8.8337   54.8669 C   0  0  0  0  0  0  0  0  0  0  0  0
   25.9095    8.8404   55.0900 C   0  0  0  0  0  0  0  0  0  0  0  0
   26.4733    9.2794   56.2687 C   0  0  0  0  0  0  0  0  0  0  0  0
   27.8352    9.2862   56.4763 C   0  0  0  0  0  0  0  0  0  0  0  0
   28.6950    8.8523   55.5101 C   0  0  0  0  0  0  0  0  0  0  0  0
   28.1544    8.4030   54.3088 C   0  0  0  0  0  0  0  0  0  0  0  0
   26.7913    8.3976   54.1041 C   0  0  0  0  0  0  0  0  0  0  0  0
  1  2  1  0  0  0
  2  3  1  0  0  0
  3  4  1  0  0  0
  4  5  1  0  0  0
  5  6  1  0  0  0
  6 19  1  0  0  0
 19 20  1  0  0  0
 20 21  1  0  0  0
 21 22  2  0  0  0
 22 23  1  0  0  0
 23 24  2  0  0  0
 24 25  1  0  0  0
 25 26  2  0  0  0
  4  7  1  0  0  0
  7  8  1  0  0  0
  7 11  1  0  0  0
 11 12  1  0  0  0
 11 13  2  0  0  0
  2 15  1  0  0  0
 15 16  1  0  0  0
 15 17  2  0  0  0
  6  2  1  0  0  0
 26 21  1  0  0  0
  7  3  1  0  0  0
  1  9  1  0  0  0
  1 10  1  0  0  0
 12 14  1  0  0  0
 16 18  1  0  0  0
M  END
> <minimizedAffinity>
4.80139

> <CNNscore>
0.5645479560

> <CNNaffinity>
5.7294979095

> <CNN_VS>
3.2345762253

> <CNNaffinity_variance>
0.2593010366

$$$$
[H]OC(=O)[C@@]1(F)[C@]2([H])C([H])([H])[C@@]([H])(OC([H])([H])c3c([H])c([H])c([H])c([H])c3[H])[C@](C(=O)O[H])(N([H])[H])[C@]12[H]


 26 28  0  0  0  0  0  0  0  0999 V2000
   24.3155    7.1065   53.1067 N   0  0  0  0  0  0  0  0  0  0  0  0
   23.1158    7.3183   53.8943 C   0  0  0  0  0  0  0  0  0  0  0  0
   21.8758    7.2771   53.0582 C   0  0  0  0  0  0  0  0  0  0  0  0
   21.0017    8.3312   53.5852 C   0  0  0  0  0  0  0  0  0  0  0  0
   21.7279    9.0527   54.6755 C   0  0  0  0  0  0  0  0  0  0  0  0
   23.1716    8.6787   54.5560 C   0  0  0  0  0  0  0  0  0  0  0  0
   21.4687    8.3797   52.1774 C   0  0  0  0  0  0  0  0  0  0  0  0
   22.3608    9.3601   51.7728 F   0  0  0  0  0  0  0  0  0  0  0  0
   24.2595    7.6175   52.2167 H   0  0  0  0  0  0  0  0  0  0  0  0
   24.5771    6.1161   53.0238 H   0  0  0  0  0  0  0  0  0  0  0  0
   20.4534    8.0399   51.1435 C   0  0  0  0  0  0  0  0  0  0  0  0
   19.0934    8.1274   51.3597 O   0  0  0  0  0  0  0  0  0  0  0  0
   20.8587    7.6479   49.9995 O   0  0  0  0  0  0  0  0  0  0  0  0
   18.7330    7.6836   52.2151 H   0  0  0  0  0  0  0  0  0  0  0  0
   23.0098    6.2771   54.9371 C   0  0  0  0  0  0  0  0  0  0  0  0
   22.0380    6.3984   55.9078 O   0  0  0  0  0  0  0  0  0  0  0  0
   23.7765    5.2923   54.9612 O   0  0  0  0  0  0  0  0  0  0  0  0
   22.2203    6.0668   56.8507 H   0  0  0  0  0  0  0  0  0  0  0  0
   23.8215    8.5574   55.7548 O   0  0  0  0  0  0  0  0  0  0  0  0
   24.7284    9.5864   55.9991 C   0  0  0  0  0  0  0  0  0  0  0  0
   26.0999    9.1699   55.5982 C   0  0  0  0  0  0  0  0  0  0  0  0
   26.3613    8.5663   54.3868 C   0  0  0  0  0  0  0  0  0  0  0  0
   27.6303    8.1803   54.0147 C   0  0  0  0  0  0  0  0  0  0  0  0
   28.6965    8.3823   54.8414 C   0  0  0  0  0  0  0  0  0  0  0  0
   28.4630    8.9898   56.0717 C   0  0  0  0  0  0  0  0  0  0  0  0
   27.1921    9.3748   56.4412 C   0  0  0  0  0  0  0  0  0  0  0  0
  1  2  1  0  0  0
  2  3  1  0  0  0
  3  4  1  0  0  0
  4  5  1  0  0  0
  5  6  1  0  0  0
  6 19  1  0  0  0
 19 20  1  0  0  0
 20 21  1  0  0  0
 21 22  2  0  0  0
 22 23  1  0  0  0
 23 24  2  0  0  0
 24 25  1  0  0  0
 25 26  2  0  0  0
  4  7  1  0  0  0
  7  8  1  0  0  0
  7 11  1  0  0  0
 11 12  1  0  0  0
 11 13  2  0  0  0
  2 15  1  0  0  0
 15 16  1  0  0  0
 15 17  2  0  0  0
  6  2  1  0  0  0
 26 21  1  0  0  0
  7  3  1  0  0  0
  1  9  1  0  0  0
  1 10  1  0  0  0
 12 14  1  0  0  0
 16 18  1  0  0  0
M  END
> <minimizedAffinity>
0.54916

> <CNNscore>
0.5465959907

> <CNNaffinity>
5.8261923790

> <CNN_VS>
3.1845734119

> <CNNaffinity_variance>
0.5545125604

$$$$
[H]OC(=O)[C@@]1(F)[C@]2([H])C([H])([H])[C@@]([H])(OC([H])([H])c3c([H])c([H])c([H])c([H])c3[H])[C@](C(=O)O[H])(N([H])[H])[C@]12[H]


 26 28  0  0  0  0  0  0  0  0999 V2000
   21.8056    5.6192   53.7507 N   0  0  0  0  0  0  0  0  0  0  0  0
   22.1808    6.9975   54.0039 C   0  0  0  0  0  0  0  0  0  0  0  0
   21.2983    7.9657   53.2816 C   0  0  0  0  0  0  0  0  0  0  0  0
   22.1822    9.0365   52.8067 C   0  0  0  0  0  0  0  0  0  0  0  0
   23.5909    8.6882   53.1685 C   0  0  0  0  0  0  0  0  0  0  0  0
   23.5989    7.2367   53.5315 C   0  0  0  0  0  0  0  0  0  0  0  0
   21.4053    8.2222   51.8393 C   0  0  0  0  0  0  0  0  0  0  0  0
   22.0562    7.3446   50.9867 F   0  0  0  0  0  0  0  0  0  0  0  0
   21.5708    5.4840   52.7592 H   0  0  0  0  0  0  0  0  0  0  0  0
   21.1093    5.2594   54.4154 H   0  0  0  0  0  0  0  0  0  0  0  0
   20.2350    8.8965   51.2142 C   0  0  0  0  0  0  0  0  0  0  0  0
   20.2235   10.2338   50.8744 O   0  0  0  0  0  0  0  0  0  0  0  0
   19.1890    8.2052   50.9800 O   0  0  0  0  0  0  0  0  0  0  0  0
   20.5325   10.8961   51.5984 H   0  0  0  0  0  0  0  0  0  0  0  0
   22.0986    7.2820   55.4513 C   0  0  0  0  0  0  0  0  0  0  0  0
   22.0941    6.2288   56.3414 O   0  0  0  0  0  0  0  0  0  0  0  0
   22.0333    8.4498   55.8877 O   0  0  0  0  0  0  0  0  0  0  0  0
   21.5586    6.2960   57.2023 H   0  0  0  0  0  0  0  0  0  0  0  0
   24.4598    6.9165   54.5467 O   0  0  0  0  0  0  0  0  0  0  0  0
   25.7882    6.8239   54.1372 C   0  0  0  0  0  0  0  0  0  0  0  0
   26.6052    7.8782   54.7977 C   0  0  0  0  0  0  0  0  0  0  0  0
   26.1334    8.6163   55.8619 C   0  0  0  0  0  0  0  0  0  0  0  0
   26.8887    9.5925   56.4739 C   0  0  0  0  0  0  0  0  0  0  0  0
   28.1533    9.8732   56.0462 C   0  0  0  0  0  0  0  0  0  0  0  0
   28.6567    9.1437   54.9730 C   0  0  0  0  0  0  0  0  0  0  0  0
   27.8985    8.1677   54.3627 C   0  0  0  0  0  0  0  0  0  0  0  0
  1  2  1  0  0  0
  2  3  1  0  0  0
  3  4  1  0  0  0
  4  5  1  0  0  0
  5  6  1  0  0  0
  6 19  1  0  0  0
 19 20  1  0  0  0
 20 21  1  0  0  0
 21 22  2  0  0  0
 22 23  1  0  0  0
 23 24  2  0  0  0
 24 25  1  0  0  0
 25 26  2  0  0  0
  4  7  1  0  0  0
  7  8  1  0  0  0
  7 11  1  0  0  0
 11 12  1  0  0  0
 11 13  2  0  0  0
  2 15  1  0  0  0
 15 16  1  0  0  0
 15 17  2  0  0  0
  6  2  1  0  0  0
 26 21  1  0  0  0
  7  3  1  0  0  0
  1  9  1  0  0  0
  1 10  1  0  0  0
 12 14  1  0  0  0
 16 18  1  0  0  0
M  END
> <minimizedAffinity>
4.06014

> <CNNscore>
0.5218998790

> <CNNaffinity>
5.6596555710

> <CNN_VS>
2.9537734985

> <CNNaffinity_variance>
0.2633342147

$$$$
[H]OC(=O)[C@@]1(F)[C@]2([H])C([H])([H])[C@@]([H])(OC([H])([H])c3c([H])c([H])c([H])c([H])c3[H])[C@](C(=O)O[H])(N([H])[H])[C@]12[H]


 26 28  0  0  0  0  0  0  0  0999 V2000
   23.6576    8.2624   55.5046 N   0  0  0  0  0  0  0  0  0  0  0  0
   24.6744    7.7815   54.5885 C   0  0  0  0  0  0  0  0  0  0  0  0
   26.0333    7.7574   55.2138 C   0  0  0  0  0  0  0  0  0  0  0  0
   26.9630    8.2036   54.1699 C   0  0  0  0  0  0  0  0  0  0  0  0
   26.1747    8.5658   52.9517 C   0  0  0  0  0  0  0  0  0  0  0  0
   24.7469    8.6915   53.3810 C   0  0  0  0  0  0  0  0  0  0  0  0
   26.8332    8.9694   55.4345 C   0  0  0  0  0  0  0  0  0  0  0  0
   26.2636   10.2328   55.4284 F   0  0  0  0  0  0  0  0  0  0  0  0
   24.0066    9.0644   56.0446 H   0  0  0  0  0  0  0  0  0  0  0  0
   23.2292    7.5146   56.0644 H   0  0  0  0  0  0  0  0  0  0  0  0
   27.9613    8.8330   56.3958 C   0  0  0  0  0  0  0  0  0  0  0  0
   29.1628    8.2357   56.0741 O   0  0  0  0  0  0  0  0  0  0  0  0
   27.8119    9.2907   57.5769 O   0  0  0  0  0  0  0  0  0  0  0  0
   29.1125    7.3139   55.6200 H   0  0  0  0  0  0  0  0  0  0  0  0
   24.3418    6.4126   54.1433 C   0  0  0  0  0  0  0  0  0  0  0  0
   24.6165    6.0464   52.8426 O   0  0  0  0  0  0  0  0  0  0  0  0
   23.8192    5.5810   54.9138 O   0  0  0  0  0  0  0  0  0  0  0  0
   24.0031    5.3962   52.3596 H   0  0  0  0  0  0  0  0  0  0  0  0
   23.8406    8.2593   52.4505 O   0  0  0  0  0  0  0  0  0  0  0  0
   22.6161    8.9199   52.5222 C   0  0  0  0  0  0  0  0  0  0  0  0
   21.5310    7.9581   52.8581 C   0  0  0  0  0  0  0  0  0  0  0  0
   20.3202    8.3656   53.3754 C   0  0  0  0  0  0  0  0  0  0  0  0
   19.3152    7.4762   53.6868 C   0  0  0  0  0  0  0  0  0  0  0  0
   19.4789    6.1358   53.4931 C   0  0  0  0  0  0  0  0  0  0  0  0
   20.6916    5.6946   52.9718 C   0  0  0  0  0  0  0  0  0  0  0  0
   21.6952    6.5869   52.6614 C   0  0  0  0  0  0  0  0  0  0  0  0
  1  2  1  0  0  0
  2  3  1  0  0  0
  3  4  1  0  0  0
  4  5  1  0  0  0
  5  6  1  0  0  0
  6 19  1  0  0  0
 19 20  1  0  0  0
 20 21  1  0  0  0
 21 22  2  0  0  0
 22 23  1  0  0  0
 23 24  2  0  0  0
 24 25  1  0  0  0
 25 26  2  0  0  0
  4  7  1  0  0  0
  7  8  1  0  0  0
  7 11  1  0  0  0
 11 12  1  0  0  0
 11 13  2  0  0  0
  2 15  1  0  0  0
 15 16  1  0  0  0
 15 17  2  0  0  0
  6  2  1  0  0  0
 26 21  1  0  0  0
  7  3  1  0  0  0
  1  9  1  0  0  0
  1 10  1  0  0  0
 12 14  1  0  0  0
 16 18  1  0  0  0
M  END
> <minimizedAffinity>
9.89563

> <CNNscore>
0.5177446604

> <CNNaffinity>
5.4488525391

> <CNN_VS>
2.8211143017

> <CNNaffinity_variance>
0.2099886686

$$$$
[H]OC(=O)[C@@]1(F)[C@]2([H])C([H])([H])[C@@]([H])(OC([H])([H])c3c([H])c([H])c([H])c([H])c3[H])[C@](C(=O)O[H])(N([H])[H])[C@]12[H]


 26 28  0  0  0  0  0  0  0  0999 V2000
   22.8728    9.3776   55.3677 N   0  0  0  0  0  0  0  0  0  0  0  0
   23.1475    8.0089   54.9732 C   0  0  0  0  0  0  0  0  0  0  0  0
   24.6018    7.6726   55.0732 C   0  0  0  0  0  0  0  0  0  0  0  0
   24.9012    6.8368   53.9049 C   0  0  0  0  0  0  0  0  0  0  0  0
   23.6673    6.7282   53.0669 C   0  0  0  0  0  0  0  0  0  0  0  0
   22.7311    7.7981   53.5332 C   0  0  0  0  0  0  0  0  0  0  0  0
   25.5976    8.1332   54.0967 C   0  0  0  0  0  0  0  0  0  0  0  0
   25.3458    9.1927   53.2395 F   0  0  0  0  0  0  0  0  0  0  0  0
   23.5901   10.0128   54.9957 H   0  0  0  0  0  0  0  0  0  0  0  0
   22.6801    9.4797   56.3720 H   0  0  0  0  0  0  0  0  0  0  0  0
   27.0179    8.0498   54.5336 C   0  0  0  0  0  0  0  0  0  0  0  0
   27.4623    8.5077   55.7571 O   0  0  0  0  0  0  0  0  0  0  0  0
   27.8688    7.5292   53.7387 O   0  0  0  0  0  0  0  0  0  0  0  0
   27.1771    9.4593   56.0246 H   0  0  0  0  0  0  0  0  0  0  0  0
   22.3930    7.0769   55.8364 C   0  0  0  0  0  0  0  0  0  0  0  0
   21.4510    7.5840   56.7064 O   0  0  0  0  0  0  0  0  0  0  0  0
   22.5867    5.8443   55.7977 O   0  0  0  0  0  0  0  0  0  0  0  0
   21.2984    7.1350   57.6049 H   0  0  0  0  0  0  0  0  0  0  0  0
   21.4102    7.4394   53.5062 O   0  0  0  0  0  0  0  0  0  0  0  0
   20.5469    8.4815   53.8375 C   0  0  0  0  0  0  0  0  0  0  0  0
   20.9058    9.7091   53.0761 C   0  0  0  0  0  0  0  0  0  0  0  0
   21.1507   10.9150   53.6970 C   0  0  0  0  0  0  0  0  0  0  0  0
   21.4828   12.0519   52.9934 C   0  0  0  0  0  0  0  0  0  0  0  0
   21.5847   12.0312   51.6331 C   0  0  0  0  0  0  0  0  0  0  0  0
   21.3428   10.8270   50.9785 C   0  0  0  0  0  0  0  0  0  0  0  0
   21.0106    9.6912   51.6853 C   0  0  0  0  0  0  0  0  0  0  0  0
  1  2  1  0  0  0
  2  3  1  0  0  0
  3  4  1  0  0  0
  4  5  1  0  0  0
  5  6  1  0  0  0
  6 19  1  0  0  0
 19 20  1  0  0  0
 20 21  1  0  0  0
 21 22  2  0  0  0
 22 23  1  0  0  0
 23 24  2  0  0  0
 24 25  1  0  0  0
 25 26  2  0  0  0
  4  7  1  0  0  0
  7  8  1  0  0  0
  7 11  1  0  0  0
 11 12  1  0  0  0
 11 13  2  0  0  0
  2 15  1  0  0  0
 15 16  1  0  0  0
 15 17  2  0  0  0
  6  2  1  0  0  0
 26 21  1  0  0  0
  7  3  1  0  0  0
  1  9  1  0  0  0
  1 10  1  0  0  0
 12 14  1  0  0  0
 16 18  1  0  0  0
M  END
> <minimizedAffinity>
2.78860

> <CNNscore>
0.4797393680

> <CNNaffinity>
5.4023623466

> <CNN_VS>
2.5917258263

> <CNNaffinity_variance>
0.1169972867

$$$$
[H]OC(=O)[C@@]1(F)[C@]2([H])C([H])([H])[C@@]([H])(OC([H])([H])c3c([H])c([H])c([H])c([H])c3[H])[C@](C(=O)O[H])(N([H])[H])[C@]12[H]


 26 28  0  0  0  0  0  0  0  0999 V2000
   22.4208    6.9969   55.7889 N   0  0  0  0  0  0  0  0  0  0  0  0
   23.0572    6.8276   54.4963 C   0  0  0  0  0  0  0  0  0  0  0  0
   24.5322    7.0705   54.5560 C   0  0  0  0  0  0  0  0  0  0  0  0
   24.8703    7.7904   53.3229 C   0  0  0  0  0  0  0  0  0  0  0  0
   23.6100    8.0484   52.5602 C   0  0  0  0  0  0  0  0  0  0  0  0
   22.4749    7.8135   53.5062 C   0  0  0  0  0  0  0  0  0  0  0  0
   25.1179    8.4144   54.6465 C   0  0  0  0  0  0  0  0  0  0  0  0
   24.3730    9.5112   55.0499 F   0  0  0  0  0  0  0  0  0  0  0  0
   22.8033    7.8169   56.2764 H   0  0  0  0  0  0  0  0  0  0  0  0
   22.3953    6.1331   56.3451 H   0  0  0  0  0  0  0  0  0  0  0  0
   26.5399    8.4717   55.0823 C   0  0  0  0  0  0  0  0  0  0  0  0
   27.5646    7.8381   54.4096 O   0  0  0  0  0  0  0  0  0  0  0  0
   26.8279    9.1395   56.1302 O   0  0  0  0  0  0  0  0  0  0  0  0
   27.4182    6.8475   54.1739 H   0  0  0  0  0  0  0  0  0  0  0  0
   22.8306    5.4541   54.0015 C   0  0  0  0  0  0  0  0  0  0  0  0
   21.5438    5.0494   53.7153 O   0  0  0  0  0  0  0  0  0  0  0  0
   23.7731    4.6524   53.8363 O   0  0  0  0  0  0  0  0  0  0  0  0
   21.2696    4.0842   53.8745 H   0  0  0  0  0  0  0  0  0  0  0  0
   21.3683    7.2527   52.9274 O   0  0  0  0  0  0  0  0  0  0  0  0
   20.7320    8.0955   52.0187 C   0  0  0  0  0  0  0  0  0  0  0  0
   21.0761    9.5150   52.3049 C   0  0  0  0  0  0  0  0  0  0  0  0
   21.2210   10.4532   51.3056 C   0  0  0  0  0  0  0  0  0  0  0  0
   21.5396   11.7673   51.5692 C   0  0  0  0  0  0  0  0  0  0  0  0
   21.7276   12.2011   52.8489 C   0  0  0  0  0  0  0  0  0  0  0  0
   21.5879   11.2758   53.8792 C   0  0  0  0  0  0  0  0  0  0  0  0
   21.2691    9.9617   53.6122 C   0  0  0  0  0  0  0  0  0  0  0  0
  1  2  1  0  0  0
  2  3  1  0  0  0
  3  4  1  0  0  0
  4  5  1  0  0  0
  5  6  1  0  0  0
  6 19  1  0  0  0
 19 20  1  0  0  0
 20 21  1  0  0  0
 21 22  2  0  0  0
 22 23  1  0  0  0
 23 24  2  0  0  0
 24 25  1  0  0  0
 25 26  2  0  0  0
  4  7  1  0  0  0
  7  8  1  0  0  0
  7 11  1  0  0  0
 11 12  1  0  0  0
 11 13  2  0  0  0
  2 15  1  0  0  0
 15 16  1  0  0  0
 15 17  2  0  0  0
  6  2  1  0  0  0
 26 21  1  0  0  0
  7  3  1  0  0  0
  1  9  1  0  0  0
  1 10  1  0  0  0
 12 14  1  0  0  0
 16 18  1  0  0  0
M  END
> <minimizedAffinity>
-0.20540

> <CNNscore>
0.4583491981

> <CNNaffinity>
5.4008402824

> <CNN_VS>
2.4754707813

> <CNNaffinity_variance>
0.0408820435

$$$$
[H]OC(=O)[C@]1(N([H])[H])C([H])([H])C(=O)[C@@]2([H])[C@](F)(C(=O)O[H])[C@@]12[H]


 19 20  0  0  0  0  0  0  0  0999 V2000
   19.8744    7.6073   53.4716 N   0  0  0  0  0  0  0  0  0  0  0  0
   21.0479    8.3953   53.1941 C   0  0  0  0  0  0  0  0  0  0  0  0
   21.0879    9.5495   54.1728 C   0  0  0  0  0  0  0  0  0  0  0  0
   22.3597    9.4471   54.8985 C   0  0  0  0  0  0  0  0  0  0  0  0
   22.6893   10.1323   55.8437 O   0  0  0  0  0  0  0  0  0  0  0  0
   23.1610    8.3837   54.2932 C   0  0  0  0  0  0  0  0  0  0  0  0
   22.3171    7.6222   53.3449 C   0  0  0  0  0  0  0  0  0  0  0  0
   22.6897    6.9666   54.6204 C   0  0  0  0  0  0  0  0  0  0  0  0
   21.7766    6.7905   55.6275 F   0  0  0  0  0  0  0  0  0  0  0  0
   19.0751    8.2501   53.6470 H   0  0  0  0  0  0  0  0  0  0  0  0
   19.6704    6.8983   52.7340 H   0  0  0  0  0  0  0  0  0  0  0  0
   23.7610    5.9345   54.5268 C   0  0  0  0  0  0  0  0  0  0  0  0
   24.5203    5.7366   53.3912 O   0  0  0  0  0  0  0  0  0  0  0  0
   23.9900    5.1971   55.5426 O   0  0  0  0  0  0  0  0  0  0  0  0
   25.4661    5.3716   53.4710 H   0  0  0  0  0  0  0  0  0  0  0  0
   21.0108    8.9577   51.8193 C   0  0  0  0  0  0  0  0  0  0  0  0
   21.3536   10.2718   51.5441 O   0  0  0  0  0  0  0  0  0  0  0  0
   20.6588    8.2331   50.8547 O   0  0  0  0  0  0  0  0  0  0  0  0
   21.9497   10.4755   50.7520 H   0  0  0  0  0  0  0  0  0  0  0  0
  1  2  1  0  0  0
  2  3  1  0  0  0
  3  4  1  0  0  0
  4  5  2  0  0  0
  4  6  1  0  0  0
  6  7  1  0  0  0
  7  8  1  0  0  0
  8  9  1  0  0  0
  8 12  1  0  0  0
 12 13  1  0  0  0
 12 14  2  0  0  0
  2 16  1  0  0  0
 16 17  1  0  0  0
 16 18  2  0  0  0
  7  2  1  0  0  0
  8  6  1  0  0  0
  1 10  1  0  0  0
  1 11  1  0  0  0
 13 15  1  0  0  0
 17 19  1  0  0  0
M  END
> <minimizedAffinity>
-7.81243

> <CNNscore>
0.9557709694

> <CNNaffinity>
6.0028810501

> <CNN_VS>
5.7373795509

> <CNNaffinity_variance>
0.2598150373

$$$$
[H]OC(=O)[C@]1(N([H])[H])C([H])([H])C(=O)[C@@]2([H])[C@](F)(C(=O)O[H])[C@@]12[H]


 19 20  0  0  0  0  0  0  0  0999 V2000
   21.4752    6.3599   53.2547 N   0  0  0  0  0  0  0  0  0  0  0  0
   21.6677    7.7836   53.1491 C   0  0  0  0  0  0  0  0  0  0  0  0
   21.0778    8.4357   54.3813 C   0  0  0  0  0  0  0  0  0  0  0  0
   22.1625    9.1870   55.0246 C   0  0  0  0  0  0  0  0  0  0  0  0
   22.0935    9.7429   56.1007 O   0  0  0  0  0  0  0  0  0  0  0  0
   23.3371    9.1535   54.1538 C   0  0  0  0  0  0  0  0  0  0  0  0
   23.1079    8.1718   53.0698 C   0  0  0  0  0  0  0  0  0  0  0  0
   24.0763    7.8154   54.1331 C   0  0  0  0  0  0  0  0  0  0  0  0
   23.7763    6.8804   55.0896 F   0  0  0  0  0  0  0  0  0  0  0  0
   20.5122    6.1789   53.6050 H   0  0  0  0  0  0  0  0  0  0  0  0
   21.6879    5.8488   52.3704 H   0  0  0  0  0  0  0  0  0  0  0  0
   25.5150    7.9232   53.7584 C   0  0  0  0  0  0  0  0  0  0  0  0
   25.9472    8.5128   52.5876 O   0  0  0  0  0  0  0  0  0  0  0  0
   26.3915    7.4490   54.5552 O   0  0  0  0  0  0  0  0  0  0  0  0
   26.8653    8.9484   52.5481 H   0  0  0  0  0  0  0  0  0  0  0  0
   20.9742    8.3377   51.9576 C   0  0  0  0  0  0  0  0  0  0  0  0
   20.0664    7.5994   51.2153 O   0  0  0  0  0  0  0  0  0  0  0  0
   21.2036    9.5176   51.5908 O   0  0  0  0  0  0  0  0  0  0  0  0
   19.1937    8.0249   50.9297 H   0  0  0  0  0  0  0  0  0  0  0  0
  1  2  1  0  0  0
  2  3  1  0  0  0
  3  4  1  0  0  0
  4  5  2  0  0  0
  4  6  1  0  0  0
  6  7  1  0  0  0
  7  8  1  0  0  0
  8  9  1  0  0  0
  8 12  1  0  0  0
 12 13  1  0  0  0
 12 14  2  0  0  0
  2 16  1  0  0  0
 16 17  1  0  0  0
 16 18  2  0  0  0
  7  2  1  0  0  0
  8  6  1  0  0  0
  1 10  1  0  0  0
  1 11  1  0  0  0
 13 15  1  0  0  0
 17 19  1  0  0  0
M  END
> <minimizedAffinity>
-7.01296

> <CNNscore>
0.8409329653

> <CNNaffinity>
5.7736835480

> <CNN_VS>
4.8552808762

> <CNNaffinity_variance>
0.1248224229

$$$$
[H]OC(=O)[C@]1(N([H])[H])C([H])([H])C(=O)[C@@]2([H])[C@](F)(C(=O)O[H])[C@@]12[H]


 19 20  0  0  0  0  0  0  0  0999 V2000
   22.2106    6.4715   52.1597 N   0  0  0  0  0  0  0  0  0  0  0  0
   22.0104    7.7557   52.7809 C   0  0  0  0  0  0  0  0  0  0  0  0
   21.1523    7.5594   54.0124 C   0  0  0  0  0  0  0  0  0  0  0  0
   21.9226    8.0705   55.1526 C   0  0  0  0  0  0  0  0  0  0  0  0
   21.6037    7.9740   56.3191 O   0  0  0  0  0  0  0  0  0  0  0  0
   23.1356    8.7139   54.6488 C   0  0  0  0  0  0  0  0  0  0  0  0
   23.2878    8.4000   53.2101 C   0  0  0  0  0  0  0  0  0  0  0  0
   24.2149    7.7461   54.1632 C   0  0  0  0  0  0  0  0  0  0  0  0
   24.0987    6.4165   54.4760 F   0  0  0  0  0  0  0  0  0  0  0  0
   21.3073    5.9548   52.1638 H   0  0  0  0  0  0  0  0  0  0  0  0
   22.6368    6.5354   51.2097 H   0  0  0  0  0  0  0  0  0  0  0  0
   25.5957    8.3058   54.2076 C   0  0  0  0  0  0  0  0  0  0  0  0
   26.1771    8.7877   55.3630 O   0  0  0  0  0  0  0  0  0  0  0  0
   26.2754    8.3428   53.1284 O   0  0  0  0  0  0  0  0  0  0  0  0
   27.1876    8.7563   55.4731 H   0  0  0  0  0  0  0  0  0  0  0  0
   21.3033    8.6939   51.8711 C   0  0  0  0  0  0  0  0  0  0  0  0
   21.4440   10.0692   51.9657 O   0  0  0  0  0  0  0  0  0  0  0  0
   20.5445    8.2461   50.9750 O   0  0  0  0  0  0  0  0  0  0  0  0
   21.5799   10.6148   51.1242 H   0  0  0  0  0  0  0  0  0  0  0  0
  1  2  1  0  0  0
  2  3  1  0  0  0
  3  4  1  0  0  0
  4  5  2  0  0  0
  4  6  1  0  0  0
  6  7  1  0  0  0
  7  8  1  0  0  0
  8  9  1  0  0  0
  8 12  1  0  0  0
 12 13  1  0  0  0
 12 14  2  0  0  0
  2 16  1  0  0  0
 16 17  1  0  0  0
 16 18  2  0  0  0
  7  2  1  0  0  0
  8  6  1  0  0  0
  1 10  1  0  0  0
  1 11  1  0  0  0
 13 15  1  0  0  0
 17 19  1  0  0  0
M  END
> <minimizedAffinity>
-6.61166

> <CNNscore>
0.6437663436

> <CNNaffinity>
5.6070661545

> <CNN_VS>
3.6096403599

> <CNNaffinity_variance>
0.0492941439

$$$$
[H]OC(=O)[C@]1(N([H])[H])C([H])([H])C(=O)[C@@]2([H])[C@](F)(C(=O)O[H])[C@@]12[H]


 19 20  0  0  0  0  0  0  0  0999 V2000
   24.5819    8.2813   52.7508 N   0  0  0  0  0  0  0  0  0  0  0  0
   23.8200    7.9217   53.9192 C   0  0  0  0  0  0  0  0  0  0  0  0
   23.6763    9.1515   54.7900 C   0  0  0  0  0  0  0  0  0  0  0  0
   22.2372    9.3860   54.9597 C   0  0  0  0  0  0  0  0  0  0  0  0
   21.7389   10.3509   55.5004 O   0  0  0  0  0  0  0  0  0  0  0  0
   21.5064    8.2650   54.3694 C   0  0  0  0  0  0  0  0  0  0  0  0
   22.4484    7.4297   53.5907 C   0  0  0  0  0  0  0  0  0  0  0  0
   21.4760    8.2589   52.8409 C   0  0  0  0  0  0  0  0  0  0  0  0
   21.8672    9.3875   52.1682 F   0  0  0  0  0  0  0  0  0  0  0  0
   25.3784    8.8832   53.0445 H   0  0  0  0  0  0  0  0  0  0  0  0
   24.8830    7.4576   52.1857 H   0  0  0  0  0  0  0  0  0  0  0  0
   20.3150    7.5261   52.2604 C   0  0  0  0  0  0  0  0  0  0  0  0
   19.6707    6.4952   52.9142 O   0  0  0  0  0  0  0  0  0  0  0  0
   19.8941    7.8649   51.1045 O   0  0  0  0  0  0  0  0  0  0  0  0
   18.6876    6.3131   52.7285 H   0  0  0  0  0  0  0  0  0  0  0  0
   24.5087    6.8720   54.7139 C   0  0  0  0  0  0  0  0  0  0  0  0
   23.8655    5.7217   55.1421 O   0  0  0  0  0  0  0  0  0  0  0  0
   25.7195    7.0111   55.0206 O   0  0  0  0  0  0  0  0  0  0  0  0
   24.3286    4.8271   55.0456 H   0  0  0  0  0  0  0  0  0  0  0  0
  1  2  1  0  0  0
  2  3  1  0  0  0
  3  4  1  0  0  0
  4  5  2  0  0  0
  4  6  1  0  0  0
  6  7  1  0  0  0
  7  8  1  0  0  0
  8  9  1  0  0  0
  8 12  1  0  0  0
 12 13  1  0  0  0
 12 14  2  0  0  0
  2 16  1  0  0  0
 16 17  1  0  0  0
 16 18  2  0  0  0
  7  2  1  0  0  0
  8  6  1  0  0  0
  1 10  1  0  0  0
  1 11  1  0  0  0
 13 15  1  0  0  0
 17 19  1  0  0  0
M  END
> <minimizedAffinity>
-5.95146

> <CNNscore>
0.5750398636

> <CNNaffinity>
5.5747456551

> <CNN_VS>
3.2057008743

> <CNNaffinity_variance>
0.1772948802

$$$$
[H]OC(=O)[C@]1(N([H])[H])C([H])([H])C(=O)[C@@]2([H])[C@](F)(C(=O)O[H])[C@@]12[H]


 19 20  0  0  0  0  0  0  0  0999 V2000
   23.0294   10.3061   54.5812 N   0  0  0  0  0  0  0  0  0  0  0  0
   21.9150    9.4285   54.3300 C   0  0  0  0  0  0  0  0  0  0  0  0
   21.3624    9.7431   52.9563 C   0  0  0  0  0  0  0  0  0  0  0  0
   21.4300    8.5012   52.1767 C   0  0  0  0  0  0  0  0  0  0  0  0
   21.1825    8.3969   50.9937 O   0  0  0  0  0  0  0  0  0  0  0  0
   21.8446    7.4134   53.0622 C   0  0  0  0  0  0  0  0  0  0  0  0
   22.2955    7.9842   54.3515 C   0  0  0  0  0  0  0  0  0  0  0  0
   23.3255    7.4305   53.4416 C   0  0  0  0  0  0  0  0  0  0  0  0
   24.1766    8.2473   52.7433 F   0  0  0  0  0  0  0  0  0  0  0  0
   22.7787   11.2635   54.2596 H   0  0  0  0  0  0  0  0  0  0  0  0
   23.3562   10.2837   55.5717 H   0  0  0  0  0  0  0  0  0  0  0  0
   23.8702    6.0954   53.8193 C   0  0  0  0  0  0  0  0  0  0  0  0
   23.7318    5.5543   55.0816 O   0  0  0  0  0  0  0  0  0  0  0  0
   24.4945    5.4178   52.9367 O   0  0  0  0  0  0  0  0  0  0  0  0
   23.7124    4.5446   55.2010 H   0  0  0  0  0  0  0  0  0  0  0  0
   20.8283    9.6341   55.3223 C   0  0  0  0  0  0  0  0  0  0  0  0
   19.8932    8.6542   55.6147 O   0  0  0  0  0  0  0  0  0  0  0  0
   20.7343   10.7294   55.9313 O   0  0  0  0  0  0  0  0  0  0  0  0
   19.6521    8.4681   56.5798 H   0  0  0  0  0  0  0  0  0  0  0  0
  1  2  1  0  0  0
  2  3  1  0  0  0
  3  4  1  0  0  0
  4  5  2  0  0  0
  4  6  1  0  0  0
  6  7  1  0  0  0
  7  8  1  0  0  0
  8  9  1  0  0  0
  8 12  1  0  0  0
 12 13  1  0  0  0
 12 14  2  0  0  0
  2 16  1  0  0  0
 16 17  1  0  0  0
 16 18  2  0  0  0
  7  2  1  0  0  0
  8  6  1  0  0  0
  1 10  1  0  0  0
  1 11  1  0  0  0
 13 15  1  0  0  0
 17 19  1  0  0  0
M  END
> <minimizedAffinity>
-3.27731

> <CNNscore>
0.5534561276

> <CNNaffinity>
5.5610094070

> <CNN_VS>
3.0777747631

> <CNNaffinity_variance>
0.2023717165

$$$$
[H]OC(=O)[C@]1(N([H])[H])C([H])([H])C(=O)[C@@]2([H])[C@](F)(C(=O)O[H])[C@@]12[H]


 19 20  0  0  0  0  0  0  0  0999 V2000
   22.1503    6.4457   55.5142 N   0  0  0  0  0  0  0  0  0  0  0  0
   22.6087    6.9203   54.2337 C   0  0  0  0  0  0  0  0  0  0  0  0
   21.7231    6.3235   53.1608 C   0  0  0  0  0  0  0  0  0  0  0  0
   21.1353    7.4473   52.4217 C   0  0  0  0  0  0  0  0  0  0  0  0
   20.2819    7.3579   51.5641 O   0  0  0  0  0  0  0  0  0  0  0  0
   21.7488    8.6894   52.8906 C   0  0  0  0  0  0  0  0  0  0  0  0
   22.5438    8.4072   54.1070 C   0  0  0  0  0  0  0  0  0  0  0  0
   21.2740    9.1538   54.2676 C   0  0  0  0  0  0  0  0  0  0  0  0
   20.1633    8.5663   54.8158 F   0  0  0  0  0  0  0  0  0  0  0  0
   21.9340    5.4308   55.4355 H   0  0  0  0  0  0  0  0  0  0  0  0
   22.8099    6.6605   56.2933 H   0  0  0  0  0  0  0  0  0  0  0  0
   21.4118   10.6206   54.4937 C   0  0  0  0  0  0  0  0  0  0  0  0
   21.5758   11.5296   53.4680 O   0  0  0  0  0  0  0  0  0  0  0  0
   21.3769   11.0607   55.6909 O   0  0  0  0  0  0  0  0  0  0  0  0
   21.2479   12.4856   53.5805 H   0  0  0  0  0  0  0  0  0  0  0  0
   24.0070    6.4950   53.9665 C   0  0  0  0  0  0  0  0  0  0  0  0
   24.4224    6.0435   52.7240 O   0  0  0  0  0  0  0  0  0  0  0  0
   24.8621    6.5380   54.8865 O   0  0  0  0  0  0  0  0  0  0  0  0
   25.2957    6.3796   52.3385 H   0  0  0  0  0  0  0  0  0  0  0  0
  1  2  1  0  0  0
  2  3  1  0  0  0
  3  4  1  0  0  0
  4  5  2  0  0  0
  4  6  1  0  0  0
  6  7  1  0  0  0
  7  8  1  0  0  0
  8  9  1  0  0  0
  8 12  1  0  0  0
 12 13  1  0  0  0
 12 14  2  0  0  0
  2 16  1  0  0  0
 16 17  1  0  0  0
 16 18  2  0  0  0
  7  2  1  0  0  0
  8  6  1  0  0  0
  1 10  1  0  0  0
  1 11  1  0  0  0
 13 15  1  0  0  0
 17 19  1  0  0  0
M  END
> <minimizedAffinity>
-6.71547

> <CNNscore>
0.5312048793

> <CNNaffinity>
5.5324053764

> <CNN_VS>
2.9388406277

> <CNNaffinity_variance>
0.1752209216

$$$$
[H]OC(=O)[C@]1(N([H])[H])C([H])([H])C(=O)[C@@]2([H])[C@](F)(C(=O)O[H])[C@@]12[H]


 19 20  0  0  0  0  0  0  0  0999 V2000
   23.4053    8.4679   55.3175 N   0  0  0  0  0  0  0  0  0  0  0  0
   23.1902    7.9004   54.0111 C   0  0  0  0  0  0  0  0  0  0  0  0
   22.0798    6.8768   54.1145 C   0  0  0  0  0  0  0  0  0  0  0  0
   21.0283    7.2949   53.1795 C   0  0  0  0  0  0  0  0  0  0  0  0
   19.9340    6.7821   53.0738 O   0  0  0  0  0  0  0  0  0  0  0  0
   21.5192    8.4300   52.3986 C   0  0  0  0  0  0  0  0  0  0  0  0
   22.7837    8.9168   52.9948 C   0  0  0  0  0  0  0  0  0  0  0  0
   21.5721    9.7532   53.1627 C   0  0  0  0  0  0  0  0  0  0  0  0
   20.9279    9.8451   54.3693 F   0  0  0  0  0  0  0  0  0  0  0  0
   23.3831    7.7019   56.0215 H   0  0  0  0  0  0  0  0  0  0  0  0
   24.2700    9.0485   55.3771 H   0  0  0  0  0  0  0  0  0  0  0  0
   21.4951   10.9601   52.2914 C   0  0  0  0  0  0  0  0  0  0  0  0
   21.1755   10.9024   50.9498 O   0  0  0  0  0  0  0  0  0  0  0  0
   21.7353   12.1024   52.8066 O   0  0  0  0  0  0  0  0  0  0  0  0
   20.7236   11.6957   50.5018 H   0  0  0  0  0  0  0  0  0  0  0  0
   24.4080    7.2107   53.5122 C   0  0  0  0  0  0  0  0  0  0  0  0
   24.3479    6.0672   52.7318 O   0  0  0  0  0  0  0  0  0  0  0  0
   25.5456    7.6633   53.7959 O   0  0  0  0  0  0  0  0  0  0  0  0
   24.9397    5.9905   51.9144 H   0  0  0  0  0  0  0  0  0  0  0  0
  1  2  1  0  0  0
  2  3  1  0  0  0
  3  4  1  0  0  0
  4  5  2  0  0  0
  4  6  1  0  0  0
  6  7  1  0  0  0
  7  8  1  0  0  0
  8  9  1  0  0  0
  8 12  1  0  0  0
 12 13  1  0  0  0
 12 14  2  0  0  0
  2 16  1  0  0  0
 16 17  1  0  0  0
 16 18  2  0  0  0
  7  2  1  0  0  0
  8  6  1  0  0  0
  1 10  1  0  0  0
  1 11  1  0  0  0
 13 15  1  0  0  0
 17 19  1  0  0  0
M  END
> <minimizedAffinity>
-4.78871

> <CNNscore>
0.4984029531

> <CNNaffinity>
5.3018717766

> <CNN_VS>
2.6424684525

> <CNNaffinity_variance>
0.1974127889

$$$$
[H]OC(=O)[C@]1(N([H])[H])C([H])([H])C(=O)[C@@]2([H])[C@](F)(C(=O)O[H])[C@@]12[H]


 19 20  0  0  0  0  0  0  0  0999 V2000
   24.4518    7.2764   53.6205 N   0  0  0  0  0  0  0  0  0  0  0  0
   23.2579    7.4163   54.4144 C   0  0  0  0  0  0  0  0  0  0  0  0
   23.3972    8.6591   55.2674 C   0  0  0  0  0  0  0  0  0  0  0  0
   22.2646    9.5315   54.9349 C   0  0  0  0  0  0  0  0  0  0  0  0
   22.1070   10.6659   55.3351 O   0  0  0  0  0  0  0  0  0  0  0  0
   21.3600    8.8067   54.0429 C   0  0  0  0  0  0  0  0  0  0  0  0
   22.0230    7.5641   53.5871 C   0  0  0  0  0  0  0  0  0  0  0  0
   21.8625    8.6629   52.6061 C   0  0  0  0  0  0  0  0  0  0  0  0
   22.9300    9.4216   52.2010 F   0  0  0  0  0  0  0  0  0  0  0  0
   25.2769    7.4815   54.2206 H   0  0  0  0  0  0  0  0  0  0  0  0
   24.5202    6.3537   53.1386 H   0  0  0  0  0  0  0  0  0  0  0  0
   20.7784    8.4771   51.6003 C   0  0  0  0  0  0  0  0  0  0  0  0
   20.1528    7.2664   51.3808 O   0  0  0  0  0  0  0  0  0  0  0  0
   20.4084    9.4826   50.9074 O   0  0  0  0  0  0  0  0  0  0  0  0
   19.1934    7.2452   51.0444 H   0  0  0  0  0  0  0  0  0  0  0  0
   23.0699    6.2539   55.3206 C   0  0  0  0  0  0  0  0  0  0  0  0
   22.0300    6.1836   56.2338 O   0  0  0  0  0  0  0  0  0  0  0  0
   23.8713    5.2869   55.2746 O   0  0  0  0  0  0  0  0  0  0  0  0
   21.5047    5.3234   56.3250 H   0  0  0  0  0  0  0  0  0  0  0  0
  1  2  1  0  0  0
  2  3  1  0  0  0
  3  4  1  0  0  0
  4  5  2  0  0  0
  4  6  1  0  0  0
  6  7  1  0  0  0
  7  8  1  0  0  0
  8  9  1  0  0  0
  8 12  1  0  0  0
 12 13  1  0  0  0
 12 14  2  0  0  0
  2 16  1  0  0  0
 16 17  1  0  0  0
 16 18  2  0  0  0
  7  2  1  0  0  0
  8  6  1  0  0  0
  1 10  1  0  0  0
  1 11  1  0  0  0
 13 15  1  0  0  0
 17 19  1  0  0  0
M  END
> <minimizedAffinity>
-5.45993

> <CNNscore>
0.4456567168

> <CNNaffinity>
5.3499841690

> <CNN_VS>
2.3842563629

> <CNNaffinity_variance>
0.3659918904

$$$$
[H]OC(=O)[C@]1(N([H])[H])C([H])([H])C(=O)[C@@]2([H])[C@](F)(C(=O)O[H])[C@@]12[H]


 19 20  0  0  0  0  0  0  0  0999 V2000
   23.2271    9.1301   55.5176 N   0  0  0  0  0  0  0  0  0  0  0  0
   23.6667    8.1863   54.5220 C   0  0  0  0  0  0  0  0  0  0  0  0
   23.2728    6.7973   54.9770 C   0  0  0  0  0  0  0  0  0  0  0  0
   22.4226    6.2304   53.9233 C   0  0  0  0  0  0  0  0  0  0  0  0
   21.8245    5.1771   53.9903 O   0  0  0  0  0  0  0  0  0  0  0  0
   22.4170    7.1452   52.7821 C   0  0  0  0  0  0  0  0  0  0  0  0
   23.0484    8.4227   53.1830 C   0  0  0  0  0  0  0  0  0  0  0  0
   21.5803    8.4089   52.9831 C   0  0  0  0  0  0  0  0  0  0  0  0
   20.7135    8.4651   54.0436 F   0  0  0  0  0  0  0  0  0  0  0  0
   23.4400    8.7438   56.4601 H   0  0  0  0  0  0  0  0  0  0  0  0
   23.6135   10.0887   55.3755 H   0  0  0  0  0  0  0  0  0  0  0  0
   21.0957    9.0234   51.7145 C   0  0  0  0  0  0  0  0  0  0  0  0
   20.4082    8.3165   50.7487 O   0  0  0  0  0  0  0  0  0  0  0  0
   21.3255   10.2614   51.5082 O   0  0  0  0  0  0  0  0  0  0  0  0
   19.7460    8.7965   50.1443 H   0  0  0  0  0  0  0  0  0  0  0  0
   25.1434    8.2170   54.3603 C   0  0  0  0  0  0  0  0  0  0  0  0
   25.9770    8.8582   55.2625 O   0  0  0  0  0  0  0  0  0  0  0  0
   25.6783    7.6467   53.3764 O   0  0  0  0  0  0  0  0  0  0  0  0
   26.8209    8.3959   55.5760 H   0  0  0  0  0  0  0  0  0  0  0  0
  1  2  1  0  0  0
  2  3  1  0  0  0
  3  4  1  0  0  0
  4  5  2  0  0  0
  4  6  1  0  0  0
  6  7  1  0  0  0
  7  8  1  0  0  0
  8  9  1  0  0  0
  8 12  1  0  0  0
 12 13  1  0  0  0
 12 14  2  0  0  0
  2 16  1  0  0  0
 16 17  1  0  0  0
 16 18  2  0  0  0
  7  2  1  0  0  0
  8  6  1  0  0  0
  1 10  1  0  0  0
  1 11  1  0  0  0
 13 15  1  0  0  0
 17 19  1  0  0  0
M  END
> <minimizedAffinity>
-5.59251

> <CNNscore>
0.4234723747

> <CNNaffinity>
5.1414494514

> <CNN_VS>
2.1772618294

> <CNNaffinity_variance>
0.0944061205

$$$$
[H]c1nc(C([H])([H])[H])c([H])c(-c2c([H])c([H])c([H])c(C3=Nc4c([H])c(C([H])([H])[H])c(C(F)(F)F)c([H])c4N([H])C(=O)C3([H])[H])c2[H])c1[H]


 31 34  0  0  0  0  0  0  0  0999 V2000
   22.0991    8.7519   52.5987 C   0  0  0  0  0  0  0  0  0  0  0  0
   22.4171    9.9823   52.5844 N   0  0  0  0  0  0  0  0  0  0  0  0
   21.8258   11.0763   51.9485 C   0  0  0  0  0  0  0  0  0  0  0  0
   22.5157   12.2772   52.1352 C   0  0  0  0  0  0  0  0  0  0  0  0
   22.0986   13.4728   51.5942 C   0  0  0  0  0  0  0  0  0  0  0  0
   22.8758   14.7261   51.8275 C   0  0  0  0  0  0  0  0  0  0  0  0
   20.9477   13.4692   50.8374 C   0  0  0  0  0  0  0  0  0  0  0  0
   20.2474   12.2772   50.6417 C   0  0  0  0  0  0  0  0  0  0  0  0
   20.6768   11.0986   51.1868 C   0  0  0  0  0  0  0  0  0  0  0  0
   19.8437    9.9818   50.8831 N   0  0  0  0  0  0  0  0  0  0  0  0
   20.1788    8.6046   51.0124 C   0  0  0  0  0  0  0  0  0  0  0  0
   19.6237    7.8581   50.1268 O   0  0  0  0  0  0  0  0  0  0  0  0
   21.0457    7.9700   51.9964 C   0  0  0  0  0  0  0  0  0  0  0  0
   18.8904   10.2191   50.5274 H   0  0  0  0  0  0  0  0  0  0  0  0
   25.1625    7.6577   54.5541 C   0  0  0  0  0  0  0  0  0  0  0  0
   24.7919    6.4013   54.9718 C   0  0  0  0  0  0  0  0  0  0  0  0
   23.5500    5.9369   54.6085 C   0  0  0  0  0  0  0  0  0  0  0  0
   22.6753    6.6768   53.8506 C   0  0  0  0  0  0  0  0  0  0  0  0
   23.0284    7.9421   53.4208 C   0  0  0  0  0  0  0  0  0  0  0  0
   24.2755    8.3964   53.7911 C   0  0  0  0  0  0  0  0  0  0  0  0
   28.0262    9.9188   57.8200 C   0  0  0  0  0  0  0  0  0  0  0  0
   27.8820    9.3265   56.4663 C   0  0  0  0  0  0  0  0  0  0  0  0
   26.6421    8.7868   56.1446 C   0  0  0  0  0  0  0  0  0  0  0  0
   26.4721    8.2293   54.8981 C   0  0  0  0  0  0  0  0  0  0  0  0
   27.5247    8.2301   54.0340 C   0  0  0  0  0  0  0  0  0  0  0  0
   28.7457    8.7720   54.3764 C   0  0  0  0  0  0  0  0  0  0  0  0
   28.8991    9.3142   55.5989 N   0  0  0  0  0  0  0  0  0  0  0  0
   20.4445   14.7305   50.2247 C   0  0  0  0  0  0  0  0  0  0  0  0
   21.4669   15.6436   50.1859 F   0  0  0  0  0  0  0  0  0  0  0  0
   19.8644   14.5274   48.9929 F   0  0  0  0  0  0  0  0  0  0  0  0
   19.4490   15.2603   51.0499 F   0  0  0  0  0  0  0  0  0  0  0  0
 21 22  1  0  0  0
 22 23  2  0  0  0
 23 24  1  0  0  0
 24 25  2  0  0  0
 25 26  1  0  0  0
 26 27  2  0  0  0
 24 15  1  0  0  0
 15 16  2  0  0  0
 16 17  1  0  0  0
 17 18  2  0  0  0
 18 19  1  0  0  0
 19 20  2  0  0  0
 19  1  1  0  0  0
  1  2  2  0  0  0
  2  3  1  0  0  0
  3  4  2  0  0  0
  4  5  1  0  0  0
  5  6  1  0  0  0
  5  7  2  0  0  0
  7  8  1  0  0  0
  8  9  2  0  0  0
  9 10  1  0  0  0
 10 11  1  0  0  0
 11 12  2  0  0  0
 11 13  1  0  0  0
  7 28  1  0  0  0
 28 29  1  0  0  0
 28 30  1  0  0  0
 28 31  1  0  0  0
 27 22  1  0  0  0
 20 15  1  0  0  0
 13  1  1  0  0  0
  9  3  1  0  0  0
 10 14  1  0  0  0
M  END
> <minimizedAffinity>
39.77605

> <CNNscore>
0.5729424357

> <CNNaffinity>
6.2150664330

> <CNN_VS>
3.5608754158

> <CNNaffinity_variance>
0.6260285974

$$$$
[H]c1nc(C([H])([H])[H])c([H])c(-c2c([H])c([H])c([H])c(C3=Nc4c([H])c(C([H])([H])[H])c(C(F)(F)F)c([H])c4N([H])C(=O)C3([H])[H])c2[H])c1[H]


 31 34  0  0  0  0  0  0  0  0999 V2000
   27.6305    8.0143   53.2869 C   0  0  0  0  0  0  0  0  0  0  0  0
   27.5732    8.8398   52.3224 N   0  0  0  0  0  0  0  0  0  0  0  0
   28.0042    8.7360   50.9978 C   0  0  0  0  0  0  0  0  0  0  0  0
   27.8078    9.8992   50.2485 C   0  0  0  0  0  0  0  0  0  0  0  0
   28.1616   10.0044   48.9219 C   0  0  0  0  0  0  0  0  0  0  0  0
   27.9276   11.2730   48.1701 C   0  0  0  0  0  0  0  0  0  0  0  0
   28.7337    8.9054   48.3200 C   0  0  0  0  0  0  0  0  0  0  0  0
   28.9364    7.7361   49.0556 C   0  0  0  0  0  0  0  0  0  0  0  0
   28.5787    7.6496   50.3729 C   0  0  0  0  0  0  0  0  0  0  0  0
   28.8605    6.3849   50.9684 N   0  0  0  0  0  0  0  0  0  0  0  0
   28.9169    6.0880   52.3592 C   0  0  0  0  0  0  0  0  0  0  0  0
   29.7771    5.1809   52.6538 O   0  0  0  0  0  0  0  0  0  0  0  0
   28.1405    6.6730   53.4443 C   0  0  0  0  0  0  0  0  0  0  0  0
   29.0442    5.6059   50.2969 H   0  0  0  0  0  0  0  0  0  0  0  0
   27.2556    9.2897   56.8419 C   0  0  0  0  0  0  0  0  0  0  0  0
   25.9155    9.5935   56.8886 C   0  0  0  0  0  0  0  0  0  0  0  0
   25.1615    9.3776   55.7595 C   0  0  0  0  0  0  0  0  0  0  0  0
   25.6949    8.8742   54.5980 C   0  0  0  0  0  0  0  0  0  0  0  0
   27.0397    8.5625   54.5301 C   0  0  0  0  0  0  0  0  0  0  0  0
   27.7848    8.7831   55.6681 C   0  0  0  0  0  0  0  0  0  0  0  0
   29.3774   12.3534   60.0185 C   0  0  0  0  0  0  0  0  0  0  0  0
   29.1738   10.9567   59.5583 C   0  0  0  0  0  0  0  0  0  0  0  0
   28.3439   10.7713   58.4587 C   0  0  0  0  0  0  0  0  0  0  0  0
   28.1324    9.4898   58.0043 C   0  0  0  0  0  0  0  0  0  0  0  0
   28.7445    8.4591   58.6505 C   0  0  0  0  0  0  0  0  0  0  0  0
   29.5639    8.6684   59.7398 C   0  0  0  0  0  0  0  0  0  0  0  0
   29.7626    9.9269   60.1745 N   0  0  0  0  0  0  0  0  0  0  0  0
   29.1388    8.9562   46.8872 C   0  0  0  0  0  0  0  0  0  0  0  0
   29.2955   10.2671   46.5167 F   0  0  0  0  0  0  0  0  0  0  0  0
   30.2523    8.1910   46.6233 F   0  0  0  0  0  0  0  0  0  0  0  0
   28.1022    8.4293   46.1124 F   0  0  0  0  0  0  0  0  0  0  0  0
 21 22  1  0  0  0
 22 23  2  0  0  0
 23 24  1  0  0  0
 24 25  2  0  0  0
 25 26  1  0  0  0
 26 27  2  0  0  0
 24 15  1  0  0  0
 15 16  2  0  0  0
 16 17  1  0  0  0
 17 18  2  0  0  0
 18 19  1  0  0  0
 19 20  2  0  0  0
 19  1  1  0  0  0
  1  2  2  0  0  0
  2  3  1  0  0  0
  3  4  2  0  0  0
  4  5  1  0  0  0
  5  6  1  0  0  0
  5  7  2  0  0  0
  7  8  1  0  0  0
  8  9  2  0  0  0
  9 10  1  0  0  0
 10 11  1  0  0  0
 11 12  2  0  0  0
 11 13  1  0  0  0
  7 28  1  0  0  0
 28 29  1  0  0  0
 28 30  1  0  0  0
 28 31  1  0  0  0
 27 22  1  0  0  0
 20 15  1  0  0  0
 13  1  1  0  0  0
  9  3  1  0  0  0
 10 14  1  0  0  0
M  END
> <minimizedAffinity>
49.89465

> <CNNscore>
0.5273426175

> <CNNaffinity>
5.7400183678

> <CNN_VS>
3.0269563198

> <CNNaffinity_variance>
0.2214989215

$$$$
[H]c1nc(C([H])([H])[H])c([H])c(-c2c([H])c([H])c([H])c(C3=Nc4c([H])c(C([H])([H])[H])c(C(F)(F)F)c([H])c4N([H])C(=O)C3([H])[H])c2[H])c1[H]


 31 34  0  0  0  0  0  0  0  0999 V2000
   21.2332    7.0264   53.4174 C   0  0  0  0  0  0  0  0  0  0  0  0
   22.3855    6.6478   53.7967 N   0  0  0  0  0  0  0  0  0  0  0  0
   23.6073    7.3235   53.8366 C   0  0  0  0  0  0  0  0  0  0  0  0
   24.6740    6.5340   54.2748 C   0  0  0  0  0  0  0  0  0  0  0  0
   25.9612    7.0098   54.3881 C   0  0  0  0  0  0  0  0  0  0  0  0
   27.0623    6.1202   54.8628 C   0  0  0  0  0  0  0  0  0  0  0  0
   26.1923    8.3251   54.0509 C   0  0  0  0  0  0  0  0  0  0  0  0
   25.1368    9.1265   53.6114 C   0  0  0  0  0  0  0  0  0  0  0  0
   23.8642    8.6368   53.5048 C   0  0  0  0  0  0  0  0  0  0  0  0
   22.9130    9.5911   53.0378 N   0  0  0  0  0  0  0  0  0  0  0  0
   21.6164    9.3214   52.5163 C   0  0  0  0  0  0  0  0  0  0  0  0
   21.2490   10.1500   51.6063 O   0  0  0  0  0  0  0  0  0  0  0  0
   20.6946    8.2544   52.8829 C   0  0  0  0  0  0  0  0  0  0  0  0
   23.2184   10.5888   53.0901 H   0  0  0  0  0  0  0  0  0  0  0  0
   19.6274    3.6096   53.8074 C   0  0  0  0  0  0  0  0  0  0  0  0
   18.2902    3.9292   53.8092 C   0  0  0  0  0  0  0  0  0  0  0  0
   17.9392    5.2526   53.6847 C   0  0  0  0  0  0  0  0  0  0  0  0
   18.8684    6.2565   53.5598 C   0  0  0  0  0  0  0  0  0  0  0  0
   20.2177    5.9565   53.5559 C   0  0  0  0  0  0  0  0  0  0  0  0
   20.5568    4.6268   53.6812 C   0  0  0  0  0  0  0  0  0  0  0  0
   20.8002   -0.1732   56.6873 C   0  0  0  0  0  0  0  0  0  0  0  0
   20.6628    0.3691   55.3121 C   0  0  0  0  0  0  0  0  0  0  0  0
   20.2268    1.6838   55.1951 C   0  0  0  0  0  0  0  0  0  0  0  0
   20.0880    2.2198   53.9353 C   0  0  0  0  0  0  0  0  0  0  0  0
   20.3832    1.4402   52.8584 C   0  0  0  0  0  0  0  0  0  0  0  0
   20.8143    0.1380   53.0002 C   0  0  0  0  0  0  0  0  0  0  0  0
   20.9459   -0.3746   54.2380 N   0  0  0  0  0  0  0  0  0  0  0  0
   27.5633    8.8994   54.1516 C   0  0  0  0  0  0  0  0  0  0  0  0
   27.7885    9.7035   53.0638 F   0  0  0  0  0  0  0  0  0  0  0  0
   27.7809    9.5466   55.3469 F   0  0  0  0  0  0  0  0  0  0  0  0
   28.4893    7.8547   54.0914 F   0  0  0  0  0  0  0  0  0  0  0  0
 21 22  1  0  0  0
 22 23  2  0  0  0
 23 24  1  0  0  0
 24 25  2  0  0  0
 25 26  1  0  0  0
 26 27  2  0  0  0
 24 15  1  0  0  0
 15 16  2  0  0  0
 16 17  1  0  0  0
 17 18  2  0  0  0
 18 19  1  0  0  0
 19 20  2  0  0  0
 19  1  1  0  0  0
  1  2  2  0  0  0
  2  3  1  0  0  0
  3  4  2  0  0  0
  4  5  1  0  0  0
  5  6  1  0  0  0
  5  7  2  0  0  0
  7  8  1  0  0  0
  8  9  2  0  0  0
  9 10  1  0  0  0
 10 11  1  0  0  0
 11 12  2  0  0  0
 11 13  1  0  0  0
  7 28  1  0  0  0
 28 29  1  0  0  0
 28 30  1  0  0  0
 28 31  1  0  0  0
 27 22  1  0  0  0
 20 15  1  0  0  0
 13  1  1  0  0  0
  9  3  1  0  0  0
 10 14  1  0  0  0
M  END
> <minimizedAffinity>
53.18813

> <CNNscore>
0.5226415992

> <CNNaffinity>
6.2490563393

> <CNN_VS>
3.2660167217

> <CNNaffinity_variance>
0.4759866595

$$$$
[H]c1nc(C([H])([H])[H])c([H])c(-c2c([H])c([H])c([H])c(C3=Nc4c([H])c(C([H])([H])[H])c(C(F)(F)F)c([H])c4N([H])C(=O)C3([H])[H])c2[H])c1[H]


 31 34  0  0  0  0  0  0  0  0999 V2000
   23.9126    8.4654   54.4684 C   0  0  0  0  0  0  0  0  0  0  0  0
   23.5514    7.2786   54.1929 N   0  0  0  0  0  0  0  0  0  0  0  0
   22.2827    6.7238   54.0098 C   0  0  0  0  0  0  0  0  0  0  0  0
   22.2989    5.3472   53.7693 C   0  0  0  0  0  0  0  0  0  0  0  0
   21.1550    4.6097   53.5604 C   0  0  0  0  0  0  0  0  0  0  0  0
   21.2325    3.1403   53.3074 C   0  0  0  0  0  0  0  0  0  0  0  0
   19.9479    5.2724   53.5927 C   0  0  0  0  0  0  0  0  0  0  0  0
   19.9155    6.6477   53.8319 C   0  0  0  0  0  0  0  0  0  0  0  0
   21.0622    7.3644   54.0375 C   0  0  0  0  0  0  0  0  0  0  0  0
   20.8434    8.7543   54.2694 N   0  0  0  0  0  0  0  0  0  0  0  0
   21.7650    9.6833   54.8292 C   0  0  0  0  0  0  0  0  0  0  0  0
   21.2028   10.6047   55.5253 O   0  0  0  0  0  0  0  0  0  0  0  0
   23.2165    9.7073   54.7071 C   0  0  0  0  0  0  0  0  0  0  0  0
   19.9003    9.1101   53.9948 H   0  0  0  0  0  0  0  0  0  0  0  0
   27.3912    9.0756   55.8585 C   0  0  0  0  0  0  0  0  0  0  0  0
   28.1765    8.8473   54.7533 C   0  0  0  0  0  0  0  0  0  0  0  0
   27.5560    8.4976   53.5774 C   0  0  0  0  0  0  0  0  0  0  0  0
   26.1926    8.3696   53.4693 C   0  0  0  0  0  0  0  0  0  0  0  0
   25.3852    8.5945   54.5684 C   0  0  0  0  0  0  0  0  0  0  0  0
   26.0188    8.9444   55.7410 C   0  0  0  0  0  0  0  0  0  0  0  0
   29.2161    7.7177   60.1950 C   0  0  0  0  0  0  0  0  0  0  0  0
   28.8640    8.8199   59.2648 C   0  0  0  0  0  0  0  0  0  0  0  0
   28.3130    8.4583   58.0409 C   0  0  0  0  0  0  0  0  0  0  0  0
   27.9742    9.4539   57.1536 C   0  0  0  0  0  0  0  0  0  0  0  0
   28.1929   10.7494   57.5119 C   0  0  0  0  0  0  0  0  0  0  0  0
   28.7411   11.0832   58.7325 C   0  0  0  0  0  0  0  0  0  0  0  0
   29.0682   10.0999   59.5916 N   0  0  0  0  0  0  0  0  0  0  0  0
   18.6745    4.5306   53.3744 C   0  0  0  0  0  0  0  0  0  0  0  0
   18.7885    3.7803   52.2322 F   0  0  0  0  0  0  0  0  0  0  0  0
   18.3019    3.7827   54.4684 F   0  0  0  0  0  0  0  0  0  0  0  0
   17.6507    5.4569   53.1593 F   0  0  0  0  0  0  0  0  0  0  0  0
 21 22  1  0  0  0
 22 23  2  0  0  0
 23 24  1  0  0  0
 24 25  2  0  0  0
 25 26  1  0  0  0
 26 27  2  0  0  0
 24 15  1  0  0  0
 15 16  2  0  0  0
 16 17  1  0  0  0
 17 18  2  0  0  0
 18 19  1  0  0  0
 19 20  2  0  0  0
 19  1  1  0  0  0
  1  2  2  0  0  0
  2  3  1  0  0  0
  3  4  2  0  0  0
  4  5  1  0  0  0
  5  6  1  0  0  0
  5  7  2  0  0  0
  7  8  1  0  0  0
  8  9  2  0  0  0
  9 10  1  0  0  0
 10 11  1  0  0  0
 11 12  2  0  0  0
 11 13  1  0  0  0
  7 28  1  0  0  0
 28 29  1  0  0  0
 28 30  1  0  0  0
 28 31  1  0  0  0
 27 22  1  0  0  0
 20 15  1  0  0  0
 13  1  1  0  0  0
  9  3  1  0  0  0
 10 14  1  0  0  0
M  END
> <minimizedAffinity>
21.88521

> <CNNscore>
0.4998117387

> <CNNaffinity>
6.3652267456

> <CNN_VS>
3.1814150810

> <CNNaffinity_variance>
0.1599592716

$$$$
[H]c1nc(C([H])([H])[H])c([H])c(-c2c([H])c([H])c([H])c(C3=Nc4c([H])c(C([H])([H])[H])c(C(F)(F)F)c([H])c4N([H])C(=O)C3([H])[H])c2[H])c1[H]


 31 34  0  0  0  0  0  0  0  0999 V2000
   23.8995    8.2496   53.7384 C   0  0  0  0  0  0  0  0  0  0  0  0
   23.4986    7.0586   53.5492 N   0  0  0  0  0  0  0  0  0  0  0  0
   22.2193    6.5008   53.6026 C   0  0  0  0  0  0  0  0  0  0  0  0
   22.1966    5.1207   53.3837 C   0  0  0  0  0  0  0  0  0  0  0  0
   21.0360    4.3797   53.3923 C   0  0  0  0  0  0  0  0  0  0  0  0
   21.0717    2.9067   53.1514 C   0  0  0  0  0  0  0  0  0  0  0  0
   19.8519    5.0426   53.6285 C   0  0  0  0  0  0  0  0  0  0  0  0
   19.8583    6.4213   53.8491 C   0  0  0  0  0  0  0  0  0  0  0  0
   21.0211    7.1413   53.8371 C   0  0  0  0  0  0  0  0  0  0  0  0
   20.8429    8.5346   54.0835 N   0  0  0  0  0  0  0  0  0  0  0  0
   21.8464    9.4723   54.4567 C   0  0  0  0  0  0  0  0  0  0  0  0
   21.4140   10.4040   55.2278 O   0  0  0  0  0  0  0  0  0  0  0  0
   23.2532    9.4948   54.0784 C   0  0  0  0  0  0  0  0  0  0  0  0
   19.8649    8.8859   53.9755 H   0  0  0  0  0  0  0  0  0  0  0  0
   27.3080    8.9462   52.2211 C   0  0  0  0  0  0  0  0  0  0  0  0
   28.1471    8.6195   53.2601 C   0  0  0  0  0  0  0  0  0  0  0  0
   27.5844    8.1802   54.4350 C   0  0  0  0  0  0  0  0  0  0  0  0
   26.2269    8.0574   54.6054 C   0  0  0  0  0  0  0  0  0  0  0  0
   25.3660    8.3806   53.5735 C   0  0  0  0  0  0  0  0  0  0  0  0
   25.9419    8.8197   52.4011 C   0  0  0  0  0  0  0  0  0  0  0  0
   29.0425    7.9202   47.7582 C   0  0  0  0  0  0  0  0  0  0  0  0
   28.6718    8.9509   48.7603 C   0  0  0  0  0  0  0  0  0  0  0  0
   28.1809    8.4959   49.9786 C   0  0  0  0  0  0  0  0  0  0  0  0
   27.8273    9.4233   50.9317 C   0  0  0  0  0  0  0  0  0  0  0  0
   27.9732   10.7457   50.6409 C   0  0  0  0  0  0  0  0  0  0  0  0
   28.4627   11.1727   49.4244 C   0  0  0  0  0  0  0  0  0  0  0  0
   28.8050   10.2554   48.5006 N   0  0  0  0  0  0  0  0  0  0  0  0
   18.5622    4.2971   53.6509 C   0  0  0  0  0  0  0  0  0  0  0  0
   17.5302    5.1979   53.7157 F   0  0  0  0  0  0  0  0  0  0  0  0
   18.4382    3.4195   52.5976 F   0  0  0  0  0  0  0  0  0  0  0  0
   18.5124    3.5280   54.8165 F   0  0  0  0  0  0  0  0  0  0  0  0
 21 22  1  0  0  0
 22 23  2  0  0  0
 23 24  1  0  0  0
 24 25  2  0  0  0
 25 26  1  0  0  0
 26 27  2  0  0  0
 24 15  1  0  0  0
 15 16  2  0  0  0
 16 17  1  0  0  0
 17 18  2  0  0  0
 18 19  1  0  0  0
 19 20  2  0  0  0
 19  1  1  0  0  0
  1  2  2  0  0  0
  2  3  1  0  0  0
  3  4  2  0  0  0
  4  5  1  0  0  0
  5  6  1  0  0  0
  5  7  2  0  0  0
  7  8  1  0  0  0
  8  9  2  0  0  0
  9 10  1  0  0  0
 10 11  1  0  0  0
 11 12  2  0  0  0
 11 13  1  0  0  0
  7 28  1  0  0  0
 28 29  1  0  0  0
 28 30  1  0  0  0
 28 31  1  0  0  0
 27 22  1  0  0  0
 20 15  1  0  0  0
 13  1  1  0  0  0
  9  3  1  0  0  0
 10 14  1  0  0  0
M  END
> <minimizedAffinity>
35.41455

> <CNNscore>
0.4898844659

> <CNNaffinity>
6.0614442825

> <CNN_VS>
2.9694073200

> <CNNaffinity_variance>
0.2823297381

$$$$
[H]c1nc(C([H])([H])[H])c([H])c(-c2c([H])c([H])c([H])c(C3=Nc4c([H])c(C([H])([H])[H])c(C(F)(F)F)c([H])c4N([H])C(=O)C3([H])[H])c2[H])c1[H]


 31 34  0  0  0  0  0  0  0  0999 V2000
   21.7389    6.5409   54.0560 C   0  0  0  0  0  0  0  0  0  0  0  0
   22.9897    6.3236   53.9974 N   0  0  0  0  0  0  0  0  0  0  0  0
   24.0793    7.1429   54.3010 C   0  0  0  0  0  0  0  0  0  0  0  0
   25.3189    6.5483   54.0500 C   0  0  0  0  0  0  0  0  0  0  0  0
   26.5168    7.1860   54.2833 C   0  0  0  0  0  0  0  0  0  0  0  0
   27.8121    6.5010   53.9966 C   0  0  0  0  0  0  0  0  0  0  0  0
   26.4755    8.4673   54.7870 C   0  0  0  0  0  0  0  0  0  0  0  0
   25.2446    9.0749   55.0430 C   0  0  0  0  0  0  0  0  0  0  0  0
   24.0644    8.4262   54.8049 C   0  0  0  0  0  0  0  0  0  0  0  0
   22.9059    9.1958   55.1200 N   0  0  0  0  0  0  0  0  0  0  0  0
   21.5718    8.9481   54.6905 C   0  0  0  0  0  0  0  0  0  0  0  0
   20.8842   10.0187   54.5151 O   0  0  0  0  0  0  0  0  0  0  0  0
   20.9227    7.6687   54.4373 C   0  0  0  0  0  0  0  0  0  0  0  0
   23.0741   10.0268   55.7305 H   0  0  0  0  0  0  0  0  0  0  0  0
   18.8981    4.0501   53.6934 C   0  0  0  0  0  0  0  0  0  0  0  0
   19.4449    3.1278   52.8327 C   0  0  0  0  0  0  0  0  0  0  0  0
   20.7283    3.3375   52.3868 C   0  0  0  0  0  0  0  0  0  0  0  0
   21.4759    4.4253   52.7673 C   0  0  0  0  0  0  0  0  0  0  0  0
   20.9449    5.3642   53.6316 C   0  0  0  0  0  0  0  0  0  0  0  0
   19.6579    5.1429   54.0715 C   0  0  0  0  0  0  0  0  0  0  0  0
   15.9311    3.2725   57.5106 C   0  0  0  0  0  0  0  0  0  0  0  0
   16.0720    3.5255   56.0545 C   0  0  0  0  0  0  0  0  0  0  0  0
   17.3645    3.6659   55.5626 C   0  0  0  0  0  0  0  0  0  0  0  0
   17.5331    3.9011   54.2173 C   0  0  0  0  0  0  0  0  0  0  0  0
   16.4278    3.9862   53.4263 C   0  0  0  0  0  0  0  0  0  0  0  0
   15.1551    3.8432   53.9380 C   0  0  0  0  0  0  0  0  0  0  0  0
   15.0038    3.6135   55.2557 N   0  0  0  0  0  0  0  0  0  0  0  0
   27.7372    9.2108   55.0606 C   0  0  0  0  0  0  0  0  0  0  0  0
   28.6750    8.3321   55.5391 F   0  0  0  0  0  0  0  0  0  0  0  0
   28.1813    9.9221   53.9689 F   0  0  0  0  0  0  0  0  0  0  0  0
   27.4936   10.1449   56.0708 F   0  0  0  0  0  0  0  0  0  0  0  0
 21 22  1  0  0  0
 22 23  2  0  0  0
 23 24  1  0  0  0
 24 25  2  0  0  0
 25 26  1  0  0  0
 26 27  2  0  0  0
 24 15  1  0  0  0
 15 16  2  0  0  0
 16 17  1  0  0  0
 17 18  2  0  0  0
 18 19  1  0  0  0
 19 20  2  0  0  0
 19  1  1  0  0  0
  1  2  2  0  0  0
  2  3  1  0  0  0
  3  4  2  0  0  0
  4  5  1  0  0  0
  5  6  1  0  0  0
  5  7  2  0  0  0
  7  8  1  0  0  0
  8  9  2  0  0  0
  9 10  1  0  0  0
 10 11  1  0  0  0
 11 12  2  0  0  0
 11 13  1  0  0  0
  7 28  1  0  0  0
 28 29  1  0  0  0
 28 30  1  0  0  0
 28 31  1  0  0  0
 27 22  1  0  0  0
 20 15  1  0  0  0
 13  1  1  0  0  0
  9  3  1  0  0  0
 10 14  1  0  0  0
M  END
> <minimizedAffinity>
37.93911

> <CNNscore>
0.4759068489

> <CNNaffinity>
6.2823991776

> <CNN_VS>
2.9898366928

> <CNNaffinity_variance>
0.5132975578

$$$$
[H]c1nc(C([H])([H])[H])c([H])c(-c2c([H])c([H])c([H])c(C3=Nc4c([H])c(C([H])([H])[H])c(C(F)(F)F)c([H])c4N([H])C(=O)C3([H])[H])c2[H])c1[H]


 31 34  0  0  0  0  0  0  0  0999 V2000
   24.3520    8.7053   54.9020 C   0  0  0  0  0  0  0  0  0  0  0  0
   23.9934    7.5398   54.5442 N   0  0  0  0  0  0  0  0  0  0  0  0
   22.7336    7.0198   54.2388 C   0  0  0  0  0  0  0  0  0  0  0  0
   22.7453    5.6555   53.9360 C   0  0  0  0  0  0  0  0  0  0  0  0
   21.6088    4.9516   53.6057 C   0  0  0  0  0  0  0  0  0  0  0  0
   21.6811    3.4939   53.2907 C   0  0  0  0  0  0  0  0  0  0  0  0
   20.4142    5.6365   53.5766 C   0  0  0  0  0  0  0  0  0  0  0  0
   20.3863    6.9999   53.8769 C   0  0  0  0  0  0  0  0  0  0  0  0
   21.5254    7.6830   54.2030 C   0  0  0  0  0  0  0  0  0  0  0  0
   21.3126    9.0651   54.4825 N   0  0  0  0  0  0  0  0  0  0  0  0
   22.2035    9.9489   55.1541 C   0  0  0  0  0  0  0  0  0  0  0  0
   21.6046   10.8488   55.8476 O   0  0  0  0  0  0  0  0  0  0  0  0
   23.6604    9.9490   55.1447 C   0  0  0  0  0  0  0  0  0  0  0  0
   20.3997    9.4521   54.1535 H   0  0  0  0  0  0  0  0  0  0  0  0
   27.7195    9.2969   56.5498 C   0  0  0  0  0  0  0  0  0  0  0  0
   28.5870    8.9869   55.5292 C   0  0  0  0  0  0  0  0  0  0  0  0
   28.0563    8.5898   54.3247 C   0  0  0  0  0  0  0  0  0  0  0  0
   26.7034    8.4929   54.1076 C   0  0  0  0  0  0  0  0  0  0  0  0
   25.8144    8.7998   55.1204 C   0  0  0  0  0  0  0  0  0  0  0  0
   26.3583    9.1966   56.3227 C   0  0  0  0  0  0  0  0  0  0  0  0
   28.6024   12.9339   59.7075 C   0  0  0  0  0  0  0  0  0  0  0  0
   28.6411   11.4782   59.4185 C   0  0  0  0  0  0  0  0  0  0  0  0
   28.1824   11.0723   58.1708 C   0  0  0  0  0  0  0  0  0  0  0  0
   28.2036    9.7301   57.8682 C   0  0  0  0  0  0  0  0  0  0  0  0
   28.6727    8.8579   58.8030 C   0  0  0  0  0  0  0  0  0  0  0  0
   29.1227    9.2851   60.0346 C   0  0  0  0  0  0  0  0  0  0  0  0
   29.0965   10.6008   60.3182 N   0  0  0  0  0  0  0  0  0  0  0  0
   19.1493    4.9313   53.2269 C   0  0  0  0  0  0  0  0  0  0  0  0
   18.1042    5.8118   53.3417 F   0  0  0  0  0  0  0  0  0  0  0  0
   19.2032    4.3263   51.9916 F   0  0  0  0  0  0  0  0  0  0  0  0
   18.9349    3.9126   54.1590 F   0  0  0  0  0  0  0  0  0  0  0  0
 21 22  1  0  0  0
 22 23  2  0  0  0
 23 24  1  0  0  0
 24 25  2  0  0  0
 25 26  1  0  0  0
 26 27  2  0  0  0
 24 15  1  0  0  0
 15 16  2  0  0  0
 16 17  1  0  0  0
 17 18  2  0  0  0
 18 19  1  0  0  0
 19 20  2  0  0  0
 19  1  1  0  0  0
  1  2  2  0  0  0
  2  3  1  0  0  0
  3  4  2  0  0  0
  4  5  1  0  0  0
  5  6  1  0  0  0
  5  7  2  0  0  0
  7  8  1  0  0  0
  8  9  2  0  0  0
  9 10  1  0  0  0
 10 11  1  0  0  0
 11 12  2  0  0  0
 11 13  1  0  0  0
  7 28  1  0  0  0
 28 29  1  0  0  0
 28 30  1  0  0  0
 28 31  1  0  0  0
 27 22  1  0  0  0
 20 15  1  0  0  0
 13  1  1  0  0  0
  9  3  1  0  0  0
 10 14  1  0  0  0
M  END
> <minimizedAffinity>
19.42906

> <CNNscore>
0.4727825224

> <CNNaffinity>
6.2746286392

> <CNN_VS>
2.9665348530

> <CNNaffinity_variance>
0.0459308513

$$$$
[H]c1nc(C([H])([H])[H])c([H])c(-c2c([H])c([H])c([H])c(C3=Nc4c([H])c(C([H])([H])[H])c(C(F)(F)F)c([H])c4N([H])C(=O)C3([H])[H])c2[H])c1[H]


 31 34  0  0  0  0  0  0  0  0999 V2000
   25.2803    7.8012   54.5903 C   0  0  0  0  0  0  0  0  0  0  0  0
   24.5541    8.5642   53.8792 N   0  0  0  0  0  0  0  0  0  0  0  0
   23.2771    8.3797   53.3442 C   0  0  0  0  0  0  0  0  0  0  0  0
   22.8349    9.4486   52.5600 C   0  0  0  0  0  0  0  0  0  0  0  0
   21.6037    9.4664   51.9435 C   0  0  0  0  0  0  0  0  0  0  0  0
   21.1834   10.6367   51.1170 C   0  0  0  0  0  0  0  0  0  0  0  0
   20.7822    8.3745   52.1167 C   0  0  0  0  0  0  0  0  0  0  0  0
   21.2100    7.2988   52.8974 C   0  0  0  0  0  0  0  0  0  0  0  0
   22.4366    7.2983   53.5024 C   0  0  0  0  0  0  0  0  0  0  0  0
   22.7102    6.1199   54.2574 N   0  0  0  0  0  0  0  0  0  0  0  0
   23.9815    5.6745   54.7168 C   0  0  0  0  0  0  0  0  0  0  0  0
   24.0925    4.3955   54.7533 O   0  0  0  0  0  0  0  0  0  0  0  0
   25.1265    6.4729   55.1341 C   0  0  0  0  0  0  0  0  0  0  0  0
   21.8770    5.5328   54.4868 H   0  0  0  0  0  0  0  0  0  0  0  0
   28.0944    9.4240   56.5532 C   0  0  0  0  0  0  0  0  0  0  0  0
   29.0432    9.6115   55.5760 C   0  0  0  0  0  0  0  0  0  0  0  0
   28.7467    9.2037   54.2970 C   0  0  0  0  0  0  0  0  0  0  0  0
   27.5478    8.6213   53.9647 C   0  0  0  0  0  0  0  0  0  0  0  0
   26.5807    8.4236   54.9322 C   0  0  0  0  0  0  0  0  0  0  0  0
   26.8895    8.8366   56.2101 C   0  0  0  0  0  0  0  0  0  0  0  0
   28.4882   13.0089   59.8657 C   0  0  0  0  0  0  0  0  0  0  0  0
   28.5264   11.5541   59.5720 C   0  0  0  0  0  0  0  0  0  0  0  0
   28.3025   11.1723   58.2543 C   0  0  0  0  0  0  0  0  0  0  0  0
   28.3307    9.8317   57.9454 C   0  0  0  0  0  0  0  0  0  0  0  0
   28.5765    8.9374   58.9425 C   0  0  0  0  0  0  0  0  0  0  0  0
   28.7958    9.3408   60.2429 C   0  0  0  0  0  0  0  0  0  0  0  0
   28.7655   10.6552   60.5321 N   0  0  0  0  0  0  0  0  0  0  0  0
   19.4381    8.3332   51.4754 C   0  0  0  0  0  0  0  0  0  0  0  0
   18.5229    7.8828   52.3920 F   0  0  0  0  0  0  0  0  0  0  0  0
   19.0810    9.5381   50.9135 F   0  0  0  0  0  0  0  0  0  0  0  0
   19.4704    7.4031   50.4331 F   0  0  0  0  0  0  0  0  0  0  0  0
 21 22  1  0  0  0
 22 23  2  0  0  0
 23 24  1  0  0  0
 24 25  2  0  0  0
 25 26  1  0  0  0
 26 27  2  0  0  0
 24 15  1  0  0  0
 15 16  2  0  0  0
 16 17  1  0  0  0
 17 18  2  0  0  0
 18 19  1  0  0  0
 19 20  2  0  0  0
 19  1  1  0  0  0
  1  2  2  0  0  0
  2  3  1  0  0  0
  3  4  2  0  0  0
  4  5  1  0  0  0
  5  6  1  0  0  0
  5  7  2  0  0  0
  7  8  1  0  0  0
  8  9  2  0  0  0
  9 10  1  0  0  0
 10 11  1  0  0  0
 11 12  2  0  0  0
 11 13  1  0  0  0
  7 28  1  0  0  0
 28 29  1  0  0  0
 28 30  1  0  0  0
 28 31  1  0  0  0
 27 22  1  0  0  0
 20 15  1  0  0  0
 13  1  1  0  0  0
  9  3  1  0  0  0
 10 14  1  0  0  0
M  END
> <minimizedAffinity>
20.47127

> <CNNscore>
0.4708513916

> <CNNaffinity>
6.1825799942

> <CNN_VS>
2.9110763073

> <CNNaffinity_variance>
0.1212711111

$$$$
[H]c1nc(C([H])([H])[H])c([H])c(-c2c([H])c([H])c([H])c(C3=Nc4c([H])c(C([H])([H])[H])c(C(F)(F)F)c([H])c4N([H])C(=O)C3([H])[H])c2[H])c1[H]


 31 34  0  0  0  0  0  0  0  0999 V2000
   27.1023    8.9544   56.1911 C   0  0  0  0  0  0  0  0  0  0  0  0
   25.8402    9.0833   56.2662 N   0  0  0  0  0  0  0  0  0  0  0  0
   24.8391    8.8910   55.3114 C   0  0  0  0  0  0  0  0  0  0  0  0
   23.5549    9.1927   55.7727 C   0  0  0  0  0  0  0  0  0  0  0  0
   22.4291    9.0686   54.9895 C   0  0  0  0  0  0  0  0  0  0  0  0
   21.0810    9.4051   55.5360 C   0  0  0  0  0  0  0  0  0  0  0  0
   22.5919    8.6259   53.6954 C   0  0  0  0  0  0  0  0  0  0  0  0
   23.8687    8.3205   53.2200 C   0  0  0  0  0  0  0  0  0  0  0  0
   24.9760    8.4499   54.0123 C   0  0  0  0  0  0  0  0  0  0  0  0
   26.1967    8.0980   53.3646 N   0  0  0  0  0  0  0  0  0  0  0  0
   27.5152    8.4277   53.7875 C   0  0  0  0  0  0  0  0  0  0  0  0
   28.3335    8.6098   52.8144 O   0  0  0  0  0  0  0  0  0  0  0  0
   28.0223    8.5760   55.1451 C   0  0  0  0  0  0  0  0  0  0  0  0
   26.0924    7.5407   52.4871 H   0  0  0  0  0  0  0  0  0  0  0  0
   28.6647   10.8805   59.0643 C   0  0  0  0  0  0  0  0  0  0  0  0
   29.0593    9.8624   59.8997 C   0  0  0  0  0  0  0  0  0  0  0  0
   28.8067    8.5684   59.5100 C   0  0  0  0  0  0  0  0  0  0  0  0
   28.1801    8.2604   58.3271 C   0  0  0  0  0  0  0  0  0  0  0  0
   27.7753    9.2690   57.4731 C   0  0  0  0  0  0  0  0  0  0  0  0
   28.0341   10.5615   57.8747 C   0  0  0  0  0  0  0  0  0  0  0  0
   28.4758   15.5971   57.7617 C   0  0  0  0  0  0  0  0  0  0  0  0
   28.8149   14.5876   58.7961 C   0  0  0  0  0  0  0  0  0  0  0  0
   28.5938   13.2545   58.4703 C   0  0  0  0  0  0  0  0  0  0  0  0
   28.8969   12.2912   59.4050 C   0  0  0  0  0  0  0  0  0  0  0  0
   29.3999   12.6846   60.6078 C   0  0  0  0  0  0  0  0  0  0  0  0
   29.6105   14.0141   60.9078 C   0  0  0  0  0  0  0  0  0  0  0  0
   29.3099   14.9467   59.9848 N   0  0  0  0  0  0  0  0  0  0  0  0
   21.4130    8.4709   52.7978 C   0  0  0  0  0  0  0  0  0  0  0  0
   21.8293    7.9314   51.6078 F   0  0  0  0  0  0  0  0  0  0  0  0
   20.3931    7.7532   53.3806 F   0  0  0  0  0  0  0  0  0  0  0  0
   20.8966    9.7388   52.5178 F   0  0  0  0  0  0  0  0  0  0  0  0
 21 22  1  0  0  0
 22 23  2  0  0  0
 23 24  1  0  0  0
 24 25  2  0  0  0
 25 26  1  0  0  0
 26 27  2  0  0  0
 24 15  1  0  0  0
 15 16  2  0  0  0
 16 17  1  0  0  0
 17 18  2  0  0  0
 18 19  1  0  0  0
 19 20  2  0  0  0
 19  1  1  0  0  0
  1  2  2  0  0  0
  2  3  1  0  0  0
  3  4  2  0  0  0
  4  5  1  0  0  0
  5  6  1  0  0  0
  5  7  2  0  0  0
  7  8  1  0  0  0
  8  9  2  0  0  0
  9 10  1  0  0  0
 10 11  1  0  0  0
 11 12  2  0  0  0
 11 13  1  0  0  0
  7 28  1  0  0  0
 28 29  1  0  0  0
 28 30  1  0  0  0
 28 31  1  0  0  0
 27 22  1  0  0  0
 20 15  1  0  0  0
 13  1  1  0  0  0
  9  3  1  0  0  0
 10 14  1  0  0  0
M  END
> <minimizedAffinity>
15.80164

> <CNNscore>
0.4472786188

> <CNNaffinity>
5.9941687584

> <CNN_VS>
2.6810634136

> <CNNaffinity_variance>
0.0136875752

$$$$
[H]OC(=O)[C@@]1(F)[C@]2([H])C([H])([H])[C@@]([H])(OC([H])([H])c3c([H])c([H])c(F)c(F)c3[H])[C@](C(=O)O[H])(N([H])[H])[C@]12[H]


 28 30  0  0  0  0  0  0  0  0999 V2000
   20.2592    7.5381   53.7900 N   0  0  0  0  0  0  0  0  0  0  0  0
   21.6506    7.7925   54.1322 C   0  0  0  0  0  0  0  0  0  0  0  0
   22.0088    9.1590   53.5879 C   0  0  0  0  0  0  0  0  0  0  0  0
   22.6477    8.9540   52.2558 C   0  0  0  0  0  0  0  0  0  0  0  0
   22.5948    7.4409   52.0247 C   0  0  0  0  0  0  0  0  0  0  0  0
   22.5313    6.8179   53.3870 C   0  0  0  0  0  0  0  0  0  0  0  0
   21.3742    9.6826   52.3666 C   0  0  0  0  0  0  0  0  0  0  0  0
   20.2781    9.0553   51.7913 F   0  0  0  0  0  0  0  0  0  0  0  0
   20.0424    6.5262   54.0384 H   0  0  0  0  0  0  0  0  0  0  0  0
   19.6182    8.0979   54.3940 H   0  0  0  0  0  0  0  0  0  0  0  0
   21.4279   11.1386   52.1278 C   0  0  0  0  0  0  0  0  0  0  0  0
   21.4423   11.6946   50.8562 O   0  0  0  0  0  0  0  0  0  0  0  0
   21.4631   11.9329   53.1010 O   0  0  0  0  0  0  0  0  0  0  0  0
   21.9711   12.5349   50.6741 H   0  0  0  0  0  0  0  0  0  0  0  0
   21.8163    7.7502   55.5828 C   0  0  0  0  0  0  0  0  0  0  0  0
   21.9007    6.5590   56.2787 O   0  0  0  0  0  0  0  0  0  0  0  0
   21.8842    8.8343   56.2169 O   0  0  0  0  0  0  0  0  0  0  0  0
   22.7484    6.1455   56.6205 H   0  0  0  0  0  0  0  0  0  0  0  0
   23.6958    6.5269   53.9760 O   0  0  0  0  0  0  0  0  0  0  0  0
   24.8808    6.8239   53.4201 C   0  0  0  0  0  0  0  0  0  0  0  0
   25.6637    7.7124   54.3208 C   0  0  0  0  0  0  0  0  0  0  0  0
   25.1004    8.4798   55.3017 C   0  0  0  0  0  0  0  0  0  0  0  0
   25.8912    9.2719   56.0894 C   0  0  0  0  0  0  0  0  0  0  0  0
   27.2577    9.3096   55.9093 C   0  0  0  0  0  0  0  0  0  0  0  0
   28.0107   10.1177   56.7217 F   0  0  0  0  0  0  0  0  0  0  0  0
   27.8272    8.5374   54.9220 C   0  0  0  0  0  0  0  0  0  0  0  0
   29.1741    8.5934   54.7663 F   0  0  0  0  0  0  0  0  0  0  0  0
   27.0238    7.7456   54.1365 C   0  0  0  0  0  0  0  0  0  0  0  0
  1  2  1  0  0  0
  2  3  1  0  0  0
  3  4  1  0  0  0
  4  5  1  0  0  0
  5  6  1  0  0  0
  6 19  1  0  0  0
 19 20  1  0  0  0
 20 21  1  0  0  0
 21 22  2  0  0  0
 22 23  1  0  0  0
 23 24  2  0  0  0
 24 25  1  0  0  0
 24 26  1  0  0  0
 26 27  1  0  0  0
 26 28  2  0  0  0
  4  7  1  0  0  0
  7  8  1  0  0  0
  7 11  1  0  0  0
 11 12  1  0  0  0
 11 13  2  0  0  0
  2 15  1  0  0  0
 15 16  1  0  0  0
 15 17  2  0  0  0
  6  2  1  0  0  0
 28 21  1  0  0  0
  7  3  1  0  0  0
  1  9  1  0  0  0
  1 10  1  0  0  0
 12 14  1  0  0  0
 16 18  1  0  0  0
M  END
> <minimizedAffinity>
0.50956

> <CNNscore>
0.8123277426

> <CNNaffinity>
6.2513246536

> <CNN_VS>
5.0781245232

> <CNNaffinity_variance>
0.1715892255

$$$$
[H]OC(=O)[C@@]1(F)[C@]2([H])C([H])([H])[C@@]([H])(OC([H])([H])c3c([H])c([H])c(F)c(F)c3[H])[C@](C(=O)O[H])(N([H])[H])[C@]12[H]


 28 30  0  0  0  0  0  0  0  0999 V2000
   20.0665    7.0038   52.9888 N   0  0  0  0  0  0  0  0  0  0  0  0
   21.1584    7.9563   53.1239 C   0  0  0  0  0  0  0  0  0  0  0  0
   22.4507    7.1676   53.1241 C   0  0  0  0  0  0  0  0  0  0  0  0
   22.8285    6.9326   54.5477 C   0  0  0  0  0  0  0  0  0  0  0  0
   21.6914    7.5560   55.3628 C   0  0  0  0  0  0  0  0  0  0  0  0
   21.0833    8.6079   54.4843 C   0  0  0  0  0  0  0  0  0  0  0  0
   22.5078    5.7994   53.6656 C   0  0  0  0  0  0  0  0  0  0  0  0
   21.3553    5.0989   53.9926 F   0  0  0  0  0  0  0  0  0  0  0  0
   19.1539    7.5316   53.1341 H   0  0  0  0  0  0  0  0  0  0  0  0
   20.0058    6.6422   52.0118 H   0  0  0  0  0  0  0  0  0  0  0  0
   23.6392    4.9413   53.2617 C   0  0  0  0  0  0  0  0  0  0  0  0
   24.5400    5.2985   52.2682 O   0  0  0  0  0  0  0  0  0  0  0  0
   23.8181    3.8326   53.8259 O   0  0  0  0  0  0  0  0  0  0  0  0
   24.9345    4.5946   51.6617 H   0  0  0  0  0  0  0  0  0  0  0  0
   21.1264    8.9027   52.0118 C   0  0  0  0  0  0  0  0  0  0  0  0
   21.4878   10.2282   52.1638 O   0  0  0  0  0  0  0  0  0  0  0  0
   20.7577    8.4959   50.8802 O   0  0  0  0  0  0  0  0  0  0  0  0
   22.3670   10.6251   51.8884 H   0  0  0  0  0  0  0  0  0  0  0  0
   21.6011    9.8381   54.5633 O   0  0  0  0  0  0  0  0  0  0  0  0
   22.5523   10.1660   55.4518 C   0  0  0  0  0  0  0  0  0  0  0  0
   23.8552    9.5666   55.0558 C   0  0  0  0  0  0  0  0  0  0  0  0
   24.0912    9.0153   53.8274 C   0  0  0  0  0  0  0  0  0  0  0  0
   25.3193    8.4834   53.5408 C   0  0  0  0  0  0  0  0  0  0  0  0
   26.3311    8.4942   54.4774 C   0  0  0  0  0  0  0  0  0  0  0  0
   27.5455    7.9500   54.1465 F   0  0  0  0  0  0  0  0  0  0  0  0
   26.0957    9.0489   55.7151 C   0  0  0  0  0  0  0  0  0  0  0  0
   27.1089    9.0462   56.6180 F   0  0  0  0  0  0  0  0  0  0  0  0
   24.8587    9.5802   55.9926 C   0  0  0  0  0  0  0  0  0  0  0  0
  1  2  1  0  0  0
  2  3  1  0  0  0
  3  4  1  0  0  0
  4  5  1  0  0  0
  5  6  1  0  0  0
  6 19  1  0  0  0
 19 20  1  0  0  0
 20 21  1  0  0  0
 21 22  2  0  0  0
 22 23  1  0  0  0
 23 24  2  0  0  0
 24 25  1  0  0  0
 24 26  1  0  0  0
 26 27  1  0  0  0
 26 28  2  0  0  0
  4  7  1  0  0  0
  7  8  1  0  0  0
  7 11  1  0  0  0
 11 12  1  0  0  0
 11 13  2  0  0  0
  2 15  1  0  0  0
 15 16  1  0  0  0
 15 17  2  0  0  0
  6  2  1  0  0  0
 28 21  1  0  0  0
  7  3  1  0  0  0
  1  9  1  0  0  0
  1 10  1  0  0  0
 12 14  1  0  0  0
 16 18  1  0  0  0
M  END
> <minimizedAffinity>
3.50136

> <CNNscore>
0.7729021907

> <CNNaffinity>
6.4203095436

> <CNN_VS>
4.9622712135

> <CNNaffinity_variance>
0.2812691033

$$$$
[H]OC(=O)[C@@]1(F)[C@]2([H])C([H])([H])[C@@]([H])(OC([H])([H])c3c([H])c([H])c(F)c(F)c3[H])[C@](C(=O)O[H])(N([H])[H])[C@]12[H]


 28 30  0  0  0  0  0  0  0  0999 V2000
   20.1836    7.5368   53.7899 N   0  0  0  0  0  0  0  0  0  0  0  0
   21.5813    7.7586   54.1292 C   0  0  0  0  0  0  0  0  0  0  0  0
   21.9697    9.1172   53.5857 C   0  0  0  0  0  0  0  0  0  0  0  0
   22.6007    8.8992   52.2520 C   0  0  0  0  0  0  0  0  0  0  0  0
   22.5124    7.3880   52.0191 C   0  0  0  0  0  0  0  0  0  0  0  0
   22.4376    6.7649   53.3808 C   0  0  0  0  0  0  0  0  0  0  0  0
   21.3446    9.6569   52.3665 C   0  0  0  0  0  0  0  0  0  0  0  0
   20.2330    9.0558   51.7930 F   0  0  0  0  0  0  0  0  0  0  0  0
   19.9441    6.5299   54.0376 H   0  0  0  0  0  0  0  0  0  0  0  0
   19.5571    8.1105   54.3960 H   0  0  0  0  0  0  0  0  0  0  0  0
   21.4313   11.1115   52.1294 C   0  0  0  0  0  0  0  0  0  0  0  0
   21.4083   11.6717   50.8598 O   0  0  0  0  0  0  0  0  0  0  0  0
   21.5314   11.9007   53.1023 O   0  0  0  0  0  0  0  0  0  0  0  0
   21.9536   12.4967   50.6575 H   0  0  0  0  0  0  0  0  0  0  0  0
   21.7493    7.7107   55.5794 C   0  0  0  0  0  0  0  0  0  0  0  0
   21.8163    6.5168   56.2726 O   0  0  0  0  0  0  0  0  0  0  0  0
   21.8356    8.7923   56.2155 O   0  0  0  0  0  0  0  0  0  0  0  0
   22.6581    6.0893   56.6118 H   0  0  0  0  0  0  0  0  0  0  0  0
   23.5964    6.4464   53.9668 O   0  0  0  0  0  0  0  0  0  0  0  0
   24.7735    6.5160   53.3256 C   0  0  0  0  0  0  0  0  0  0  0  0
   25.7084    7.4096   54.0611 C   0  0  0  0  0  0  0  0  0  0  0  0
   27.0612    7.4135   53.8654 C   0  0  0  0  0  0  0  0  0  0  0  0
   27.8538    8.2677   54.5834 C   0  0  0  0  0  0  0  0  0  0  0  0
   27.3068    9.1316   55.5083 C   0  0  0  0  0  0  0  0  0  0  0  0
   28.1392    9.9698   56.2047 F   0  0  0  0  0  0  0  0  0  0  0  0
   25.9446    9.1294   55.7070 C   0  0  0  0  0  0  0  0  0  0  0  0
   25.4327    9.9898   56.6232 F   0  0  0  0  0  0  0  0  0  0  0  0
   25.1578    8.2675   54.9807 C   0  0  0  0  0  0  0  0  0  0  0  0
  1  2  1  0  0  0
  2  3  1  0  0  0
  3  4  1  0  0  0
  4  5  1  0  0  0
  5  6  1  0  0  0
  6 19  1  0  0  0
 19 20  1  0  0  0
 20 21  1  0  0  0
 21 22  2  0  0  0
 22 23  1  0  0  0
 23 24  2  0  0  0
 24 25  1  0  0  0
 24 26  1  0  0  0
 26 27  1  0  0  0
 26 28  2  0  0  0
  4  7  1  0  0  0
  7  8  1  0  0  0
  7 11  1  0  0  0
 11 12  1  0  0  0
 11 13  2  0  0  0
  2 15  1  0  0  0
 15 16  1  0  0  0
 15 17  2  0  0  0
  6  2  1  0  0  0
 28 21  1  0  0  0
  7  3  1  0  0  0
  1  9  1  0  0  0
  1 10  1  0  0  0
 12 14  1  0  0  0
 16 18  1  0  0  0
M  END
> <minimizedAffinity>
2.20174

> <CNNscore>
0.7662352324

> <CNNaffinity>
6.2644572258

> <CNN_VS>
4.8000478745

> <CNNaffinity_variance>
0.2105550319

$$$$
[H]OC(=O)[C@@]1(F)[C@]2([H])C([H])([H])[C@@]([H])(OC([H])([H])c3c([H])c([H])c(F)c(F)c3[H])[C@](C(=O)O[H])(N([H])[H])[C@]12[H]


 28 30  0  0  0  0  0  0  0  0999 V2000
   20.6980    6.7610   53.4609 N   0  0  0  0  0  0  0  0  0  0  0  0
   21.9300    7.2263   54.0801 C   0  0  0  0  0  0  0  0  0  0  0  0
   22.0990    8.6853   53.7130 C   0  0  0  0  0  0  0  0  0  0  0  0
   22.9878    8.7431   52.5165 C   0  0  0  0  0  0  0  0  0  0  0  0
   23.2772    7.2791   52.1724 C   0  0  0  0  0  0  0  0  0  0  0  0
   23.1026    6.5133   53.4496 C   0  0  0  0  0  0  0  0  0  0  0  0
   21.5955    9.2119   52.4333 C   0  0  0  0  0  0  0  0  0  0  0  0
   20.7629    8.4607   51.6159 F   0  0  0  0  0  0  0  0  0  0  0  0
   20.6465    5.7060   53.5906 H   0  0  0  0  0  0  0  0  0  0  0  0
   19.8636    7.1273   53.9695 H   0  0  0  0  0  0  0  0  0  0  0  0
   21.3999   10.6704   52.3134 C   0  0  0  0  0  0  0  0  0  0  0  0
   21.2807   11.3177   51.0916 O   0  0  0  0  0  0  0  0  0  0  0  0
   21.3351   11.3816   53.3476 O   0  0  0  0  0  0  0  0  0  0  0  0
   21.6570   12.2463   50.9687 H   0  0  0  0  0  0  0  0  0  0  0  0
   21.8460    7.0605   55.5288 C   0  0  0  0  0  0  0  0  0  0  0  0
   21.4985    8.1015   56.3690 O   0  0  0  0  0  0  0  0  0  0  0  0
   22.0984    5.9328   56.0254 O   0  0  0  0  0  0  0  0  0  0  0  0
   20.5948    8.2359   56.7833 H   0  0  0  0  0  0  0  0  0  0  0  0
   24.1811    6.3778   54.2282 O   0  0  0  0  0  0  0  0  0  0  0  0
   24.4628    7.2293   55.2268 C   0  0  0  0  0  0  0  0  0  0  0  0
   25.7583    7.9141   54.9694 C   0  0  0  0  0  0  0  0  0  0  0  0
   26.3997    7.8888   53.7626 C   0  0  0  0  0  0  0  0  0  0  0  0
   27.5904    8.5455   53.6069 C   0  0  0  0  0  0  0  0  0  0  0  0
   28.1589    9.2380   54.6548 C   0  0  0  0  0  0  0  0  0  0  0  0
   29.3530    9.8813   54.4532 F   0  0  0  0  0  0  0  0  0  0  0  0
   27.5146    9.2649   55.8712 C   0  0  0  0  0  0  0  0  0  0  0  0
   28.0962    9.9538   56.8855 F   0  0  0  0  0  0  0  0  0  0  0  0
   26.3193    8.6019   56.0168 C   0  0  0  0  0  0  0  0  0  0  0  0
  1  2  1  0  0  0
  2  3  1  0  0  0
  3  4  1  0  0  0
  4  5  1  0  0  0
  5  6  1  0  0  0
  6 19  1  0  0  0
 19 20  1  0  0  0
 20 21  1  0  0  0
 21 22  2  0  0  0
 22 23  1  0  0  0
 23 24  2  0  0  0
 24 25  1  0  0  0
 24 26  1  0  0  0
 26 27  1  0  0  0
 26 28  2  0  0  0
  4  7  1  0  0  0
  7  8  1  0  0  0
  7 11  1  0  0  0
 11 12  1  0  0  0
 11 13  2  0  0  0
  2 15  1  0  0  0
 15 16  1  0  0  0
 15 17  2  0  0  0
  6  2  1  0  0  0
 28 21  1  0  0  0
  7  3  1  0  0  0
  1  9  1  0  0  0
  1 10  1  0  0  0
 12 14  1  0  0  0
 16 18  1  0  0  0
M  END
> <minimizedAffinity>
1.70648

> <CNNscore>
0.7351199985

> <CNNaffinity>
6.1900420189

> <CNN_VS>
4.5504236221

> <CNNaffinity_variance>
0.1498689055

$$$$
[H]OC(=O)[C@@]1(F)[C@]2([H])C([H])([H])[C@@]([H])(OC([H])([H])c3c([H])c([H])c(F)c(F)c3[H])[C@](C(=O)O[H])(N([H])[H])[C@]12[H]


 28 30  0  0  0  0  0  0  0  0999 V2000
   22.6732    6.4491   51.2013 N   0  0  0  0  0  0  0  0  0  0  0  0
   22.0144    7.3046   52.1770 C   0  0  0  0  0  0  0  0  0  0  0  0
   23.0948    7.9363   53.0289 C   0  0  0  0  0  0  0  0  0  0  0  0
   23.2425    7.0984   54.2539 C   0  0  0  0  0  0  0  0  0  0  0  0
   22.2610    5.9393   54.0564 C   0  0  0  0  0  0  0  0  0  0  0  0
   21.2050    6.4483   53.1217 C   0  0  0  0  0  0  0  0  0  0  0  0
   24.3579    7.2310   53.3035 C   0  0  0  0  0  0  0  0  0  0  0  0
   24.7036    6.0700   52.6265 F   0  0  0  0  0  0  0  0  0  0  0  0
   21.9207    5.8911   50.6965 H   0  0  0  0  0  0  0  0  0  0  0  0
   23.1238    7.0175   50.4510 H   0  0  0  0  0  0  0  0  0  0  0  0
   25.5137    8.0308   53.7552 C   0  0  0  0  0  0  0  0  0  0  0  0
   25.7198    8.3754   55.0837 O   0  0  0  0  0  0  0  0  0  0  0  0
   26.3643    8.4306   52.9209 O   0  0  0  0  0  0  0  0  0  0  0  0
   26.1317    9.2660   55.3206 H   0  0  0  0  0  0  0  0  0  0  0  0
   21.2318    8.3265   51.4866 C   0  0  0  0  0  0  0  0  0  0  0  0
   21.6110    9.6556   51.4687 O   0  0  0  0  0  0  0  0  0  0  0  0
   20.1791    7.9834   50.8898 O   0  0  0  0  0  0  0  0  0  0  0  0
   22.0596   10.1206   50.7014 H   0  0  0  0  0  0  0  0  0  0  0  0
   20.1428    7.0444   53.6731 O   0  0  0  0  0  0  0  0  0  0  0  0
   20.1367    7.4797   54.9428 C   0  0  0  0  0  0  0  0  0  0  0  0
   21.0656    8.6318   55.0965 C   0  0  0  0  0  0  0  0  0  0  0  0
   22.0706    8.6739   56.0220 C   0  0  0  0  0  0  0  0  0  0  0  0
   22.8834    9.7723   56.0996 C   0  0  0  0  0  0  0  0  0  0  0  0
   22.7047   10.8461   55.2535 C   0  0  0  0  0  0  0  0  0  0  0  0
   23.5428   11.9254   55.3671 F   0  0  0  0  0  0  0  0  0  0  0  0
   21.6931   10.8058   54.3206 C   0  0  0  0  0  0  0  0  0  0  0  0
   21.5394   11.8761   53.5004 F   0  0  0  0  0  0  0  0  0  0  0  0
   20.8825    9.6979   54.2511 C   0  0  0  0  0  0  0  0  0  0  0  0
  1  2  1  0  0  0
  2  3  1  0  0  0
  3  4  1  0  0  0
  4  5  1  0  0  0
  5  6  1  0  0  0
  6 19  1  0  0  0
 19 20  1  0  0  0
 20 21  1  0  0  0
 21 22  2  0  0  0
 22 23  1  0  0  0
 23 24  2  0  0  0
 24 25  1  0  0  0
 24 26  1  0  0  0
 26 27  1  0  0  0
 26 28  2  0  0  0
  4  7  1  0  0  0
  7  8  1  0  0  0
  7 11  1  0  0  0
 11 12  1  0  0  0
 11 13  2  0  0  0
  2 15  1  0  0  0
 15 16  1  0  0  0
 15 17  2  0  0  0
  6  2  1  0  0  0
 28 21  1  0  0  0
  7  3  1  0  0  0
  1  9  1  0  0  0
  1 10  1  0  0  0
 12 14  1  0  0  0
 16 18  1  0  0  0
M  END
> <minimizedAffinity>
4.96683

> <CNNscore>
0.7318986654

> <CNNaffinity>
6.2836046219

> <CNN_VS>
4.5989618301

> <CNNaffinity_variance>
0.4475263655

$$$$
[H]OC(=O)[C@@]1(F)[C@]2([H])C([H])([H])[C@@]([H])(OC([H])([H])c3c([H])c([H])c(F)c(F)c3[H])[C@](C(=O)O[H])(N([H])[H])[C@]12[H]


 28 30  0  0  0  0  0  0  0  0999 V2000
   20.8159    6.6552   53.8763 N   0  0  0  0  0  0  0  0  0  0  0  0
   22.1838    6.9901   54.2427 C   0  0  0  0  0  0  0  0  0  0  0  0
   22.2320    8.4811   54.5010 C   0  0  0  0  0  0  0  0  0  0  0  0
   22.6875    9.1366   53.2410 C   0  0  0  0  0  0  0  0  0  0  0  0
   22.8439    7.9903   52.2374 C   0  0  0  0  0  0  0  0  0  0  0  0
   23.0871    6.7571   53.0549 C   0  0  0  0  0  0  0  0  0  0  0  0
   21.3450    9.4082   53.7785 C   0  0  0  0  0  0  0  0  0  0  0  0
   20.2898    8.9484   53.0033 F   0  0  0  0  0  0  0  0  0  0  0  0
   20.8041    5.6415   53.5526 H   0  0  0  0  0  0  0  0  0  0  0  0
   20.1917    6.6691   54.7126 H   0  0  0  0  0  0  0  0  0  0  0  0
   21.1278   10.7499   54.3551 C   0  0  0  0  0  0  0  0  0  0  0  0
   20.8250   10.9558   55.6938 O   0  0  0  0  0  0  0  0  0  0  0  0
   21.2147   11.7684   53.6239 O   0  0  0  0  0  0  0  0  0  0  0  0
   20.2044   11.7039   55.9660 H   0  0  0  0  0  0  0  0  0  0  0  0
   22.5708    6.2423   55.4362 C   0  0  0  0  0  0  0  0  0  0  0  0
   23.6559    5.3863   55.4477 O   0  0  0  0  0  0  0  0  0  0  0  0
   21.8930    6.3837   56.4862 O   0  0  0  0  0  0  0  0  0  0  0  0
   24.5569    5.5969   55.8354 H   0  0  0  0  0  0  0  0  0  0  0  0
   24.3584    6.4635   53.3467 O   0  0  0  0  0  0  0  0  0  0  0  0
   25.3890    7.2085   52.9171 C   0  0  0  0  0  0  0  0  0  0  0  0
   26.0070    7.9384   54.0567 C   0  0  0  0  0  0  0  0  0  0  0  0
   25.2906    8.4620   55.0964 C   0  0  0  0  0  0  0  0  0  0  0  0
   25.9353    9.1207   56.1082 C   0  0  0  0  0  0  0  0  0  0  0  0
   27.3063    9.2665   56.0970 C   0  0  0  0  0  0  0  0  0  0  0  0
   27.9097    9.9340   57.1317 F   0  0  0  0  0  0  0  0  0  0  0  0
   28.0299    8.7399   55.0509 C   0  0  0  0  0  0  0  0  0  0  0  0
   29.3776    8.8978   55.0648 F   0  0  0  0  0  0  0  0  0  0  0  0
   27.3725    8.0803   54.0398 C   0  0  0  0  0  0  0  0  0  0  0  0
  1  2  1  0  0  0
  2  3  1  0  0  0
  3  4  1  0  0  0
  4  5  1  0  0  0
  5  6  1  0  0  0
  6 19  1  0  0  0
 19 20  1  0  0  0
 20 21  1  0  0  0
 21 22  2  0  0  0
 22 23  1  0  0  0
 23 24  2  0  0  0
 24 25  1  0  0  0
 24 26  1  0  0  0
 26 27  1  0  0  0
 26 28  2  0  0  0
  4  7  1  0  0  0
  7  8  1  0  0  0
  7 11  1  0  0  0
 11 12  1  0  0  0
 11 13  2  0  0  0
  2 15  1  0  0  0
 15 16  1  0  0  0
 15 17  2  0  0  0
  6  2  1  0  0  0
 28 21  1  0  0  0
  7  3  1  0  0  0
  1  9  1  0  0  0
  1 10  1  0  0  0
 12 14  1  0  0  0
 16 18  1  0  0  0
M  END
> <minimizedAffinity>
0.56639

> <CNNscore>
0.7273429632

> <CNNaffinity>
6.3619203568

> <CNN_VS>
4.6272978783

> <CNNaffinity_variance>
0.1283663958

$$$$
[H]OC(=O)[C@@]1(F)[C@]2([H])C([H])([H])[C@@]([H])(OC([H])([H])c3c([H])c([H])c(F)c(F)c3[H])[C@](C(=O)O[H])(N([H])[H])[C@]12[H]


 28 30  0  0  0  0  0  0  0  0999 V2000
   19.7326    8.9198   52.5453 N   0  0  0  0  0  0  0  0  0  0  0  0
   21.0881    9.0023   53.0685 C   0  0  0  0  0  0  0  0  0  0  0  0
   21.5600    7.5878   53.3299 C   0  0  0  0  0  0  0  0  0  0  0  0
   21.3037    7.2919   54.7691 C   0  0  0  0  0  0  0  0  0  0  0  0
   20.6208    8.5506   55.3123 C   0  0  0  0  0  0  0  0  0  0  0  0
   21.0582    9.6740   54.4208 C   0  0  0  0  0  0  0  0  0  0  0  0
   20.6135    6.5285   53.7175 C   0  0  0  0  0  0  0  0  0  0  0  0
   19.2408    6.7197   53.6475 F   0  0  0  0  0  0  0  0  0  0  0  0
   19.3413    9.9083   52.4968 H   0  0  0  0  0  0  0  0  0  0  0  0
   19.7345    8.5913   51.5548 H   0  0  0  0  0  0  0  0  0  0  0  0
   21.0351    5.1246   53.5414 C   0  0  0  0  0  0  0  0  0  0  0  0
   20.1342    4.0770   53.4103 O   0  0  0  0  0  0  0  0  0  0  0  0
   22.2579    4.8368   53.5053 O   0  0  0  0  0  0  0  0  0  0  0  0
   20.3483    3.1700   53.7980 H   0  0  0  0  0  0  0  0  0  0  0  0
   21.9513    9.6678   52.0961 C   0  0  0  0  0  0  0  0  0  0  0  0
   21.6986   10.9495   51.6446 O   0  0  0  0  0  0  0  0  0  0  0  0
   22.9564    9.0524   51.6569 O   0  0  0  0  0  0  0  0  0  0  0  0
   22.1696   11.7782   51.9574 H   0  0  0  0  0  0  0  0  0  0  0  0
   22.1747   10.3234   54.7664 O   0  0  0  0  0  0  0  0  0  0  0  0
   22.8960    9.9944   55.8495 C   0  0  0  0  0  0  0  0  0  0  0  0
   24.1839    9.3717   55.4407 C   0  0  0  0  0  0  0  0  0  0  0  0
   25.3802    9.6451   56.0427 C   0  0  0  0  0  0  0  0  0  0  0  0
   26.5221    9.0293   55.6066 C   0  0  0  0  0  0  0  0  0  0  0  0
   26.4864    8.1303   54.5619 C   0  0  0  0  0  0  0  0  0  0  0  0
   27.6550    7.5372   54.1584 F   0  0  0  0  0  0  0  0  0  0  0  0
   25.2826    7.8534   53.9540 C   0  0  0  0  0  0  0  0  0  0  0  0
   25.2760    6.9649   52.9282 F   0  0  0  0  0  0  0  0  0  0  0  0
   24.1419    8.4775   54.3997 C   0  0  0  0  0  0  0  0  0  0  0  0
  1  2  1  0  0  0
  2  3  1  0  0  0
  3  4  1  0  0  0
  4  5  1  0  0  0
  5  6  1  0  0  0
  6 19  1  0  0  0
 19 20  1  0  0  0
 20 21  1  0  0  0
 21 22  2  0  0  0
 22 23  1  0  0  0
 23 24  2  0  0  0
 24 25  1  0  0  0
 24 26  1  0  0  0
 26 27  1  0  0  0
 26 28  2  0  0  0
  4  7  1  0  0  0
  7  8  1  0  0  0
  7 11  1  0  0  0
 11 12  1  0  0  0
 11 13  2  0  0  0
  2 15  1  0  0  0
 15 16  1  0  0  0
 15 17  2  0  0  0
  6  2  1  0  0  0
 28 21  1  0  0  0
  7  3  1  0  0  0
  1  9  1  0  0  0
  1 10  1  0  0  0
 12 14  1  0  0  0
 16 18  1  0  0  0
M  END
> <minimizedAffinity>
9.71140

> <CNNscore>
0.7016560435

> <CNNaffinity>
6.1655907631

> <CNN_VS>
4.3261241913

> <CNNaffinity_variance>
0.6158095598

$$$$
[H]OC(=O)[C@@]1(F)[C@]2([H])C([H])([H])[C@@]([H])(OC([H])([H])c3c([H])c([H])c(F)c(F)c3[H])[C@](C(=O)O[H])(N([H])[H])[C@]12[H]


 28 30  0  0  0  0  0  0  0  0999 V2000
   20.9826    6.5907   53.8312 N   0  0  0  0  0  0  0  0  0  0  0  0
   22.3205    6.9568   54.2713 C   0  0  0  0  0  0  0  0  0  0  0  0
   22.3190    8.4476   54.5351 C   0  0  0  0  0  0  0  0  0  0  0  0
   22.8257    9.1181   53.3029 C   0  0  0  0  0  0  0  0  0  0  0  0
   23.0632    7.9793   52.3066 C   0  0  0  0  0  0  0  0  0  0  0  0
   23.2916    6.7495   53.1333 C   0  0  0  0  0  0  0  0  0  0  0  0
   21.4501    9.3559   53.7680 C   0  0  0  0  0  0  0  0  0  0  0  0
   20.4494    8.8737   52.9361 F   0  0  0  0  0  0  0  0  0  0  0  0
   21.0125    5.5782   53.5051 H   0  0  0  0  0  0  0  0  0  0  0  0
   20.3143    6.5869   54.6327 H   0  0  0  0  0  0  0  0  0  0  0  0
   21.1702   10.6900   54.3350 C   0  0  0  0  0  0  0  0  0  0  0  0
   20.8412   10.8892   55.6685 O   0  0  0  0  0  0  0  0  0  0  0  0
   21.2250   11.7079   53.6000 O   0  0  0  0  0  0  0  0  0  0  0  0
   20.1867   11.6122   55.9288 H   0  0  0  0  0  0  0  0  0  0  0  0
   22.6606    6.2143   55.4823 C   0  0  0  0  0  0  0  0  0  0  0  0
   21.8960    6.2914   56.6311 O   0  0  0  0  0  0  0  0  0  0  0  0
   23.6830    5.4818   55.4769 O   0  0  0  0  0  0  0  0  0  0  0  0
   21.2334    5.6019   56.9344 H   0  0  0  0  0  0  0  0  0  0  0  0
   24.5521    6.4852   53.4924 O   0  0  0  0  0  0  0  0  0  0  0  0
   25.6029    7.1436   52.9787 C   0  0  0  0  0  0  0  0  0  0  0  0
   26.3164    7.8901   54.0498 C   0  0  0  0  0  0  0  0  0  0  0  0
   27.6780    7.9815   54.1287 C   0  0  0  0  0  0  0  0  0  0  0  0
   28.2582    8.6884   55.1470 C   0  0  0  0  0  0  0  0  0  0  0  0
   27.4869    9.3152   56.1025 C   0  0  0  0  0  0  0  0  0  0  0  0
   28.1112   10.0124   57.1047 F   0  0  0  0  0  0  0  0  0  0  0  0
   26.1154    9.2245   56.0250 C   0  0  0  0  0  0  0  0  0  0  0  0
   25.3802    9.8508   56.9783 F   0  0  0  0  0  0  0  0  0  0  0  0
   25.5429    8.5120   54.9983 C   0  0  0  0  0  0  0  0  0  0  0  0
  1  2  1  0  0  0
  2  3  1  0  0  0
  3  4  1  0  0  0
  4  5  1  0  0  0
  5  6  1  0  0  0
  6 19  1  0  0  0
 19 20  1  0  0  0
 20 21  1  0  0  0
 21 22  2  0  0  0
 22 23  1  0  0  0
 23 24  2  0  0  0
 24 25  1  0  0  0
 24 26  1  0  0  0
 26 27  1  0  0  0
 26 28  2  0  0  0
  4  7  1  0  0  0
  7  8  1  0  0  0
  7 11  1  0  0  0
 11 12  1  0  0  0
 11 13  2  0  0  0
  2 15  1  0  0  0
 15 16  1  0  0  0
 15 17  2  0  0  0
  6  2  1  0  0  0
 28 21  1  0  0  0
  7  3  1  0  0  0
  1  9  1  0  0  0
  1 10  1  0  0  0
 12 14  1  0  0  0
 16 18  1  0  0  0
M  END
> <minimizedAffinity>
1.41625

> <CNNscore>
0.6590806842

> <CNNaffinity>
6.3829865456

> <CNN_VS>
4.2069029808

> <CNNaffinity_variance>
0.1656213701

$$$$
[H]OC(=O)[C@@]1(F)[C@]2([H])C([H])([H])[C@@]([H])(OC([H])([H])c3c([H])c([H])c(F)c(F)c3[H])[C@](C(=O)O[H])(N([H])[H])[C@]12[H]


 28 30  0  0  0  0  0  0  0  0999 V2000
   20.2580    8.3885   55.2622 N   0  0  0  0  0  0  0  0  0  0  0  0
   21.6124    8.5236   54.7472 C   0  0  0  0  0  0  0  0  0  0  0  0
   21.5308    8.4657   53.2366 C   0  0  0  0  0  0  0  0  0  0  0  0
   21.7983    7.0557   52.8302 C   0  0  0  0  0  0  0  0  0  0  0  0
   21.9782    6.2957   54.1477 C   0  0  0  0  0  0  0  0  0  0  0  0
   22.4211    7.3149   55.1542 C   0  0  0  0  0  0  0  0  0  0  0  0
   20.4904    7.6732   52.5599 C   0  0  0  0  0  0  0  0  0  0  0  0
   19.4209    7.1310   53.2584 F   0  0  0  0  0  0  0  0  0  0  0  0
   20.3206    8.2816   56.3192 H   0  0  0  0  0  0  0  0  0  0  0  0
   19.7157    9.2689   55.1209 H   0  0  0  0  0  0  0  0  0  0  0  0
   20.1908    7.9850   51.1482 C   0  0  0  0  0  0  0  0  0  0  0  0
   18.9619    8.4740   50.7279 O   0  0  0  0  0  0  0  0  0  0  0  0
   21.0694    7.8089   50.2670 O   0  0  0  0  0  0  0  0  0  0  0  0
   18.5868    8.2045   49.8303 H   0  0  0  0  0  0  0  0  0  0  0  0
   22.1827    9.7935   55.1893 C   0  0  0  0  0  0  0  0  0  0  0  0
   21.6495   11.0108   54.8094 O   0  0  0  0  0  0  0  0  0  0  0  0
   23.1917    9.7761   55.9400 O   0  0  0  0  0  0  0  0  0  0  0  0
   21.0625   11.5906   55.3802 H   0  0  0  0  0  0  0  0  0  0  0  0
   23.7374    7.5163   55.2748 O   0  0  0  0  0  0  0  0  0  0  0  0
   24.6232    7.0634   54.3738 C   0  0  0  0  0  0  0  0  0  0  0  0
   25.8642    7.8832   54.4148 C   0  0  0  0  0  0  0  0  0  0  0  0
   26.4790    8.2659   55.5741 C   0  0  0  0  0  0  0  0  0  0  0  0
   27.6195    9.0211   55.5265 C   0  0  0  0  0  0  0  0  0  0  0  0
   28.1637    9.4057   54.3194 C   0  0  0  0  0  0  0  0  0  0  0  0
   29.3074   10.1620   54.3196 F   0  0  0  0  0  0  0  0  0  0  0  0
   27.5462    9.0213   53.1506 C   0  0  0  0  0  0  0  0  0  0  0  0
   28.1028    9.4134   51.9767 F   0  0  0  0  0  0  0  0  0  0  0  0
   26.4012    8.2630   53.2097 C   0  0  0  0  0  0  0  0  0  0  0  0
  1  2  1  0  0  0
  2  3  1  0  0  0
  3  4  1  0  0  0
  4  5  1  0  0  0
  5  6  1  0  0  0
  6 19  1  0  0  0
 19 20  1  0  0  0
 20 21  1  0  0  0
 21 22  2  0  0  0
 22 23  1  0  0  0
 23 24  2  0  0  0
 24 25  1  0  0  0
 24 26  1  0  0  0
 26 27  1  0  0  0
 26 28  2  0  0  0
  4  7  1  0  0  0
  7  8  1  0  0  0
  7 11  1  0  0  0
 11 12  1  0  0  0
 11 13  2  0  0  0
  2 15  1  0  0  0
 15 16  1  0  0  0
 15 17  2  0  0  0
  6  2  1  0  0  0
 28 21  1  0  0  0
  7  3  1  0  0  0
  1  9  1  0  0  0
  1 10  1  0  0  0
 12 14  1  0  0  0
 16 18  1  0  0  0
M  END
> <minimizedAffinity>
3.04237

> <CNNscore>
0.5499556065

> <CNNaffinity>
5.8678755760

> <CNN_VS>
3.2270710468

> <CNNaffinity_variance>
0.2578226924

$$$$
[H]OC(=O)C(N([H])[H])(C([H])([H])C1([H])c2c([H])c([H])c([H])c([H])c2Oc2c([H])c([H])c([H])c([H])c21)[C@]1([H])[C@@]([H])(C(=O)O[H])[C@@]1([H])C([H])([H])C([H])([H])C([H])([H])C([H])([H])[H]


 34 37  0  0  0  0  0  0  0  0999 V2000
   22.3405    9.4802   55.1107 C   0  0  0  0  0  0  0  0  0  0  0  0
   21.7495    8.2413   55.5474 N   0  0  0  0  0  0  0  0  0  0  0  0
   22.3827    7.4335   55.5229 H   0  0  0  0  0  0  0  0  0  0  0  0
   21.2065    8.3354   56.4319 H   0  0  0  0  0  0  0  0  0  0  0  0
   21.5528   10.6263   55.6273 C   0  0  0  0  0  0  0  0  0  0  0  0
   20.7016   10.5445   56.7331 O   0  0  0  0  0  0  0  0  0  0  0  0
   21.6073   11.7804   55.0748 O   0  0  0  0  0  0  0  0  0  0  0  0
   20.3626    9.6924   57.1182 H   0  0  0  0  0  0  0  0  0  0  0  0
   20.9571    8.9128   52.9641 C   0  0  0  0  0  0  0  0  0  0  0  0
   21.0589   10.4042   53.0396 C   0  0  0  0  0  0  0  0  0  0  0  0
   22.1593    9.5192   53.5546 C   0  0  0  0  0  0  0  0  0  0  0  0
   21.4663   11.1878   51.8175 C   0  0  0  0  0  0  0  0  0  0  0  0
   22.0688   12.4232   51.9618 O   0  0  0  0  0  0  0  0  0  0  0  0
   21.2778   10.7569   50.6555 O   0  0  0  0  0  0  0  0  0  0  0  0
   22.6446   12.8614   51.2841 H   0  0  0  0  0  0  0  0  0  0  0  0
   20.9231    8.2186   51.6458 C   0  0  0  0  0  0  0  0  0  0  0  0
   20.0105    7.0190   51.6418 C   0  0  0  0  0  0  0  0  0  0  0  0
   19.6367    5.1412   53.2630 C   0  0  0  0  0  0  0  0  0  0  0  0
   19.5992    6.6313   53.0521 C   0  0  0  0  0  0  0  0  0  0  0  0
   23.7843    9.5072   55.3058 C   0  0  0  0  0  0  0  0  0  0  0  0
   24.7142    8.4171   55.6642 C   0  0  0  0  0  0  0  0  0  0  0  0
   24.2739    7.3118   54.7065 C   0  0  0  0  0  0  0  0  0  0  0  0
   22.9788    6.8218   54.8813 C   0  0  0  0  0  0  0  0  0  0  0  0
   22.4194    5.9331   53.9869 C   0  0  0  0  0  0  0  0  0  0  0  0
   23.1665    5.5321   52.9065 C   0  0  0  0  0  0  0  0  0  0  0  0
   24.4424    6.0153   52.7402 C   0  0  0  0  0  0  0  0  0  0  0  0
   25.0164    6.9203   53.6536 C   0  0  0  0  0  0  0  0  0  0  0  0
   26.3133    7.3683   53.4668 O   0  0  0  0  0  0  0  0  0  0  0  0
   26.8391    8.2416   54.4159 C   0  0  0  0  0  0  0  0  0  0  0  0
   28.1688    8.6633   54.2791 C   0  0  0  0  0  0  0  0  0  0  0  0
   28.7950    9.4829   55.1784 C   0  0  0  0  0  0  0  0  0  0  0  0
   28.0696    9.9044   56.2656 C   0  0  0  0  0  0  0  0  0  0  0  0
   26.7756    9.5326   56.4493 C   0  0  0  0  0  0  0  0  0  0  0  0
   26.1329    8.6867   55.5048 C   0  0  0  0  0  0  0  0  0  0  0  0
 18 19  1  0  0  0
 19 17  1  0  0  0
 17 16  1  0  0  0
 16  9  1  0  0  0
  9 10  1  0  0  0
 10 11  1  0  0  0
 11  1  1  0  0  0
  1  2  1  0  0  0
  1 20  1  0  0  0
 20 21  1  0  0  0
 21 22  1  0  0  0
 22 23  2  0  0  0
 23 24  1  0  0  0
 24 25  2  0  0  0
 25 26  1  0  0  0
 26 27  2  0  0  0
 27 28  1  0  0  0
 28 29  1  0  0  0
 29 30  2  0  0  0
 30 31  1  0  0  0
 31 32  2  0  0  0
 32 33  1  0  0  0
 33 34  2  0  0  0
  1  5  1  0  0  0
  5  6  1  0  0  0
  5  7  2  0  0  0
 10 12  1  0  0  0
 12 13  1  0  0  0
 12 14  2  0  0  0
 11  9  1  0  0  0
 34 21  1  0  0  0
 27 22  1  0  0  0
 34 29  1  0  0  0
  2  3  1  0  0  0
  2  4  1  0  0  0
  6  8  1  0  0  0
 13 15  1  0  0  0
M  END
> <minimizedAffinity>
13.55007

> <CNNscore>
0.6078513861

> <CNNaffinity>
6.6973404884

> <CNN_VS>
4.0709877014

> <CNNaffinity_variance>
0.3188222647

$$$$
[H]OC(=O)C(N([H])[H])(C([H])([H])C1([H])c2c([H])c([H])c([H])c([H])c2Oc2c([H])c([H])c([H])c([H])c21)[C@]1([H])[C@@]([H])(C(=O)O[H])[C@@]1([H])C([H])([H])C([H])([H])C([H])([H])C([H])([H])[H]


 34 37  0  0  0  0  0  0  0  0999 V2000
   24.0840    6.8449   53.1655 C   0  0  0  0  0  0  0  0  0  0  0  0
   24.6096    6.9531   51.8288 N   0  0  0  0  0  0  0  0  0  0  0  0
   25.0113    7.8700   51.6002 H   0  0  0  0  0  0  0  0  0  0  0  0
   25.2050    6.1427   51.5555 H   0  0  0  0  0  0  0  0  0  0  0  0
   23.9872    5.4173   53.5570 C   0  0  0  0  0  0  0  0  0  0  0  0
   23.4263    4.9814   54.7609 O   0  0  0  0  0  0  0  0  0  0  0  0
   24.4245    4.4830   52.7980 O   0  0  0  0  0  0  0  0  0  0  0  0
   23.2667    5.5661   55.5495 H   0  0  0  0  0  0  0  0  0  0  0  0
   22.0840    7.8353   51.8006 C   0  0  0  0  0  0  0  0  0  0  0  0
   21.6480    6.4972   52.3106 C   0  0  0  0  0  0  0  0  0  0  0  0
   22.6046    7.3561   53.0895 C   0  0  0  0  0  0  0  0  0  0  0  0
   20.3084    6.3566   52.9883 C   0  0  0  0  0  0  0  0  0  0  0  0
   19.8374    5.1023   53.3274 O   0  0  0  0  0  0  0  0  0  0  0  0
   19.5918    7.3481   53.2616 O   0  0  0  0  0  0  0  0  0  0  0  0
   19.1621    4.9152   54.0287 H   0  0  0  0  0  0  0  0  0  0  0  0
   21.1036    8.9471   51.6476 C   0  0  0  0  0  0  0  0  0  0  0  0
   21.5807   10.2350   52.2686 C   0  0  0  0  0  0  0  0  0  0  0  0
   21.8359   12.7089   51.9392 C   0  0  0  0  0  0  0  0  0  0  0  0
   21.3384   11.4177   51.3462 C   0  0  0  0  0  0  0  0  0  0  0  0
   24.7339    7.7601   54.0948 C   0  0  0  0  0  0  0  0  0  0  0  0
   24.3480    8.1541   55.4649 C   0  0  0  0  0  0  0  0  0  0  0  0
   25.5635    8.9685   55.9032 C   0  0  0  0  0  0  0  0  0  0  0  0
   26.7707    8.2746   55.9993 C   0  0  0  0  0  0  0  0  0  0  0  0
   27.9601    8.9307   56.2391 C   0  0  0  0  0  0  0  0  0  0  0  0
   27.9382   10.2963   56.3838 C   0  0  0  0  0  0  0  0  0  0  0  0
   26.7466   10.9748   56.2911 C   0  0  0  0  0  0  0  0  0  0  0  0
   25.5309   10.3066   56.0492 C   0  0  0  0  0  0  0  0  0  0  0  0
   24.3460   11.0203   55.9851 O   0  0  0  0  0  0  0  0  0  0  0  0
   23.1705   10.3046   55.7702 C   0  0  0  0  0  0  0  0  0  0  0  0
   21.9526   10.9982   55.7588 C   0  0  0  0  0  0  0  0  0  0  0  0
   20.7390   10.3859   55.6011 C   0  0  0  0  0  0  0  0  0  0  0  0
   20.7314    9.0213   55.4481 C   0  0  0  0  0  0  0  0  0  0  0  0
   21.8803    8.2958   55.4460 C   0  0  0  0  0  0  0  0  0  0  0  0
   23.1360    8.9432   55.6033 C   0  0  0  0  0  0  0  0  0  0  0  0
 18 19  1  0  0  0
 19 17  1  0  0  0
 17 16  1  0  0  0
 16  9  1  0  0  0
  9 10  1  0  0  0
 10 11  1  0  0  0
 11  1  1  0  0  0
  1  2  1  0  0  0
  1 20  1  0  0  0
 20 21  1  0  0  0
 21 22  1  0  0  0
 22 23  2  0  0  0
 23 24  1  0  0  0
 24 25  2  0  0  0
 25 26  1  0  0  0
 26 27  2  0  0  0
 27 28  1  0  0  0
 28 29  1  0  0  0
 29 30  2  0  0  0
 30 31  1  0  0  0
 31 32  2  0  0  0
 32 33  1  0  0  0
 33 34  2  0  0  0
  1  5  1  0  0  0
  5  6  1  0  0  0
  5  7  2  0  0  0
 10 12  1  0  0  0
 12 13  1  0  0  0
 12 14  2  0  0  0
 11  9  1  0  0  0
 34 21  1  0  0  0
 27 22  1  0  0  0
 34 29  1  0  0  0
  2  3  1  0  0  0
  2  4  1  0  0  0
  6  8  1  0  0  0
 13 15  1  0  0  0
M  END
> <minimizedAffinity>
23.42844

> <CNNscore>
0.5069466829

> <CNNaffinity>
6.5370202065

> <CNN_VS>
3.3139207363

> <CNNaffinity_variance>
0.5567010045

$$$$
[H]OC(=O)C(N([H])[H])(C([H])([H])C1([H])c2c([H])c([H])c([H])c([H])c2Oc2c([H])c([H])c([H])c([H])c21)[C@]1([H])[C@@]([H])(C(=O)O[H])[C@@]1([H])C([H])([H])C([H])([H])C([H])([H])C([H])([H])[H]


 34 37  0  0  0  0  0  0  0  0999 V2000
   22.2674    9.2821   55.2589 C   0  0  0  0  0  0  0  0  0  0  0  0
   21.7554    8.3473   56.2278 N   0  0  0  0  0  0  0  0  0  0  0  0
   22.3891    7.5702   56.4485 H   0  0  0  0  0  0  0  0  0  0  0  0
   21.3357    8.8100   57.0619 H   0  0  0  0  0  0  0  0  0  0  0  0
   21.5430   10.5721   55.3685 C   0  0  0  0  0  0  0  0  0  0  0  0
   20.5292   10.8135   56.3002 O   0  0  0  0  0  0  0  0  0  0  0  0
   21.8099   11.5585   54.5965 O   0  0  0  0  0  0  0  0  0  0  0  0
   20.0424   10.1021   56.7964 H   0  0  0  0  0  0  0  0  0  0  0  0
   20.5428    8.1147   53.6756 C   0  0  0  0  0  0  0  0  0  0  0  0
   20.8262    9.4656   53.0966 C   0  0  0  0  0  0  0  0  0  0  0  0
   21.8775    8.7047   53.8551 C   0  0  0  0  0  0  0  0  0  0  0  0
   21.1479    9.5967   51.6293 C   0  0  0  0  0  0  0  0  0  0  0  0
   21.1251    8.4783   50.8176 O   0  0  0  0  0  0  0  0  0  0  0  0
   21.4402   10.6978   51.1064 O   0  0  0  0  0  0  0  0  0  0  0  0
   21.0044    8.4882   49.8336 H   0  0  0  0  0  0  0  0  0  0  0  0
   20.2457    6.9543   52.7889 C   0  0  0  0  0  0  0  0  0  0  0  0
   19.2194    6.0195   53.3760 C   0  0  0  0  0  0  0  0  0  0  0  0
   18.6225    3.6140   53.7650 C   0  0  0  0  0  0  0  0  0  0  0  0
   19.6969    4.5777   53.3369 C   0  0  0  0  0  0  0  0  0  0  0  0
   23.7239    9.3221   55.2398 C   0  0  0  0  0  0  0  0  0  0  0  0
   24.7068    8.2881   55.6219 C   0  0  0  0  0  0  0  0  0  0  0  0
   24.3435    7.1525   54.6673 C   0  0  0  0  0  0  0  0  0  0  0  0
   23.0749    6.5929   54.8266 C   0  0  0  0  0  0  0  0  0  0  0  0
   22.5797    5.6675   53.9315 C   0  0  0  0  0  0  0  0  0  0  0  0
   23.3648    5.3000   52.8663 C   0  0  0  0  0  0  0  0  0  0  0  0
   24.6144    5.8518   52.7153 C   0  0  0  0  0  0  0  0  0  0  0  0
   25.1230    6.7944   53.6295 C   0  0  0  0  0  0  0  0  0  0  0  0
   26.3960    7.3121   53.4585 O   0  0  0  0  0  0  0  0  0  0  0  0
   26.8577    8.2207   54.4080 C   0  0  0  0  0  0  0  0  0  0  0  0
   28.1640    8.7143   54.2878 C   0  0  0  0  0  0  0  0  0  0  0  0
   28.7296    9.5745   55.1894 C   0  0  0  0  0  0  0  0  0  0  0  0
   27.9650    9.9637   56.2616 C   0  0  0  0  0  0  0  0  0  0  0  0
   26.6908    9.5222   56.4287 C   0  0  0  0  0  0  0  0  0  0  0  0
   26.1108    8.6346   55.4820 C   0  0  0  0  0  0  0  0  0  0  0  0
 18 19  1  0  0  0
 19 17  1  0  0  0
 17 16  1  0  0  0
 16  9  1  0  0  0
  9 10  1  0  0  0
 10 11  1  0  0  0
 11  1  1  0  0  0
  1  2  1  0  0  0
  1 20  1  0  0  0
 20 21  1  0  0  0
 21 22  1  0  0  0
 22 23  2  0  0  0
 23 24  1  0  0  0
 24 25  2  0  0  0
 25 26  1  0  0  0
 26 27  2  0  0  0
 27 28  1  0  0  0
 28 29  1  0  0  0
 29 30  2  0  0  0
 30 31  1  0  0  0
 31 32  2  0  0  0
 32 33  1  0  0  0
 33 34  2  0  0  0
  1  5  1  0  0  0
  5  6  1  0  0  0
  5  7  2  0  0  0
 10 12  1  0  0  0
 12 13  1  0  0  0
 12 14  2  0  0  0
 11  9  1  0  0  0
 34 21  1  0  0  0
 27 22  1  0  0  0
 34 29  1  0  0  0
  2  3  1  0  0  0
  2  4  1  0  0  0
  6  8  1  0  0  0
 13 15  1  0  0  0
M  END
> <minimizedAffinity>
12.37125

> <CNNscore>
0.4921978116

> <CNNaffinity>
6.6765885353

> <CNN_VS>
3.2862021923

> <CNNaffinity_variance>
0.3378454149

$$$$
[H]OC(=O)C(N([H])[H])(C([H])([H])C1([H])c2c([H])c([H])c([H])c([H])c2Oc2c([H])c([H])c([H])c([H])c21)[C@]1([H])[C@@]([H])(C(=O)O[H])[C@@]1([H])C([H])([H])C([H])([H])C([H])([H])C([H])([H])[H]


 34 37  0  0  0  0  0  0  0  0999 V2000
   24.6028    7.8709   53.9329 C   0  0  0  0  0  0  0  0  0  0  0  0
   24.9587    8.0765   52.5524 N   0  0  0  0  0  0  0  0  0  0  0  0
   25.4742    8.9452   52.3685 H   0  0  0  0  0  0  0  0  0  0  0  0
   25.3691    7.2299   52.1043 H   0  0  0  0  0  0  0  0  0  0  0  0
   24.3212    6.4345   54.1742 C   0  0  0  0  0  0  0  0  0  0  0  0
   24.2906    5.4712   53.1617 O   0  0  0  0  0  0  0  0  0  0  0  0
   24.0822    5.9867   55.3500 O   0  0  0  0  0  0  0  0  0  0  0  0
   24.2134    5.6789   52.1921 H   0  0  0  0  0  0  0  0  0  0  0  0
   23.1030    9.5729   55.2359 C   0  0  0  0  0  0  0  0  0  0  0  0
   23.2169   10.0742   53.8301 C   0  0  0  0  0  0  0  0  0  0  0  0
   23.2326    8.6031   54.1383 C   0  0  0  0  0  0  0  0  0  0  0  0
   21.9762   10.4996   53.0861 C   0  0  0  0  0  0  0  0  0  0  0  0
   21.5076    9.7334   52.0356 O   0  0  0  0  0  0  0  0  0  0  0  0
   21.3412   11.5377   53.3867 O   0  0  0  0  0  0  0  0  0  0  0  0
   20.5746    9.7318   51.7005 H   0  0  0  0  0  0  0  0  0  0  0  0
   21.8574    9.7940   56.0236 C   0  0  0  0  0  0  0  0  0  0  0  0
   20.6578    9.1070   55.4228 C   0  0  0  0  0  0  0  0  0  0  0  0
   20.3719    7.3117   53.6939 C   0  0  0  0  0  0  0  0  0  0  0  0
   20.9818    7.6781   55.0207 C   0  0  0  0  0  0  0  0  0  0  0  0
   25.5129    8.5465   54.8487 C   0  0  0  0  0  0  0  0  0  0  0  0
   26.9409    8.2923   55.1273 C   0  0  0  0  0  0  0  0  0  0  0  0
   27.6040    8.8685   53.8779 C   0  0  0  0  0  0  0  0  0  0  0  0
   27.3018    8.2370   52.6705 C   0  0  0  0  0  0  0  0  0  0  0  0
   27.7196    8.7567   51.4630 C   0  0  0  0  0  0  0  0  0  0  0  0
   28.4477    9.9212   51.4669 C   0  0  0  0  0  0  0  0  0  0  0  0
   28.7451   10.5378   52.6586 C   0  0  0  0  0  0  0  0  0  0  0  0
   28.3220   10.0074   53.8926 C   0  0  0  0  0  0  0  0  0  0  0  0
   28.6600   10.6433   55.0753 O   0  0  0  0  0  0  0  0  0  0  0  0
   28.2375   10.0596   56.2673 C   0  0  0  0  0  0  0  0  0  0  0  0
   28.6164   10.6536   57.4790 C   0  0  0  0  0  0  0  0  0  0  0  0
   28.2931   10.1368   58.7042 C   0  0  0  0  0  0  0  0  0  0  0  0
   27.5601    8.9759   58.7303 C   0  0  0  0  0  0  0  0  0  0  0  0
   27.1600    8.3572   57.5886 C   0  0  0  0  0  0  0  0  0  0  0  0
   27.4954    8.9069   56.3214 C   0  0  0  0  0  0  0  0  0  0  0  0
 18 19  1  0  0  0
 19 17  1  0  0  0
 17 16  1  0  0  0
 16  9  1  0  0  0
  9 10  1  0  0  0
 10 11  1  0  0  0
 11  1  1  0  0  0
  1  2  1  0  0  0
  1 20  1  0  0  0
 20 21  1  0  0  0
 21 22  1  0  0  0
 22 23  2  0  0  0
 23 24  1  0  0  0
 24 25  2  0  0  0
 25 26  1  0  0  0
 26 27  2  0  0  0
 27 28  1  0  0  0
 28 29  1  0  0  0
 29 30  2  0  0  0
 30 31  1  0  0  0
 31 32  2  0  0  0
 32 33  1  0  0  0
 33 34  2  0  0  0
  1  5  1  0  0  0
  5  6  1  0  0  0
  5  7  2  0  0  0
 10 12  1  0  0  0
 12 13  1  0  0  0
 12 14  2  0  0  0
 11  9  1  0  0  0
 34 21  1  0  0  0
 27 22  1  0  0  0
 34 29  1  0  0  0
  2  3  1  0  0  0
  2  4  1  0  0  0
  6  8  1  0  0  0
 13 15  1  0  0  0
M  END
> <minimizedAffinity>
26.05420

> <CNNscore>
0.4914988577

> <CNNaffinity>
6.2311120033

> <CNN_VS>
3.0625844002

> <CNNaffinity_variance>
0.5382453203

$$$$
[H]OC(=O)C(N([H])[H])(C([H])([H])C1([H])c2c([H])c([H])c([H])c([H])c2Oc2c([H])c([H])c([H])c([H])c21)[C@]1([H])[C@@]([H])(C(=O)O[H])[C@@]1([H])C([H])([H])C([H])([H])C([H])([H])C([H])([H])[H]


 34 37  0  0  0  0  0  0  0  0999 V2000
   23.7500    6.0782   53.0292 C   0  0  0  0  0  0  0  0  0  0  0  0
   23.3423    6.7847   51.8420 N   0  0  0  0  0  0  0  0  0  0  0  0
   23.1798    7.7894   51.9769 H   0  0  0  0  0  0  0  0  0  0  0  0
   23.9203    6.5509   51.0069 H   0  0  0  0  0  0  0  0  0  0  0  0
   24.4147    4.8052   52.6572 C   0  0  0  0  0  0  0  0  0  0  0  0
   24.3442    3.6413   53.4282 O   0  0  0  0  0  0  0  0  0  0  0  0
   25.1085    4.6994   51.5859 O   0  0  0  0  0  0  0  0  0  0  0  0
   24.0616    3.6162   54.3814 H   0  0  0  0  0  0  0  0  0  0  0  0
   22.1082    6.2667   55.0572 C   0  0  0  0  0  0  0  0  0  0  0  0
   21.3572    6.7115   53.8412 C   0  0  0  0  0  0  0  0  0  0  0  0
   22.4269    5.6589   53.7569 C   0  0  0  0  0  0  0  0  0  0  0  0
   19.9787    6.1628   53.5726 C   0  0  0  0  0  0  0  0  0  0  0  0
   18.8886    7.0124   53.5707 O   0  0  0  0  0  0  0  0  0  0  0  0
   19.7773    4.9463   53.3468 O   0  0  0  0  0  0  0  0  0  0  0  0
   18.0278    6.8373   53.1112 H   0  0  0  0  0  0  0  0  0  0  0  0
   21.4078    5.5628   56.1684 C   0  0  0  0  0  0  0  0  0  0  0  0
   22.3062    5.2988   57.3496 C   0  0  0  0  0  0  0  0  0  0  0  0
   23.5727    3.3523   58.2988 C   0  0  0  0  0  0  0  0  0  0  0  0
   23.2746    4.1631   57.0658 C   0  0  0  0  0  0  0  0  0  0  0  0
   24.4286    6.9430   53.9859 C   0  0  0  0  0  0  0  0  0  0  0  0
   24.9384    8.3198   53.8254 C   0  0  0  0  0  0  0  0  0  0  0  0
   23.7215    9.1467   54.2357 C   0  0  0  0  0  0  0  0  0  0  0  0
   22.5920    9.0291   53.4243 C   0  0  0  0  0  0  0  0  0  0  0  0
   21.3905    9.6080   53.7762 C   0  0  0  0  0  0  0  0  0  0  0  0
   21.3214   10.3116   54.9537 C   0  0  0  0  0  0  0  0  0  0  0  0
   22.4371   10.4269   55.7479 C   0  0  0  0  0  0  0  0  0  0  0  0
   23.6654    9.8392   55.3891 C   0  0  0  0  0  0  0  0  0  0  0  0
   24.7751    9.9956   56.2025 O   0  0  0  0  0  0  0  0  0  0  0  0
   25.9704    9.4152   55.7849 C   0  0  0  0  0  0  0  0  0  0  0  0
   27.1204    9.6085   56.5625 C   0  0  0  0  0  0  0  0  0  0  0  0
   28.3520    9.1206   56.2194 C   0  0  0  0  0  0  0  0  0  0  0  0
   28.4492    8.4077   55.0497 C   0  0  0  0  0  0  0  0  0  0  0  0
   27.3685    8.1838   54.2571 C   0  0  0  0  0  0  0  0  0  0  0  0
   26.0924    8.6892   54.6271 C   0  0  0  0  0  0  0  0  0  0  0  0
 18 19  1  0  0  0
 19 17  1  0  0  0
 17 16  1  0  0  0
 16  9  1  0  0  0
  9 10  1  0  0  0
 10 11  1  0  0  0
 11  1  1  0  0  0
  1  2  1  0  0  0
  1 20  1  0  0  0
 20 21  1  0  0  0
 21 22  1  0  0  0
 22 23  2  0  0  0
 23 24  1  0  0  0
 24 25  2  0  0  0
 25 26  1  0  0  0
 26 27  2  0  0  0
 27 28  1  0  0  0
 28 29  1  0  0  0
 29 30  2  0  0  0
 30 31  1  0  0  0
 31 32  2  0  0  0
 32 33  1  0  0  0
 33 34  2  0  0  0
  1  5  1  0  0  0
  5  6  1  0  0  0
  5  7  2  0  0  0
 10 12  1  0  0  0
 12 13  1  0  0  0
 12 14  2  0  0  0
 11  9  1  0  0  0
 34 21  1  0  0  0
 27 22  1  0  0  0
 34 29  1  0  0  0
  2  3  1  0  0  0
  2  4  1  0  0  0
  6  8  1  0  0  0
 13 15  1  0  0  0
M  END
> <minimizedAffinity>
21.72247

> <CNNscore>
0.4882622957

> <CNNaffinity>
6.5107283592

> <CNN_VS>
3.1789431572

> <CNNaffinity_variance>
0.8266369104

$$$$
[H]OC(=O)C(N([H])[H])(C([H])([H])C1([H])c2c([H])c([H])c([H])c([H])c2Oc2c([H])c([H])c([H])c([H])c21)[C@]1([H])[C@@]([H])(C(=O)O[H])[C@@]1([H])C([H])([H])C([H])([H])C([H])([H])C([H])([H])[H]


 34 37  0  0  0  0  0  0  0  0999 V2000
   24.0658    6.5157   53.1598 C   0  0  0  0  0  0  0  0  0  0  0  0
   23.9071    7.1850   51.8943 N   0  0  0  0  0  0  0  0  0  0  0  0
   24.1229    8.1886   51.9114 H   0  0  0  0  0  0  0  0  0  0  0  0
   24.3371    6.6662   51.0993 H   0  0  0  0  0  0  0  0  0  0  0  0
   24.2141    5.0554   52.9447 C   0  0  0  0  0  0  0  0  0  0  0  0
   23.7921    4.0909   53.8643 O   0  0  0  0  0  0  0  0  0  0  0  0
   24.7519    4.5857   51.8815 O   0  0  0  0  0  0  0  0  0  0  0  0
   23.5844    4.2789   54.8187 H   0  0  0  0  0  0  0  0  0  0  0  0
   21.6311    5.7093   53.6757 C   0  0  0  0  0  0  0  0  0  0  0  0
   22.3927    5.6590   54.9634 C   0  0  0  0  0  0  0  0  0  0  0  0
   22.7022    6.6884   53.9126 C   0  0  0  0  0  0  0  0  0  0  0  0
   21.7938    6.2614   56.2093 C   0  0  0  0  0  0  0  0  0  0  0  0
   21.3580    7.5729   56.1981 O   0  0  0  0  0  0  0  0  0  0  0  0
   21.6727    5.6098   57.2733 O   0  0  0  0  0  0  0  0  0  0  0  0
   20.6870    7.9579   56.8181 H   0  0  0  0  0  0  0  0  0  0  0  0
   20.1771    6.0358   53.6644 C   0  0  0  0  0  0  0  0  0  0  0  0
   19.8849    7.3746   53.0365 C   0  0  0  0  0  0  0  0  0  0  0  0
   20.7847    8.8687   51.2331 C   0  0  0  0  0  0  0  0  0  0  0  0
   20.4390    7.4566   51.6242 C   0  0  0  0  0  0  0  0  0  0  0  0
   25.0384    7.1764   54.0206 C   0  0  0  0  0  0  0  0  0  0  0  0
   25.4747    8.5870   54.0517 C   0  0  0  0  0  0  0  0  0  0  0  0
   24.1801    9.2996   54.4377 C   0  0  0  0  0  0  0  0  0  0  0  0
   23.1304    9.2137   53.5219 C   0  0  0  0  0  0  0  0  0  0  0  0
   21.8709    9.6874   53.8253 C   0  0  0  0  0  0  0  0  0  0  0  0
   21.6624   10.2526   55.0595 C   0  0  0  0  0  0  0  0  0  0  0  0
   22.6999   10.3373   55.9569 C   0  0  0  0  0  0  0  0  0  0  0  0
   23.9872    9.8570   55.6480 C   0  0  0  0  0  0  0  0  0  0  0  0
   25.0146    9.9802   56.5682 O   0  0  0  0  0  0  0  0  0  0  0  0
   26.2734    9.5120   56.1990 C   0  0  0  0  0  0  0  0  0  0  0  0
   27.3416    9.6778   57.0912 C   0  0  0  0  0  0  0  0  0  0  0  0
   28.6247    9.2950   56.8087 C   0  0  0  0  0  0  0  0  0  0  0  0
   28.8610    8.7213   55.5837 C   0  0  0  0  0  0  0  0  0  0  0  0
   27.8648    8.5303   54.6795 C   0  0  0  0  0  0  0  0  0  0  0  0
   26.5342    8.9251   54.9865 C   0  0  0  0  0  0  0  0  0  0  0  0
 18 19  1  0  0  0
 19 17  1  0  0  0
 17 16  1  0  0  0
 16  9  1  0  0  0
  9 10  1  0  0  0
 10 11  1  0  0  0
 11  1  1  0  0  0
  1  2  1  0  0  0
  1 20  1  0  0  0
 20 21  1  0  0  0
 21 22  1  0  0  0
 22 23  2  0  0  0
 23 24  1  0  0  0
 24 25  2  0  0  0
 25 26  1  0  0  0
 26 27  2  0  0  0
 27 28  1  0  0  0
 28 29  1  0  0  0
 29 30  2  0  0  0
 30 31  1  0  0  0
 31 32  2  0  0  0
 32 33  1  0  0  0
 33 34  2  0  0  0
  1  5  1  0  0  0
  5  6  1  0  0  0
  5  7  2  0  0  0
 10 12  1  0  0  0
 12 13  1  0  0  0
 12 14  2  0  0  0
 11  9  1  0  0  0
 34 21  1  0  0  0
 27 22  1  0  0  0
 34 29  1  0  0  0
  2  3  1  0  0  0
  2  4  1  0  0  0
  6  8  1  0  0  0
 13 15  1  0  0  0
M  END
> <minimizedAffinity>
16.73666

> <CNNscore>
0.4827278852

> <CNNaffinity>
6.4922280312

> <CNN_VS>
3.1339795589

> <CNNaffinity_variance>
0.4704005122

$$$$
[H]OC(=O)C(N([H])[H])(C([H])([H])C1([H])c2c([H])c([H])c([H])c([H])c2Oc2c([H])c([H])c([H])c([H])c21)[C@]1([H])[C@@]([H])(C(=O)O[H])[C@@]1([H])C([H])([H])C([H])([H])C([H])([H])C([H])([H])[H]


 34 37  0  0  0  0  0  0  0  0999 V2000
   23.3190    6.3686   53.6178 C   0  0  0  0  0  0  0  0  0  0  0  0
   23.3715    5.0442   53.0540 N   0  0  0  0  0  0  0  0  0  0  0  0
   23.6031    5.0140   52.0542 H   0  0  0  0  0  0  0  0  0  0  0  0
   23.9082    4.3700   53.6402 H   0  0  0  0  0  0  0  0  0  0  0  0
   23.4682    6.2972   55.0920 C   0  0  0  0  0  0  0  0  0  0  0  0
   22.3982    6.4101   55.9845 O   0  0  0  0  0  0  0  0  0  0  0  0
   24.6120    6.1269   55.6425 O   0  0  0  0  0  0  0  0  0  0  0  0
   21.5058    6.7790   55.7464 H   0  0  0  0  0  0  0  0  0  0  0  0
   21.4030    7.0932   51.9905 C   0  0  0  0  0  0  0  0  0  0  0  0
   20.9081    5.9012   52.7486 C   0  0  0  0  0  0  0  0  0  0  0  0
   21.8594    6.8838   53.3724 C   0  0  0  0  0  0  0  0  0  0  0  0
   19.5399    5.9341   53.3816 C   0  0  0  0  0  0  0  0  0  0  0  0
   18.9536    7.1471   53.6897 O   0  0  0  0  0  0  0  0  0  0  0  0
   18.9013    4.8879   53.6442 O   0  0  0  0  0  0  0  0  0  0  0  0
   17.9803    7.3004   53.7995 H   0  0  0  0  0  0  0  0  0  0  0  0
   20.4628    8.1689   51.5665 C   0  0  0  0  0  0  0  0  0  0  0  0
   21.1675    9.3488   50.9475 C   0  0  0  0  0  0  0  0  0  0  0  0
   21.4767   11.8289   51.1661 C   0  0  0  0  0  0  0  0  0  0  0  0
   21.1816   10.5415   51.8887 C   0  0  0  0  0  0  0  0  0  0  0  0
   24.1607    7.3144   52.8963 C   0  0  0  0  0  0  0  0  0  0  0  0
   24.6430    8.6520   53.2955 C   0  0  0  0  0  0  0  0  0  0  0  0
   23.5062    9.1314   54.1958 C   0  0  0  0  0  0  0  0  0  0  0  0
   22.2647    9.3078   53.5831 C   0  0  0  0  0  0  0  0  0  0  0  0
   21.1334    9.5918   54.3194 C   0  0  0  0  0  0  0  0  0  0  0  0
   21.2486    9.6997   55.6837 C   0  0  0  0  0  0  0  0  0  0  0  0
   22.4739    9.5279   56.2821 C   0  0  0  0  0  0  0  0  0  0  0  0
   23.6306    9.2408   55.5320 C   0  0  0  0  0  0  0  0  0  0  0  0
   24.8529    9.0970   56.1666 O   0  0  0  0  0  0  0  0  0  0  0  0
   25.9679    8.8402   55.3724 C   0  0  0  0  0  0  0  0  0  0  0  0
   27.2247    8.7478   55.9861 C   0  0  0  0  0  0  0  0  0  0  0  0
   28.3873    8.5434   55.2938 C   0  0  0  0  0  0  0  0  0  0  0  0
   28.3009    8.4256   53.9284 C   0  0  0  0  0  0  0  0  0  0  0  0
   27.1102    8.5018   53.2781 C   0  0  0  0  0  0  0  0  0  0  0  0
   25.9079    8.7070   54.0081 C   0  0  0  0  0  0  0  0  0  0  0  0
 18 19  1  0  0  0
 19 17  1  0  0  0
 17 16  1  0  0  0
 16  9  1  0  0  0
  9 10  1  0  0  0
 10 11  1  0  0  0
 11  1  1  0  0  0
  1  2  1  0  0  0
  1 20  1  0  0  0
 20 21  1  0  0  0
 21 22  1  0  0  0
 22 23  2  0  0  0
 23 24  1  0  0  0
 24 25  2  0  0  0
 25 26  1  0  0  0
 26 27  2  0  0  0
 27 28  1  0  0  0
 28 29  1  0  0  0
 29 30  2  0  0  0
 30 31  1  0  0  0
 31 32  2  0  0  0
 32 33  1  0  0  0
 33 34  2  0  0  0
  1  5  1  0  0  0
  5  6  1  0  0  0
  5  7  2  0  0  0
 10 12  1  0  0  0
 12 13  1  0  0  0
 12 14  2  0  0  0
 11  9  1  0  0  0
 34 21  1  0  0  0
 27 22  1  0  0  0
 34 29  1  0  0  0
  2  3  1  0  0  0
  2  4  1  0  0  0
  6  8  1  0  0  0
 13 15  1  0  0  0
M  END
> <minimizedAffinity>
10.05788

> <CNNscore>
0.4824780822

> <CNNaffinity>
6.7373609543

> <CNN_VS>
3.2506289482

> <CNNaffinity_variance>
0.4015962481

$$$$
[H]OC(=O)C(N([H])[H])(C([H])([H])C1([H])c2c([H])c([H])c([H])c([H])c2Oc2c([H])c([H])c([H])c([H])c21)[C@]1([H])[C@@]([H])(C(=O)O[H])[C@@]1([H])C([H])([H])C([H])([H])C([H])([H])C([H])([H])[H]


 34 37  0  0  0  0  0  0  0  0999 V2000
   23.4815    6.2702   53.3441 C   0  0  0  0  0  0  0  0  0  0  0  0
   24.2452    5.0937   53.0159 N   0  0  0  0  0  0  0  0  0  0  0  0
   24.6138    5.0767   52.0579 H   0  0  0  0  0  0  0  0  0  0  0  0
   24.9407    4.8388   53.7489 H   0  0  0  0  0  0  0  0  0  0  0  0
   23.4179    6.4375   54.8167 C   0  0  0  0  0  0  0  0  0  0  0  0
   22.3424    7.0331   55.4821 O   0  0  0  0  0  0  0  0  0  0  0  0
   24.3674    6.0393   55.5783 O   0  0  0  0  0  0  0  0  0  0  0  0
   21.6549    7.6008   55.0411 H   0  0  0  0  0  0  0  0  0  0  0  0
   21.1666    5.1224   53.7536 C   0  0  0  0  0  0  0  0  0  0  0  0
   20.9254    6.5994   53.7227 C   0  0  0  0  0  0  0  0  0  0  0  0
   22.0105    5.9678   52.8963 C   0  0  0  0  0  0  0  0  0  0  0  0
   19.8033    7.1554   52.8827 C   0  0  0  0  0  0  0  0  0  0  0  0
   18.5266    7.2349   53.4060 O   0  0  0  0  0  0  0  0  0  0  0  0
   19.9843    7.5557   51.7087 O   0  0  0  0  0  0  0  0  0  0  0  0
   17.8152    7.8476   53.0878 H   0  0  0  0  0  0  0  0  0  0  0  0
   20.1352    4.1727   53.2485 C   0  0  0  0  0  0  0  0  0  0  0  0
   19.0817    3.8541   54.2783 C   0  0  0  0  0  0  0  0  0  0  0  0
   16.5882    4.0035   54.5111 C   0  0  0  0  0  0  0  0  0  0  0  0
   17.7346    3.5876   53.6283 C   0  0  0  0  0  0  0  0  0  0  0  0
   23.8702    7.4262   52.5466 C   0  0  0  0  0  0  0  0  0  0  0  0
   24.4561    8.7153   52.9666 C   0  0  0  0  0  0  0  0  0  0  0  0
   23.2883    9.3525   53.7170 C   0  0  0  0  0  0  0  0  0  0  0  0
   22.1525    9.6440   52.9602 C   0  0  0  0  0  0  0  0  0  0  0  0
   20.9860   10.0804   53.5530 C   0  0  0  0  0  0  0  0  0  0  0  0
   20.9587   10.2256   54.9184 C   0  0  0  0  0  0  0  0  0  0  0  0
   22.0806    9.9399   55.6591 C   0  0  0  0  0  0  0  0  0  0  0  0
   23.2733    9.4971   55.0555 C   0  0  0  0  0  0  0  0  0  0  0  0
   24.3916    9.2409   55.8311 O   0  0  0  0  0  0  0  0  0  0  0  0
   25.5516    8.8311   55.1781 C   0  0  0  0  0  0  0  0  0  0  0  0
   26.7122    8.6213   55.9356 C   0  0  0  0  0  0  0  0  0  0  0  0
   27.9138    8.2621   55.3881 C   0  0  0  0  0  0  0  0  0  0  0  0
   27.9686    8.1039   54.0252 C   0  0  0  0  0  0  0  0  0  0  0  0
   26.8755    8.2887   53.2394 C   0  0  0  0  0  0  0  0  0  0  0  0
   25.6306    8.6547   53.8197 C   0  0  0  0  0  0  0  0  0  0  0  0
 18 19  1  0  0  0
 19 17  1  0  0  0
 17 16  1  0  0  0
 16  9  1  0  0  0
  9 10  1  0  0  0
 10 11  1  0  0  0
 11  1  1  0  0  0
  1  2  1  0  0  0
  1 20  1  0  0  0
 20 21  1  0  0  0
 21 22  1  0  0  0
 22 23  2  0  0  0
 23 24  1  0  0  0
 24 25  2  0  0  0
 25 26  1  0  0  0
 26 27  2  0  0  0
 27 28  1  0  0  0
 28 29  1  0  0  0
 29 30  2  0  0  0
 30 31  1  0  0  0
 31 32  2  0  0  0
 32 33  1  0  0  0
 33 34  2  0  0  0
  1  5  1  0  0  0
  5  6  1  0  0  0
  5  7  2  0  0  0
 10 12  1  0  0  0
 12 13  1  0  0  0
 12 14  2  0  0  0
 11  9  1  0  0  0
 34 21  1  0  0  0
 27 22  1  0  0  0
 34 29  1  0  0  0
  2  3  1  0  0  0
  2  4  1  0  0  0
  6  8  1  0  0  0
 13 15  1  0  0  0
M  END
> <minimizedAffinity>
11.42311

> <CNNscore>
0.4741473794

> <CNNaffinity>
6.6024718285

> <CNN_VS>
3.1305446625

> <CNNaffinity_variance>
0.3956209123

$$$$
[H]OC(=O)C(N([H])[H])(C([H])([H])C1([H])c2c([H])c([H])c([H])c([H])c2Oc2c([H])c([H])c([H])c([H])c21)[C@]1([H])[C@@]([H])(C(=O)O[H])[C@@]1([H])C([H])([H])C([H])([H])C([H])([H])C([H])([H])[H]


 34 37  0  0  0  0  0  0  0  0999 V2000
   21.9459    8.9668   55.5509 C   0  0  0  0  0  0  0  0  0  0  0  0
   21.4357    8.0125   56.5016 N   0  0  0  0  0  0  0  0  0  0  0  0
   22.0924    7.2634   56.7499 H   0  0  0  0  0  0  0  0  0  0  0  0
   20.9637    8.4583   57.3168 H   0  0  0  0  0  0  0  0  0  0  0  0
   21.1637   10.2249   55.6274 C   0  0  0  0  0  0  0  0  0  0  0  0
   21.5275   11.4036   54.9697 O   0  0  0  0  0  0  0  0  0  0  0  0
   20.0881   10.3045   56.3181 O   0  0  0  0  0  0  0  0  0  0  0  0
   22.4338   11.5836   54.6016 H   0  0  0  0  0  0  0  0  0  0  0  0
   20.3403    7.7176   53.9061 C   0  0  0  0  0  0  0  0  0  0  0  0
   20.5801    9.0805   53.3356 C   0  0  0  0  0  0  0  0  0  0  0  0
   21.6373    8.3711   54.1346 C   0  0  0  0  0  0  0  0  0  0  0  0
   20.9501    9.2267   51.8812 C   0  0  0  0  0  0  0  0  0  0  0  0
   20.6861    8.1975   50.9974 O   0  0  0  0  0  0  0  0  0  0  0  0
   21.4969   10.2618   51.4329 O   0  0  0  0  0  0  0  0  0  0  0  0
   20.5889    8.2972   50.0159 H   0  0  0  0  0  0  0  0  0  0  0  0
   20.1329    6.5442   53.0111 C   0  0  0  0  0  0  0  0  0  0  0  0
   20.5947    5.2498   53.6301 C   0  0  0  0  0  0  0  0  0  0  0  0
   18.4692    3.9692   53.9998 C   0  0  0  0  0  0  0  0  0  0  0  0
   19.7295    4.0831   53.1842 C   0  0  0  0  0  0  0  0  0  0  0  0
   23.3991    9.0686   55.5898 C   0  0  0  0  0  0  0  0  0  0  0  0
   24.3829    9.0323   54.4889 C   0  0  0  0  0  0  0  0  0  0  0  0
   25.6988    9.1865   55.2487 C   0  0  0  0  0  0  0  0  0  0  0  0
   25.8838   10.3927   55.9262 C   0  0  0  0  0  0  0  0  0  0  0  0
   26.9608   10.5879   56.7657 C   0  0  0  0  0  0  0  0  0  0  0  0
   27.8607    9.5632   56.9272 C   0  0  0  0  0  0  0  0  0  0  0  0
   27.6756    8.3783   56.2559 C   0  0  0  0  0  0  0  0  0  0  0  0
   26.5785    8.1780   55.3961 C   0  0  0  0  0  0  0  0  0  0  0  0
   26.4365    6.9791   54.7178 O   0  0  0  0  0  0  0  0  0  0  0  0
   25.3470    6.8461   53.8602 C   0  0  0  0  0  0  0  0  0  0  0  0
   25.2139    5.6637   53.1193 C   0  0  0  0  0  0  0  0  0  0  0  0
   24.2075    5.4500   52.2170 C   0  0  0  0  0  0  0  0  0  0  0  0
   23.2896    6.4558   52.0397 C   0  0  0  0  0  0  0  0  0  0  0  0
   23.3641    7.6221   52.7328 C   0  0  0  0  0  0  0  0  0  0  0  0
   24.4097    7.8304   53.6730 C   0  0  0  0  0  0  0  0  0  0  0  0
 18 19  1  0  0  0
 19 17  1  0  0  0
 17 16  1  0  0  0
 16  9  1  0  0  0
  9 10  1  0  0  0
 10 11  1  0  0  0
 11  1  1  0  0  0
  1  2  1  0  0  0
  1 20  1  0  0  0
 20 21  1  0  0  0
 21 22  1  0  0  0
 22 23  2  0  0  0
 23 24  1  0  0  0
 24 25  2  0  0  0
 25 26  1  0  0  0
 26 27  2  0  0  0
 27 28  1  0  0  0
 28 29  1  0  0  0
 29 30  2  0  0  0
 30 31  1  0  0  0
 31 32  2  0  0  0
 32 33  1  0  0  0
 33 34  2  0  0  0
  1  5  1  0  0  0
  5  6  1  0  0  0
  5  7  2  0  0  0
 10 12  1  0  0  0
 12 13  1  0  0  0
 12 14  2  0  0  0
 11  9  1  0  0  0
 34 21  1  0  0  0
 27 22  1  0  0  0
 34 29  1  0  0  0
  2  3  1  0  0  0
  2  4  1  0  0  0
  6  8  1  0  0  0
 13 15  1  0  0  0
M  END
> <minimizedAffinity>
22.02823

> <CNNscore>
0.4686234593

> <CNNaffinity>
6.4865860939

> <CNN_VS>
3.0397663116

> <CNNaffinity_variance>
0.5705059171

$$$$
[H]c1nc([H])c(-c2c([H])c([H])c3c(=O)n(C([H])([H])[H])c4c([H])c(-c5c([H])c([H])c(F)c([H])c5[H])nn4c3c2[H])c([H])c1[H]


 28 32  0  0  0  0  0  0  0  0999 V2000
   22.1592   11.4926   51.9634 C   0  0  0  0  0  0  0  0  0  0  0  0
   21.9047   10.1085   52.3159 N   0  0  0  0  0  0  0  0  0  0  0  0
   22.7906    9.4478   53.0920 C   0  0  0  0  0  0  0  0  0  0  0  0
   23.9961    9.8550   53.6654 C   0  0  0  0  0  0  0  0  0  0  0  0
   24.5213    8.7939   54.3709 C   0  0  0  0  0  0  0  0  0  0  0  0
   23.6648    7.7880   54.2270 N   0  0  0  0  0  0  0  0  0  0  0  0
   22.6341    8.1696   53.4681 N   0  0  0  0  0  0  0  0  0  0  0  0
   21.5269    7.5305   53.0365 C   0  0  0  0  0  0  0  0  0  0  0  0
   21.3047    6.2387   53.3759 C   0  0  0  0  0  0  0  0  0  0  0  0
   20.1819    5.5086   52.9663 C   0  0  0  0  0  0  0  0  0  0  0  0
   19.2752    6.1800   52.1733 C   0  0  0  0  0  0  0  0  0  0  0  0
   19.4689    7.5063   51.8044 C   0  0  0  0  0  0  0  0  0  0  0  0
   20.5959    8.1735   52.2398 C   0  0  0  0  0  0  0  0  0  0  0  0
   20.7885    9.4719   51.8782 C   0  0  0  0  0  0  0  0  0  0  0  0
   20.0039   10.1324   51.1629 O   0  0  0  0  0  0  0  0  0  0  0  0
   25.7890    8.8266   55.1195 C   0  0  0  0  0  0  0  0  0  0  0  0
   25.8394    9.2856   56.4178 C   0  0  0  0  0  0  0  0  0  0  0  0
   27.0270    9.3207   57.1383 C   0  0  0  0  0  0  0  0  0  0  0  0
   28.2105    8.8859   56.5533 C   0  0  0  0  0  0  0  0  0  0  0  0
   29.3595    8.9321   57.2896 F   0  0  0  0  0  0  0  0  0  0  0  0
   28.1686    8.4277   55.2606 C   0  0  0  0  0  0  0  0  0  0  0  0
   26.9812    8.4023   54.5679 C   0  0  0  0  0  0  0  0  0  0  0  0
   20.0124    4.1157   53.3742 C   0  0  0  0  0  0  0  0  0  0  0  0
   20.5212    3.0746   52.6055 C   0  0  0  0  0  0  0  0  0  0  0  0
   20.3573    1.7587   52.9896 C   0  0  0  0  0  0  0  0  0  0  0  0
   19.6824    1.4413   54.1499 C   0  0  0  0  0  0  0  0  0  0  0  0
   19.1946    2.4525   54.8857 N   0  0  0  0  0  0  0  0  0  0  0  0
   19.3438    3.7592   54.5267 C   0  0  0  0  0  0  0  0  0  0  0  0
  1  2  1  0  0  0
  2  3  1  0  0  0
  3  4  2  0  0  0
  4  5  1  0  0  0
  5  6  2  0  0  0
  6  7  1  0  0  0
  7  8  1  0  0  0
  8  9  2  0  0  0
  9 10  1  0  0  0
 10 11  2  0  0  0
 11 12  1  0  0  0
 12 13  2  0  0  0
 13 14  1  0  0  0
 14 15  2  0  0  0
 10 23  1  0  0  0
 23 24  2  0  0  0
 24 25  1  0  0  0
 25 26  2  0  0  0
 26 27  1  0  0  0
 27 28  2  0  0  0
  5 16  1  0  0  0
 16 17  2  0  0  0
 17 18  1  0  0  0
 18 19  2  0  0  0
 19 20  1  0  0  0
 19 21  1  0  0  0
 21 22  2  0  0  0
 14  2  1  0  0  0
 28 23  1  0  0  0
 22 16  1  0  0  0
  7  3  1  0  0  0
 13  8  1  0  0  0
M  END
> <minimizedAffinity>
47.64800

> <CNNscore>
0.4575722218

> <CNNaffinity>
6.3160362244

> <CNN_VS>
2.8900427818

> <CNNaffinity_variance>
0.9256939888

$$$$
[H]c1nc([H])c(-c2c([H])c([H])c3c(=O)n(C([H])([H])[H])c4c([H])c(-c5c([H])c([H])c(F)c([H])c5[H])nn4c3c2[H])c([H])c1[H]


 28 32  0  0  0  0  0  0  0  0999 V2000
   20.1285    5.7868   52.7161 C   0  0  0  0  0  0  0  0  0  0  0  0
   21.3540    6.4475   53.1238 N   0  0  0  0  0  0  0  0  0  0  0  0
   21.5902    7.7148   52.7212 C   0  0  0  0  0  0  0  0  0  0  0  0
   20.8398    8.5844   51.9286 C   0  0  0  0  0  0  0  0  0  0  0  0
   21.5298    9.7721   51.8145 C   0  0  0  0  0  0  0  0  0  0  0  0
   22.6514    9.6220   52.5114 N   0  0  0  0  0  0  0  0  0  0  0  0
   22.6938    8.4018   53.0528 N   0  0  0  0  0  0  0  0  0  0  0  0
   23.6015    7.7739   53.8291 C   0  0  0  0  0  0  0  0  0  0  0  0
   24.7396    8.4060   54.2011 C   0  0  0  0  0  0  0  0  0  0  0  0
   25.7280    7.8213   55.0027 C   0  0  0  0  0  0  0  0  0  0  0  0
   25.4904    6.5271   55.4154 C   0  0  0  0  0  0  0  0  0  0  0  0
   24.3337    5.8459   55.0540 C   0  0  0  0  0  0  0  0  0  0  0  0
   23.3954    6.4758   54.2617 C   0  0  0  0  0  0  0  0  0  0  0  0
   22.2627    5.8099   53.9051 C   0  0  0  0  0  0  0  0  0  0  0  0
   21.9916    4.6382   54.2475 O   0  0  0  0  0  0  0  0  0  0  0  0
   21.0653   10.9450   51.0548 C   0  0  0  0  0  0  0  0  0  0  0  0
   20.0991   10.8267   50.0794 C   0  0  0  0  0  0  0  0  0  0  0  0
   19.6487   11.9239   49.3556 C   0  0  0  0  0  0  0  0  0  0  0  0
   20.1735   13.1866   49.6048 C   0  0  0  0  0  0  0  0  0  0  0  0
   19.7076   14.2437   48.8768 F   0  0  0  0  0  0  0  0  0  0  0  0
   21.1362   13.3126   50.5743 C   0  0  0  0  0  0  0  0  0  0  0  0
   21.5658   12.2121   51.2776 C   0  0  0  0  0  0  0  0  0  0  0  0
   26.9312    8.5687   55.3621 C   0  0  0  0  0  0  0  0  0  0  0  0
   27.0057    9.2813   56.5539 C   0  0  0  0  0  0  0  0  0  0  0  0
   28.1413    9.9903   56.8909 C   0  0  0  0  0  0  0  0  0  0  0  0
   29.2356   10.0102   56.0514 C   0  0  0  0  0  0  0  0  0  0  0  0
   29.1549    9.3196   54.9031 N   0  0  0  0  0  0  0  0  0  0  0  0
   28.0444    8.6126   54.5490 C   0  0  0  0  0  0  0  0  0  0  0  0
  1  2  1  0  0  0
  2  3  1  0  0  0
  3  4  2  0  0  0
  4  5  1  0  0  0
  5  6  2  0  0  0
  6  7  1  0  0  0
  7  8  1  0  0  0
  8  9  2  0  0  0
  9 10  1  0  0  0
 10 11  2  0  0  0
 11 12  1  0  0  0
 12 13  2  0  0  0
 13 14  1  0  0  0
 14 15  2  0  0  0
 10 23  1  0  0  0
 23 24  2  0  0  0
 24 25  1  0  0  0
 25 26  2  0  0  0
 26 27  1  0  0  0
 27 28  2  0  0  0
  5 16  1  0  0  0
 16 17  2  0  0  0
 17 18  1  0  0  0
 18 19  2  0  0  0
 19 20  1  0  0  0
 19 21  1  0  0  0
 21 22  2  0  0  0
 14  2  1  0  0  0
 28 23  1  0  0  0
 22 16  1  0  0  0
  7  3  1  0  0  0
 13  8  1  0  0  0
M  END
> <minimizedAffinity>
43.12485

> <CNNscore>
0.4293476343

> <CNNaffinity>
6.2075982094

> <CNN_VS>
2.6652176380

> <CNNaffinity_variance>
0.6917943954

$$$$
[H]c1nc([H])c(-c2c([H])c([H])c3c(=O)n(C([H])([H])[H])c4c([H])c(-c5c([H])c([H])c(F)c([H])c5[H])nn4c3c2[H])c([H])c1[H]


 28 32  0  0  0  0  0  0  0  0999 V2000
   26.4807    8.6525   57.2135 C   0  0  0  0  0  0  0  0  0  0  0  0
   26.7038    8.8112   55.7888 N   0  0  0  0  0  0  0  0  0  0  0  0
   25.7424    8.4307   54.9202 C   0  0  0  0  0  0  0  0  0  0  0  0
   24.4821    7.8690   55.1291 C   0  0  0  0  0  0  0  0  0  0  0  0
   23.8891    7.6648   53.9018 C   0  0  0  0  0  0  0  0  0  0  0  0
   24.7593    8.0873   52.9906 N   0  0  0  0  0  0  0  0  0  0  0  0
   25.8629    8.5437   53.5888 N   0  0  0  0  0  0  0  0  0  0  0  0
   27.0131    9.0668   53.1154 C   0  0  0  0  0  0  0  0  0  0  0  0
   27.2043    9.2087   51.7825 C   0  0  0  0  0  0  0  0  0  0  0  0
   28.3692    9.7408   51.2158 C   0  0  0  0  0  0  0  0  0  0  0  0
   29.3534   10.1301   52.0999 C   0  0  0  0  0  0  0  0  0  0  0  0
   29.1933   10.0002   53.4747 C   0  0  0  0  0  0  0  0  0  0  0  0
   28.0216    9.4684   53.9736 C   0  0  0  0  0  0  0  0  0  0  0  0
   27.8634    9.3386   55.3197 C   0  0  0  0  0  0  0  0  0  0  0  0
   28.7176    9.6730   56.1693 O   0  0  0  0  0  0  0  0  0  0  0  0
   22.5496    7.0871   53.7006 C   0  0  0  0  0  0  0  0  0  0  0  0
   22.3095    5.7481   53.9205 C   0  0  0  0  0  0  0  0  0  0  0  0
   21.0510    5.1883   53.7373 C   0  0  0  0  0  0  0  0  0  0  0  0
   19.9889    5.9820   53.3204 C   0  0  0  0  0  0  0  0  0  0  0  0
   18.7649    5.4007   53.1517 F   0  0  0  0  0  0  0  0  0  0  0  0
   20.2200    7.3163   53.0989 C   0  0  0  0  0  0  0  0  0  0  0  0
   21.4741    7.8474   53.2872 C   0  0  0  0  0  0  0  0  0  0  0  0
   28.5014    9.8618   49.7655 C   0  0  0  0  0  0  0  0  0  0  0  0
   28.5702   11.1075   49.1514 C   0  0  0  0  0  0  0  0  0  0  0  0
   28.6913   11.2210   47.7809 C   0  0  0  0  0  0  0  0  0  0  0  0
   28.7476   10.0977   46.9823 C   0  0  0  0  0  0  0  0  0  0  0  0
   28.6804    8.8994   47.5835 N   0  0  0  0  0  0  0  0  0  0  0  0
   28.5606    8.7625   48.9346 C   0  0  0  0  0  0  0  0  0  0  0  0
  1  2  1  0  0  0
  2  3  1  0  0  0
  3  4  2  0  0  0
  4  5  1  0  0  0
  5  6  2  0  0  0
  6  7  1  0  0  0
  7  8  1  0  0  0
  8  9  2  0  0  0
  9 10  1  0  0  0
 10 11  2  0  0  0
 11 12  1  0  0  0
 12 13  2  0  0  0
 13 14  1  0  0  0
 14 15  2  0  0  0
 10 23  1  0  0  0
 23 24  2  0  0  0
 24 25  1  0  0  0
 25 26  2  0  0  0
 26 27  1  0  0  0
 27 28  2  0  0  0
  5 16  1  0  0  0
 16 17  2  0  0  0
 17 18  1  0  0  0
 18 19  2  0  0  0
 19 20  1  0  0  0
 19 21  1  0  0  0
 21 22  2  0  0  0
 14  2  1  0  0  0
 28 23  1  0  0  0
 22 16  1  0  0  0
  7  3  1  0  0  0
 13  8  1  0  0  0
M  END
> <minimizedAffinity>
37.48709

> <CNNscore>
0.4199814498

> <CNNaffinity>
5.7614946365

> <CNN_VS>
2.4197208881

> <CNNaffinity_variance>
0.1762356460

$$$$
[H]c1nc([H])c(-c2c([H])c([H])c3c(=O)n(C([H])([H])[H])c4c([H])c(-c5c([H])c([H])c(F)c([H])c5[H])nn4c3c2[H])c([H])c1[H]


 28 32  0  0  0  0  0  0  0  0999 V2000
   24.0411    4.5503   55.4951 C   0  0  0  0  0  0  0  0  0  0  0  0
   23.4707    5.7007   54.8199 N   0  0  0  0  0  0  0  0  0  0  0  0
   22.2143    5.6271   54.3302 C   0  0  0  0  0  0  0  0  0  0  0  0
   21.2819    4.5888   54.3383 C   0  0  0  0  0  0  0  0  0  0  0  0
   20.1404    5.0256   53.7013 C   0  0  0  0  0  0  0  0  0  0  0  0
   20.3777    6.2779   53.3248 N   0  0  0  0  0  0  0  0  0  0  0  0
   21.6083    6.6417   53.6953 N   0  0  0  0  0  0  0  0  0  0  0  0
   22.3095    7.7853   53.5494 C   0  0  0  0  0  0  0  0  0  0  0  0
   21.7613    8.8498   52.9173 C   0  0  0  0  0  0  0  0  0  0  0  0
   22.4253   10.0679   52.7259 C   0  0  0  0  0  0  0  0  0  0  0  0
   23.7087   10.1465   53.2243 C   0  0  0  0  0  0  0  0  0  0  0  0
   24.3049    9.0749   53.8792 C   0  0  0  0  0  0  0  0  0  0  0  0
   23.5993    7.8994   54.0375 C   0  0  0  0  0  0  0  0  0  0  0  0
   24.1820    6.8481   54.6769 C   0  0  0  0  0  0  0  0  0  0  0  0
   25.3395    6.8591   55.1495 O   0  0  0  0  0  0  0  0  0  0  0  0
   18.9250    4.2177   53.5054 C   0  0  0  0  0  0  0  0  0  0  0  0
   18.9222    3.1248   52.6660 C   0  0  0  0  0  0  0  0  0  0  0  0
   17.7844    2.3511   52.4722 C   0  0  0  0  0  0  0  0  0  0  0  0
   16.6038    2.6698   53.1329 C   0  0  0  0  0  0  0  0  0  0  0  0
   15.5045    1.8879   52.9215 F   0  0  0  0  0  0  0  0  0  0  0  0
   16.5984    3.7568   53.9702 C   0  0  0  0  0  0  0  0  0  0  0  0
   17.7370    4.5072   54.1460 C   0  0  0  0  0  0  0  0  0  0  0  0
   21.7660   11.1723   52.0324 C   0  0  0  0  0  0  0  0  0  0  0  0
   21.7152   12.4444   52.5918 C   0  0  0  0  0  0  0  0  0  0  0  0
   21.0888   13.4863   51.9377 C   0  0  0  0  0  0  0  0  0  0  0  0
   20.4952   13.2921   50.7078 C   0  0  0  0  0  0  0  0  0  0  0  0
   20.5490   12.0610   50.1754 N   0  0  0  0  0  0  0  0  0  0  0  0
   21.1615   11.0169   50.8024 C   0  0  0  0  0  0  0  0  0  0  0  0
  1  2  1  0  0  0
  2  3  1  0  0  0
  3  4  2  0  0  0
  4  5  1  0  0  0
  5  6  2  0  0  0
  6  7  1  0  0  0
  7  8  1  0  0  0
  8  9  2  0  0  0
  9 10  1  0  0  0
 10 11  2  0  0  0
 11 12  1  0  0  0
 12 13  2  0  0  0
 13 14  1  0  0  0
 14 15  2  0  0  0
 10 23  1  0  0  0
 23 24  2  0  0  0
 24 25  1  0  0  0
 25 26  2  0  0  0
 26 27  1  0  0  0
 27 28  2  0  0  0
  5 16  1  0  0  0
 16 17  2  0  0  0
 17 18  1  0  0  0
 18 19  2  0  0  0
 19 20  1  0  0  0
 19 21  1  0  0  0
 21 22  2  0  0  0
 14  2  1  0  0  0
 28 23  1  0  0  0
 22 16  1  0  0  0
  7  3  1  0  0  0
 13  8  1  0  0  0
M  END
> <minimizedAffinity>
43.42148

> <CNNscore>
0.4149706960

> <CNNaffinity>
6.1372246742

> <CNN_VS>
2.5467684269

> <CNNaffinity_variance>
0.8107358813

$$$$
[H]c1nc([H])c(-c2c([H])c([H])c3c(=O)n(C([H])([H])[H])c4c([H])c(-c5c([H])c([H])c(F)c([H])c5[H])nn4c3c2[H])c([H])c1[H]


 28 32  0  0  0  0  0  0  0  0999 V2000
   24.5415    4.7555   53.5503 C   0  0  0  0  0  0  0  0  0  0  0  0
   23.8048    6.0033   53.4808 N   0  0  0  0  0  0  0  0  0  0  0  0
   22.4546    5.9773   53.4759 C   0  0  0  0  0  0  0  0  0  0  0  0
   21.5537    4.9126   53.5238 C   0  0  0  0  0  0  0  0  0  0  0  0
   20.2745    5.4248   53.4912 C   0  0  0  0  0  0  0  0  0  0  0  0
   20.4018    6.7461   53.4260 N   0  0  0  0  0  0  0  0  0  0  0  0
   21.6946    7.0813   53.4165 N   0  0  0  0  0  0  0  0  0  0  0  0
   22.3339    8.2682   53.3589 C   0  0  0  0  0  0  0  0  0  0  0  0
   21.6305    9.4234   53.2954 C   0  0  0  0  0  0  0  0  0  0  0  0
   22.2212   10.6916   53.2318 C   0  0  0  0  0  0  0  0  0  0  0  0
   23.5998   10.7220   53.2363 C   0  0  0  0  0  0  0  0  0  0  0  0
   24.3560    9.5572   53.3008 C   0  0  0  0  0  0  0  0  0  0  0  0
   23.7160    8.3360   53.3619 C   0  0  0  0  0  0  0  0  0  0  0  0
   24.4546    7.1938   53.4233 C   0  0  0  0  0  0  0  0  0  0  0  0
   25.7044    7.1574   53.4308 O   0  0  0  0  0  0  0  0  0  0  0  0
   19.0438    4.6168   53.5247 C   0  0  0  0  0  0  0  0  0  0  0  0
   17.8448    5.1595   53.9330 C   0  0  0  0  0  0  0  0  0  0  0  0
   16.6745    4.4111   53.9681 C   0  0  0  0  0  0  0  0  0  0  0  0
   16.6897    3.0750   53.5853 C   0  0  0  0  0  0  0  0  0  0  0  0
   15.5220    2.3687   53.6300 F   0  0  0  0  0  0  0  0  0  0  0  0
   17.8799    2.5272   53.1778 C   0  0  0  0  0  0  0  0  0  0  0  0
   19.0249    3.2879   53.1514 C   0  0  0  0  0  0  0  0  0  0  0  0
   21.3934   11.8941   53.1649 C   0  0  0  0  0  0  0  0  0  0  0  0
   21.4643   12.7559   52.0759 C   0  0  0  0  0  0  0  0  0  0  0  0
   20.6848   13.8937   52.0153 C   0  0  0  0  0  0  0  0  0  0  0  0
   19.8120   14.2061   53.0368 C   0  0  0  0  0  0  0  0  0  0  0  0
   19.7502   13.3686   54.0840 N   0  0  0  0  0  0  0  0  0  0  0  0
   20.5100   12.2397   54.1661 C   0  0  0  0  0  0  0  0  0  0  0  0
  1  2  1  0  0  0
  2  3  1  0  0  0
  3  4  2  0  0  0
  4  5  1  0  0  0
  5  6  2  0  0  0
  6  7  1  0  0  0
  7  8  1  0  0  0
  8  9  2  0  0  0
  9 10  1  0  0  0
 10 11  2  0  0  0
 11 12  1  0  0  0
 12 13  2  0  0  0
 13 14  1  0  0  0
 14 15  2  0  0  0
 10 23  1  0  0  0
 23 24  2  0  0  0
 24 25  1  0  0  0
 25 26  2  0  0  0
 26 27  1  0  0  0
 27 28  2  0  0  0
  5 16  1  0  0  0
 16 17  2  0  0  0
 17 18  1  0  0  0
 18 19  2  0  0  0
 19 20  1  0  0  0
 19 21  1  0  0  0
 21 22  2  0  0  0
 14  2  1  0  0  0
 28 23  1  0  0  0
 22 16  1  0  0  0
  7  3  1  0  0  0
 13  8  1  0  0  0
M  END
> <minimizedAffinity>
51.19999

> <CNNscore>
0.4101990461

> <CNNaffinity>
5.9846005440

> <CNN_VS>
2.4548773766

> <CNNaffinity_variance>
0.5387176871

$$$$
[H]c1nc([H])c(-c2c([H])c([H])c3c(=O)n(C([H])([H])[H])c4c([H])c(-c5c([H])c([H])c(F)c([H])c5[H])nn4c3c2[H])c([H])c1[H]


 28 32  0  0  0  0  0  0  0  0999 V2000
   21.0125   14.2505   50.5812 C   0  0  0  0  0  0  0  0  0  0  0  0
   21.5395   13.0299   51.1617 N   0  0  0  0  0  0  0  0  0  0  0  0
   22.7611   12.5914   50.7888 C   0  0  0  0  0  0  0  0  0  0  0  0
   23.6903   13.1108   49.8863 C   0  0  0  0  0  0  0  0  0  0  0  0
   24.7885   12.2781   49.8668 C   0  0  0  0  0  0  0  0  0  0  0  0
   24.5293   11.2964   50.7242 N   0  0  0  0  0  0  0  0  0  0  0  0
   23.3262   11.4762   51.2756 N   0  0  0  0  0  0  0  0  0  0  0  0
   22.6188   10.7718   52.1835 C   0  0  0  0  0  0  0  0  0  0  0  0
   23.1264    9.6351   52.7159 C   0  0  0  0  0  0  0  0  0  0  0  0
   22.4534    8.8501   53.6604 C   0  0  0  0  0  0  0  0  0  0  0  0
   21.2054    9.2947   54.0433 C   0  0  0  0  0  0  0  0  0  0  0  0
   20.6514   10.4569   53.5191 C   0  0  0  0  0  0  0  0  0  0  0  0
   21.3639   11.1888   52.5909 C   0  0  0  0  0  0  0  0  0  0  0  0
   20.8224   12.3264   52.0747 C   0  0  0  0  0  0  0  0  0  0  0  0
   19.6982   12.7792   52.3822 O   0  0  0  0  0  0  0  0  0  0  0  0
   25.9872   12.4862   49.0372 C   0  0  0  0  0  0  0  0  0  0  0  0
   26.0601   13.5269   48.1368 C   0  0  0  0  0  0  0  0  0  0  0  0
   27.1847   13.7381   47.3485 C   0  0  0  0  0  0  0  0  0  0  0  0
   28.2793   12.8879   47.4536 C   0  0  0  0  0  0  0  0  0  0  0  0
   29.3691   13.1246   46.6656 F   0  0  0  0  0  0  0  0  0  0  0  0
   28.2143   11.8491   48.3476 C   0  0  0  0  0  0  0  0  0  0  0  0
   27.0906   11.6605   49.1170 C   0  0  0  0  0  0  0  0  0  0  0  0
   23.0678    7.6342   54.1891 C   0  0  0  0  0  0  0  0  0  0  0  0
   22.3062    6.5021   54.4577 C   0  0  0  0  0  0  0  0  0  0  0  0
   22.8869    5.3551   54.9608 C   0  0  0  0  0  0  0  0  0  0  0  0
   24.2424    5.3019   55.2108 C   0  0  0  0  0  0  0  0  0  0  0  0
   24.9698    6.3992   54.9486 N   0  0  0  0  0  0  0  0  0  0  0  0
   24.4187    7.5430   54.4520 C   0  0  0  0  0  0  0  0  0  0  0  0
  1  2  1  0  0  0
  2  3  1  0  0  0
  3  4  2  0  0  0
  4  5  1  0  0  0
  5  6  2  0  0  0
  6  7  1  0  0  0
  7  8  1  0  0  0
  8  9  2  0  0  0
  9 10  1  0  0  0
 10 11  2  0  0  0
 11 12  1  0  0  0
 12 13  2  0  0  0
 13 14  1  0  0  0
 14 15  2  0  0  0
 10 23  1  0  0  0
 23 24  2  0  0  0
 24 25  1  0  0  0
 25 26  2  0  0  0
 26 27  1  0  0  0
 27 28  2  0  0  0
  5 16  1  0  0  0
 16 17  2  0  0  0
 17 18  1  0  0  0
 18 19  2  0  0  0
 19 20  1  0  0  0
 19 21  1  0  0  0
 21 22  2  0  0  0
 14  2  1  0  0  0
 28 23  1  0  0  0
 22 16  1  0  0  0
  7  3  1  0  0  0
 13  8  1  0  0  0
M  END
> <minimizedAffinity>
93.26525

> <CNNscore>
0.3771410286

> <CNNaffinity>
4.7338533401

> <CNN_VS>
1.7853302956

> <CNNaffinity_variance>
0.2061589658

$$$$
[H]c1nc([H])c(-c2c([H])c([H])c3c(=O)n(C([H])([H])[H])c4c([H])c(-c5c([H])c([H])c(F)c([H])c5[H])nn4c3c2[H])c([H])c1[H]


 28 32  0  0  0  0  0  0  0  0999 V2000
   21.5406   10.6908   54.4832 C   0  0  0  0  0  0  0  0  0  0  0  0
   22.2634    9.4501   54.2762 N   0  0  0  0  0  0  0  0  0  0  0  0
   23.4606    9.2718   54.8750 C   0  0  0  0  0  0  0  0  0  0  0  0
   24.2038   10.1032   55.7142 C   0  0  0  0  0  0  0  0  0  0  0  0
   25.3673    9.4477   56.0548 C   0  0  0  0  0  0  0  0  0  0  0  0
   25.3251    8.2681   55.4440 N   0  0  0  0  0  0  0  0  0  0  0  0
   24.1949    8.1570   54.7411 N   0  0  0  0  0  0  0  0  0  0  0  0
   23.6917    7.1764   53.9627 C   0  0  0  0  0  0  0  0  0  0  0  0
   24.3794    6.0242   53.7811 C   0  0  0  0  0  0  0  0  0  0  0  0
   23.9245    4.9632   52.9882 C   0  0  0  0  0  0  0  0  0  0  0  0
   22.7024    5.1420   52.3748 C   0  0  0  0  0  0  0  0  0  0  0  0
   21.9673    6.3106   52.5378 C   0  0  0  0  0  0  0  0  0  0  0  0
   22.4684    7.3216   53.3324 C   0  0  0  0  0  0  0  0  0  0  0  0
   21.7510    8.4678   53.4918 C   0  0  0  0  0  0  0  0  0  0  0  0
   20.6395    8.6877   52.9629 O   0  0  0  0  0  0  0  0  0  0  0  0
   26.4170    9.9970   56.9295 C   0  0  0  0  0  0  0  0  0  0  0  0
   26.6624   11.3518   56.9856 C   0  0  0  0  0  0  0  0  0  0  0  0
   27.6475   11.8859   57.8072 C   0  0  0  0  0  0  0  0  0  0  0  0
   28.4202   11.0489   58.6038 C   0  0  0  0  0  0  0  0  0  0  0  0
   29.3786   11.6063   59.4009 F   0  0  0  0  0  0  0  0  0  0  0  0
   28.1822    9.6986   58.5532 C   0  0  0  0  0  0  0  0  0  0  0  0
   27.2015    9.1936   57.7324 C   0  0  0  0  0  0  0  0  0  0  0  0
   24.7252    3.7498   52.8406 C   0  0  0  0  0  0  0  0  0  0  0  0
   24.2456    2.5158   53.2659 C   0  0  0  0  0  0  0  0  0  0  0  0
   25.0043    1.3705   53.1295 C   0  0  0  0  0  0  0  0  0  0  0  0
   26.2622    1.4206   52.5656 C   0  0  0  0  0  0  0  0  0  0  0  0
   26.7171    2.6159   52.1579 N   0  0  0  0  0  0  0  0  0  0  0  0
   25.9864    3.7600   52.2823 C   0  0  0  0  0  0  0  0  0  0  0  0
  1  2  1  0  0  0
  2  3  1  0  0  0
  3  4  2  0  0  0
  4  5  1  0  0  0
  5  6  2  0  0  0
  6  7  1  0  0  0
  7  8  1  0  0  0
  8  9  2  0  0  0
  9 10  1  0  0  0
 10 11  2  0  0  0
 11 12  1  0  0  0
 12 13  2  0  0  0
 13 14  1  0  0  0
 14 15  2  0  0  0
 10 23  1  0  0  0
 23 24  2  0  0  0
 24 25  1  0  0  0
 25 26  2  0  0  0
 26 27  1  0  0  0
 27 28  2  0  0  0
  5 16  1  0  0  0
 16 17  2  0  0  0
 17 18  1  0  0  0
 18 19  2  0  0  0
 19 20  1  0  0  0
 19 21  1  0  0  0
 21 22  2  0  0  0
 14  2  1  0  0  0
 28 23  1  0  0  0
 22 16  1  0  0  0
  7  3  1  0  0  0
 13  8  1  0  0  0
M  END
> <minimizedAffinity>
51.66592

> <CNNscore>
0.3540116847

> <CNNaffinity>
5.7956895828

> <CNN_VS>
2.0517418385

> <CNNaffinity_variance>
0.4513203502

$$$$
[H]c1nc([H])c(-c2c([H])c([H])c3c(=O)n(C([H])([H])[H])c4c([H])c(-c5c([H])c([H])c(F)c([H])c5[H])nn4c3c2[H])c([H])c1[H]


 28 32  0  0  0  0  0  0  0  0999 V2000
   25.9539    8.1389   57.4412 C   0  0  0  0  0  0  0  0  0  0  0  0
   26.2404    8.3897   56.0413 N   0  0  0  0  0  0  0  0  0  0  0  0
   25.2587    8.2406   55.1260 C   0  0  0  0  0  0  0  0  0  0  0  0
   23.9225    7.8615   55.2620 C   0  0  0  0  0  0  0  0  0  0  0  0
   23.3420    7.8619   54.0119 C   0  0  0  0  0  0  0  0  0  0  0  0
   24.2925    8.2270   53.1578 N   0  0  0  0  0  0  0  0  0  0  0  0
   25.4341    8.4534   53.8131 N   0  0  0  0  0  0  0  0  0  0  0  0
   26.6635    8.8352   53.4087 C   0  0  0  0  0  0  0  0  0  0  0  0
   26.9132    9.0660   52.0981 C   0  0  0  0  0  0  0  0  0  0  0  0
   28.1612    9.4627   51.6018 C   0  0  0  0  0  0  0  0  0  0  0  0
   29.1663    9.6156   52.5336 C   0  0  0  0  0  0  0  0  0  0  0  0
   28.9479    9.3882   53.8876 C   0  0  0  0  0  0  0  0  0  0  0  0
   27.6952    8.9988   54.3163 C   0  0  0  0  0  0  0  0  0  0  0  0
   27.4796    8.7737   55.6417 C   0  0  0  0  0  0  0  0  0  0  0  0
   28.3490    8.8956   56.5320 O   0  0  0  0  0  0  0  0  0  0  0  0
   21.9373    7.5163   53.7367 C   0  0  0  0  0  0  0  0  0  0  0  0
   21.3533    7.8143   52.5246 C   0  0  0  0  0  0  0  0  0  0  0  0
   20.0299    7.4928   52.2487 C   0  0  0  0  0  0  0  0  0  0  0  0
   19.2536    6.8526   53.2076 C   0  0  0  0  0  0  0  0  0  0  0  0
   17.9573    6.5494   52.9035 F   0  0  0  0  0  0  0  0  0  0  0  0
   19.8277    6.5529   54.4172 C   0  0  0  0  0  0  0  0  0  0  0  0
   21.1393    6.8808   54.6669 C   0  0  0  0  0  0  0  0  0  0  0  0
   28.3529    9.6925   50.1715 C   0  0  0  0  0  0  0  0  0  0  0  0
   28.7000    8.6522   49.3164 C   0  0  0  0  0  0  0  0  0  0  0  0
   28.8846    8.8709   47.9659 C   0  0  0  0  0  0  0  0  0  0  0  0
   28.7289   10.1314   47.4276 C   0  0  0  0  0  0  0  0  0  0  0  0
   28.3940   11.1295   48.2602 N   0  0  0  0  0  0  0  0  0  0  0  0
   28.2066   10.9378   49.5969 C   0  0  0  0  0  0  0  0  0  0  0  0
  1  2  1  0  0  0
  2  3  1  0  0  0
  3  4  2  0  0  0
  4  5  1  0  0  0
  5  6  2  0  0  0
  6  7  1  0  0  0
  7  8  1  0  0  0
  8  9  2  0  0  0
  9 10  1  0  0  0
 10 11  2  0  0  0
 11 12  1  0  0  0
 12 13  2  0  0  0
 13 14  1  0  0  0
 14 15  2  0  0  0
 10 23  1  0  0  0
 23 24  2  0  0  0
 24 25  1  0  0  0
 25 26  2  0  0  0
 26 27  1  0  0  0
 27 28  2  0  0  0
  5 16  1  0  0  0
 16 17  2  0  0  0
 17 18  1  0  0  0
 18 19  2  0  0  0
 19 20  1  0  0  0
 19 21  1  0  0  0
 21 22  2  0  0  0
 14  2  1  0  0  0
 28 23  1  0  0  0
 22 16  1  0  0  0
  7  3  1  0  0  0
 13  8  1  0  0  0
M  END
> <minimizedAffinity>
46.60951

> <CNNscore>
0.3256092668

> <CNNaffinity>
5.5007605553

> <CNN_VS>
1.7910985947

> <CNNaffinity_variance>
0.2047775239

$$$$
[H]c1nc([H])c(-c2c([H])c([H])c3c(=O)n(C([H])([H])[H])c4c([H])c(-c5c([H])c([H])c(F)c([H])c5[H])nn4c3c2[H])c([H])c1[H]


 28 32  0  0  0  0  0  0  0  0999 V2000
   27.1988    9.1595   56.8649 C   0  0  0  0  0  0  0  0  0  0  0  0
   27.2503    9.1878   55.4153 N   0  0  0  0  0  0  0  0  0  0  0  0
   26.2498    8.6238   54.7048 C   0  0  0  0  0  0  0  0  0  0  0  0
   25.0887    7.9652   55.1117 C   0  0  0  0  0  0  0  0  0  0  0  0
   24.3947    7.5742   53.9869 C   0  0  0  0  0  0  0  0  0  0  0  0
   25.1111    7.9820   52.9444 N   0  0  0  0  0  0  0  0  0  0  0  0
   26.2148    8.6064   53.3638 N   0  0  0  0  0  0  0  0  0  0  0  0
   27.2432    9.1880   52.7120 C   0  0  0  0  0  0  0  0  0  0  0  0
   27.2747    9.2061   51.3585 C   0  0  0  0  0  0  0  0  0  0  0  0
   28.3068    9.7880   50.6119 C   0  0  0  0  0  0  0  0  0  0  0  0
   29.3304   10.3645   51.3342 C   0  0  0  0  0  0  0  0  0  0  0  0
   29.3328   10.3658   52.7243 C   0  0  0  0  0  0  0  0  0  0  0  0
   28.2867    9.7763   53.4047 C   0  0  0  0  0  0  0  0  0  0  0  0
   28.2880    9.7748   54.7663 C   0  0  0  0  0  0  0  0  0  0  0  0
   29.1855   10.2805   55.4748 O   0  0  0  0  0  0  0  0  0  0  0  0
   23.1135    6.8484   53.9990 C   0  0  0  0  0  0  0  0  0  0  0  0
   22.3485    6.7320   52.8587 C   0  0  0  0  0  0  0  0  0  0  0  0
   21.1386    6.0487   52.8532 C   0  0  0  0  0  0  0  0  0  0  0  0
   20.6663    5.4579   54.0193 C   0  0  0  0  0  0  0  0  0  0  0  0
   19.4746    4.7925   53.9790 F   0  0  0  0  0  0  0  0  0  0  0  0
   21.4221    5.5697   55.1590 C   0  0  0  0  0  0  0  0  0  0  0  0
   22.6163    6.2508   55.1397 C   0  0  0  0  0  0  0  0  0  0  0  0
   28.2698    9.7671   49.1512 C   0  0  0  0  0  0  0  0  0  0  0  0
   28.0469    8.5845   48.4545 C   0  0  0  0  0  0  0  0  0  0  0  0
   28.0159    8.5650   47.0745 C   0  0  0  0  0  0  0  0  0  0  0  0
   28.2057    9.7222   46.3482 C   0  0  0  0  0  0  0  0  0  0  0  0
   28.4203   10.8591   47.0288 N   0  0  0  0  0  0  0  0  0  0  0  0
   28.4554   10.9029   48.3909 C   0  0  0  0  0  0  0  0  0  0  0  0
  1  2  1  0  0  0
  2  3  1  0  0  0
  3  4  2  0  0  0
  4  5  1  0  0  0
  5  6  2  0  0  0
  6  7  1  0  0  0
  7  8  1  0  0  0
  8  9  2  0  0  0
  9 10  1  0  0  0
 10 11  2  0  0  0
 11 12  1  0  0  0
 12 13  2  0  0  0
 13 14  1  0  0  0
 14 15  2  0  0  0
 10 23  1  0  0  0
 23 24  2  0  0  0
 24 25  1  0  0  0
 25 26  2  0  0  0
 26 27  1  0  0  0
 27 28  2  0  0  0
  5 16  1  0  0  0
 16 17  2  0  0  0
 17 18  1  0  0  0
 18 19  2  0  0  0
 19 20  1  0  0  0
 19 21  1  0  0  0
 21 22  2  0  0  0
 14  2  1  0  0  0
 28 23  1  0  0  0
 22 16  1  0  0  0
  7  3  1  0  0  0
 13  8  1  0  0  0
M  END
> <minimizedAffinity>
46.00180

> <CNNscore>
0.3241285086

> <CNNaffinity>
5.5194368362

> <CNN_VS>
1.7890068293

> <CNNaffinity_variance>
0.3205147386

$$$$
[H]OC(=O)[C@@]1([H])C([H])([H])[C@]1([H])[C@@](C(=O)O[H])(N([H])[H])C([H])([H])C1([H])c2c([H])c([H])c([H])c([H])c2Oc2c([H])c([H])c([H])c([H])c21


 30 33  0  0  0  0  0  0  0  0999 V2000
   21.4723    8.3669   54.6486 N   0  0  0  0  0  0  0  0  0  0  0  0
   22.0634    9.6895   54.7339 C   0  0  0  0  0  0  0  0  0  0  0  0
   22.0709    7.6609   54.2132 H   0  0  0  0  0  0  0  0  0  0  0  0
   20.4790    8.3542   54.4092 H   0  0  0  0  0  0  0  0  0  0  0  0
   21.0997   10.6798   55.2402 C   0  0  0  0  0  0  0  0  0  0  0  0
   20.1668   10.3770   56.2185 O   0  0  0  0  0  0  0  0  0  0  0  0
   21.0858   11.8789   54.7908 O   0  0  0  0  0  0  0  0  0  0  0  0
   19.9655   11.0645   56.9332 H   0  0  0  0  0  0  0  0  0  0  0  0
   22.2464   10.1509   53.2208 C   0  0  0  0  0  0  0  0  0  0  0  0
   21.3083    9.4246   52.3160 C   0  0  0  0  0  0  0  0  0  0  0  0
   21.1864   10.9049   52.5762 C   0  0  0  0  0  0  0  0  0  0  0  0
   21.5064   11.7870   51.4370 C   0  0  0  0  0  0  0  0  0  0  0  0
   22.2687   12.9327   51.6139 O   0  0  0  0  0  0  0  0  0  0  0  0
   21.0970   11.5237   50.2775 O   0  0  0  0  0  0  0  0  0  0  0  0
   23.1973   12.8578   52.0093 H   0  0  0  0  0  0  0  0  0  0  0  0
   23.4156    9.6593   55.2403 C   0  0  0  0  0  0  0  0  0  0  0  0
   24.2202    8.4327   55.5704 C   0  0  0  0  0  0  0  0  0  0  0  0
   23.6137    7.4315   54.6060 C   0  0  0  0  0  0  0  0  0  0  0  0
   22.2695    7.0876   54.8344 C   0  0  0  0  0  0  0  0  0  0  0  0
   21.6165    6.3060   53.9209 C   0  0  0  0  0  0  0  0  0  0  0  0
   22.2783    5.8656   52.7927 C   0  0  0  0  0  0  0  0  0  0  0  0
   23.5924    6.2079   52.5861 C   0  0  0  0  0  0  0  0  0  0  0  0
   24.2719    7.0043   53.5140 C   0  0  0  0  0  0  0  0  0  0  0  0
   25.5995    7.3145   53.2960 O   0  0  0  0  0  0  0  0  0  0  0  0
   26.2802    8.0884   54.2426 C   0  0  0  0  0  0  0  0  0  0  0  0
   27.6340    8.3487   54.0228 C   0  0  0  0  0  0  0  0  0  0  0  0
   28.3646    9.0601   54.9206 C   0  0  0  0  0  0  0  0  0  0  0  0
   27.7413    9.5219   56.0596 C   0  0  0  0  0  0  0  0  0  0  0  0
   26.4228    9.2929   56.3095 C   0  0  0  0  0  0  0  0  0  0  0  0
   25.6638    8.5563   55.3671 C   0  0  0  0  0  0  0  0  0  0  0  0
  1  2  1  0  0  0
  2 16  1  0  0  0
 16 17  1  0  0  0
 17 18  1  0  0  0
 18 19  2  0  0  0
 19 20  1  0  0  0
 20 21  2  0  0  0
 21 22  1  0  0  0
 22 23  2  0  0  0
 23 24  1  0  0  0
 24 25  1  0  0  0
 25 26  2  0  0  0
 26 27  1  0  0  0
 27 28  2  0  0  0
 28 29  1  0  0  0
 29 30  2  0  0  0
  2  9  1  0  0  0
  9 10  1  0  0  0
 10 11  1  0  0  0
 11 12  1  0  0  0
 12 13  1  0  0  0
 12 14  2  0  0  0
  2  5  1  0  0  0
  5  6  1  0  0  0
  5  7  2  0  0  0
 30 17  1  0  0  0
 11  9  1  0  0  0
 23 18  1  0  0  0
 30 25  1  0  0  0
  1  3  1  0  0  0
  1  4  1  0  0  0
 13 15  1  0  0  0
  6  8  1  0  0  0
M  END
> <minimizedAffinity>
6.87688

> <CNNscore>
0.8099763989

> <CNNaffinity>
6.3873624802

> <CNN_VS>
5.1736130714

> <CNNaffinity_variance>
0.1980253160

$$$$
[H]OC(=O)[C@@]1([H])C([H])([H])[C@]1([H])[C@@](C(=O)O[H])(N([H])[H])C([H])([H])C1([H])c2c([H])c([H])c([H])c([H])c2Oc2c([H])c([H])c([H])c([H])c21


 30 33  0  0  0  0  0  0  0  0999 V2000
   23.2613    9.5024   55.4449 N   0  0  0  0  0  0  0  0  0  0  0  0
   22.8799    9.6197   54.0497 C   0  0  0  0  0  0  0  0  0  0  0  0
   23.7695    8.6452   55.6761 H   0  0  0  0  0  0  0  0  0  0  0  0
   22.5586    9.8273   56.1118 H   0  0  0  0  0  0  0  0  0  0  0  0
   22.0357   10.8028   53.8186 C   0  0  0  0  0  0  0  0  0  0  0  0
   21.7740   11.2935   52.5498 O   0  0  0  0  0  0  0  0  0  0  0  0
   21.5003   11.4343   54.7957 O   0  0  0  0  0  0  0  0  0  0  0  0
   20.8451   11.6346   52.3383 H   0  0  0  0  0  0  0  0  0  0  0  0
   21.8512    8.4283   53.8084 C   0  0  0  0  0  0  0  0  0  0  0  0
   20.6240    8.5955   54.6404 C   0  0  0  0  0  0  0  0  0  0  0  0
   20.5937    8.7022   53.1365 C   0  0  0  0  0  0  0  0  0  0  0  0
   19.8920    7.6141   52.4282 C   0  0  0  0  0  0  0  0  0  0  0  0
   19.2849    6.5818   53.1287 O   0  0  0  0  0  0  0  0  0  0  0  0
   19.8258    7.5940   51.1725 O   0  0  0  0  0  0  0  0  0  0  0  0
   18.5726    6.7960   53.8150 H   0  0  0  0  0  0  0  0  0  0  0  0
   23.9672    9.3101   53.1511 C   0  0  0  0  0  0  0  0  0  0  0  0
   24.5892    7.9588   52.9314 C   0  0  0  0  0  0  0  0  0  0  0  0
   25.9418    8.1627   53.5866 C   0  0  0  0  0  0  0  0  0  0  0  0
   26.7973    9.0899   52.9656 C   0  0  0  0  0  0  0  0  0  0  0  0
   27.9700    9.4320   53.5817 C   0  0  0  0  0  0  0  0  0  0  0  0
   28.2998    8.8678   54.7973 C   0  0  0  0  0  0  0  0  0  0  0  0
   27.4545    7.9612   55.3890 C   0  0  0  0  0  0  0  0  0  0  0  0
   26.2538    7.6012   54.7679 C   0  0  0  0  0  0  0  0  0  0  0  0
   25.4325    6.6695   55.3710 O   0  0  0  0  0  0  0  0  0  0  0  0
   24.2466    6.2938   54.7301 C   0  0  0  0  0  0  0  0  0  0  0  0
   23.4570    5.3155   55.3371 C   0  0  0  0  0  0  0  0  0  0  0  0
   22.3132    4.8759   54.7501 C   0  0  0  0  0  0  0  0  0  0  0  0
   21.9452    5.4160   53.5368 C   0  0  0  0  0  0  0  0  0  0  0  0
   22.6851    6.3740   52.9140 C   0  0  0  0  0  0  0  0  0  0  0  0
   23.8733    6.8338   53.5332 C   0  0  0  0  0  0  0  0  0  0  0  0
  1  2  1  0  0  0
  2 16  1  0  0  0
 16 17  1  0  0  0
 17 18  1  0  0  0
 18 19  2  0  0  0
 19 20  1  0  0  0
 20 21  2  0  0  0
 21 22  1  0  0  0
 22 23  2  0  0  0
 23 24  1  0  0  0
 24 25  1  0  0  0
 25 26  2  0  0  0
 26 27  1  0  0  0
 27 28  2  0  0  0
 28 29  1  0  0  0
 29 30  2  0  0  0
  2  9  1  0  0  0
  9 10  1  0  0  0
 10 11  1  0  0  0
 11 12  1  0  0  0
 12 13  1  0  0  0
 12 14  2  0  0  0
  2  5  1  0  0  0
  5  6  1  0  0  0
  5  7  2  0  0  0
 30 17  1  0  0  0
 11  9  1  0  0  0
 23 18  1  0  0  0
 30 25  1  0  0  0
  1  3  1  0  0  0
  1  4  1  0  0  0
 13 15  1  0  0  0
  6  8  1  0  0  0
M  END
> <minimizedAffinity>
12.84850

> <CNNscore>
0.6620129347

> <CNNaffinity>
6.1309876442

> <CNN_VS>
4.0587930679

> <CNNaffinity_variance>
0.3387359381

$$$$
[H]OC(=O)[C@@]1([H])C([H])([H])[C@]1([H])[C@@](C(=O)O[H])(N([H])[H])C([H])([H])C1([H])c2c([H])c([H])c([H])c([H])c2Oc2c([H])c([H])c([H])c([H])c21


 30 33  0  0  0  0  0  0  0  0999 V2000
   21.9061    7.5725   50.6318 N   0  0  0  0  0  0  0  0  0  0  0  0
   21.6557    7.6159   52.0606 C   0  0  0  0  0  0  0  0  0  0  0  0
   22.7982    7.9820   50.3439 H   0  0  0  0  0  0  0  0  0  0  0  0
   21.0905    7.7618   50.0462 H   0  0  0  0  0  0  0  0  0  0  0  0
   20.3018    7.1395   52.3859 C   0  0  0  0  0  0  0  0  0  0  0  0
   20.0755    6.0338   53.1893 O   0  0  0  0  0  0  0  0  0  0  0  0
   19.2638    7.7379   51.9339 O   0  0  0  0  0  0  0  0  0  0  0  0
   19.3130    6.0590   53.8540 H   0  0  0  0  0  0  0  0  0  0  0  0
   21.5521    9.1665   52.4078 C   0  0  0  0  0  0  0  0  0  0  0  0
   22.9028    9.7961   52.4830 C   0  0  0  0  0  0  0  0  0  0  0  0
   21.9148   10.1450   51.3986 C   0  0  0  0  0  0  0  0  0  0  0  0
   21.3441   11.5047   51.4612 C   0  0  0  0  0  0  0  0  0  0  0  0
   20.9513   12.1676   50.3075 O   0  0  0  0  0  0  0  0  0  0  0  0
   21.1989   12.0974   52.5608 O   0  0  0  0  0  0  0  0  0  0  0  0
   20.2614   11.7446   49.6995 H   0  0  0  0  0  0  0  0  0  0  0  0
   22.7922    7.1748   52.8350 C   0  0  0  0  0  0  0  0  0  0  0  0
   22.9373    7.2439   54.3300 C   0  0  0  0  0  0  0  0  0  0  0  0
   24.4256    7.5081   54.4555 C   0  0  0  0  0  0  0  0  0  0  0  0
   25.2764    6.4726   54.0298 C   0  0  0  0  0  0  0  0  0  0  0  0
   26.6250    6.6968   53.9767 C   0  0  0  0  0  0  0  0  0  0  0  0
   27.1336    7.9277   54.3390 C   0  0  0  0  0  0  0  0  0  0  0  0
   26.2890    8.9275   54.7556 C   0  0  0  0  0  0  0  0  0  0  0  0
   24.9086    8.7099   54.8168 C   0  0  0  0  0  0  0  0  0  0  0  0
   24.0827    9.7228   55.2619 O   0  0  0  0  0  0  0  0  0  0  0  0
   22.7057    9.4883   55.3468 C   0  0  0  0  0  0  0  0  0  0  0  0
   21.8975   10.5122   55.8444 C   0  0  0  0  0  0  0  0  0  0  0  0
   20.5580   10.3381   55.9903 C   0  0  0  0  0  0  0  0  0  0  0  0
   20.0085    9.1248   55.6367 C   0  0  0  0  0  0  0  0  0  0  0  0
   20.7609    8.1027   55.1444 C   0  0  0  0  0  0  0  0  0  0  0  0
   22.1561    8.2913   54.9880 C   0  0  0  0  0  0  0  0  0  0  0  0
  1  2  1  0  0  0
  2 16  1  0  0  0
 16 17  1  0  0  0
 17 18  1  0  0  0
 18 19  2  0  0  0
 19 20  1  0  0  0
 20 21  2  0  0  0
 21 22  1  0  0  0
 22 23  2  0  0  0
 23 24  1  0  0  0
 24 25  1  0  0  0
 25 26  2  0  0  0
 26 27  1  0  0  0
 27 28  2  0  0  0
 28 29  1  0  0  0
 29 30  2  0  0  0
  2  9  1  0  0  0
  9 10  1  0  0  0
 10 11  1  0  0  0
 11 12  1  0  0  0
 12 13  1  0  0  0
 12 14  2  0  0  0
  2  5  1  0  0  0
  5  6  1  0  0  0
  5  7  2  0  0  0
 30 17  1  0  0  0
 11  9  1  0  0  0
 23 18  1  0  0  0
 30 25  1  0  0  0
  1  3  1  0  0  0
  1  4  1  0  0  0
 13 15  1  0  0  0
  6  8  1  0  0  0
M  END
> <minimizedAffinity>
15.43403

> <CNNscore>
0.6596058011

> <CNNaffinity>
6.3549027443

> <CNN_VS>
4.1917304993

> <CNNaffinity_variance>
0.6742456555

$$$$
[H]OC(=O)[C@@]1([H])C([H])([H])[C@]1([H])[C@@](C(=O)O[H])(N([H])[H])C([H])([H])C1([H])c2c([H])c([H])c([H])c([H])c2Oc2c([H])c([H])c([H])c([H])c21


 30 33  0  0  0  0  0  0  0  0999 V2000
   21.5721    9.6943   56.5594 N   0  0  0  0  0  0  0  0  0  0  0  0
   22.6319    9.2171   55.6906 C   0  0  0  0  0  0  0  0  0  0  0  0
   20.7022    9.1589   56.5025 H   0  0  0  0  0  0  0  0  0  0  0  0
   21.4954   10.7110   56.6261 H   0  0  0  0  0  0  0  0  0  0  0  0
   23.7990   10.1131   55.7208 C   0  0  0  0  0  0  0  0  0  0  0  0
   25.0230    9.7228   56.2391 O   0  0  0  0  0  0  0  0  0  0  0  0
   23.7289   11.3062   55.2611 O   0  0  0  0  0  0  0  0  0  0  0  0
   25.8700   10.0156   55.7691 H   0  0  0  0  0  0  0  0  0  0  0  0
   22.0800    9.4442   54.2143 C   0  0  0  0  0  0  0  0  0  0  0  0
   20.6056    9.6730   54.2166 C   0  0  0  0  0  0  0  0  0  0  0  0
   21.5843   10.7553   53.8363 C   0  0  0  0  0  0  0  0  0  0  0  0
   21.5829   11.1538   52.4152 C   0  0  0  0  0  0  0  0  0  0  0  0
   21.8497   12.4629   52.0410 O   0  0  0  0  0  0  0  0  0  0  0  0
   21.3403   10.3183   51.5072 O   0  0  0  0  0  0  0  0  0  0  0  0
   22.7248   12.8914   52.3148 H   0  0  0  0  0  0  0  0  0  0  0  0
   22.8065    7.7854   55.7660 C   0  0  0  0  0  0  0  0  0  0  0  0
   23.5015    6.9145   54.7564 C   0  0  0  0  0  0  0  0  0  0  0  0
   22.4572    6.8708   53.6573 C   0  0  0  0  0  0  0  0  0  0  0  0
   21.2534    6.2158   53.9725 C   0  0  0  0  0  0  0  0  0  0  0  0
   20.2145    6.2657   53.0837 C   0  0  0  0  0  0  0  0  0  0  0  0
   20.3568    6.9528   51.8952 C   0  0  0  0  0  0  0  0  0  0  0  0
   21.5405    7.5846   51.6012 C   0  0  0  0  0  0  0  0  0  0  0  0
   22.6111    7.5387   52.5004 C   0  0  0  0  0  0  0  0  0  0  0  0
   23.7987    8.1612   52.1712 O   0  0  0  0  0  0  0  0  0  0  0  0
   24.8741    8.0873   53.0636 C   0  0  0  0  0  0  0  0  0  0  0  0
   26.0785    8.6844   52.6868 C   0  0  0  0  0  0  0  0  0  0  0  0
   27.1738    8.6165   53.4878 C   0  0  0  0  0  0  0  0  0  0  0  0
   27.0738    7.9427   54.6858 C   0  0  0  0  0  0  0  0  0  0  0  0
   25.9172    7.3504   55.0914 C   0  0  0  0  0  0  0  0  0  0  0  0
   24.7761    7.4295   54.2557 C   0  0  0  0  0  0  0  0  0  0  0  0
  1  2  1  0  0  0
  2 16  1  0  0  0
 16 17  1  0  0  0
 17 18  1  0  0  0
 18 19  2  0  0  0
 19 20  1  0  0  0
 20 21  2  0  0  0
 21 22  1  0  0  0
 22 23  2  0  0  0
 23 24  1  0  0  0
 24 25  1  0  0  0
 25 26  2  0  0  0
 26 27  1  0  0  0
 27 28  2  0  0  0
 28 29  1  0  0  0
 29 30  2  0  0  0
  2  9  1  0  0  0
  9 10  1  0  0  0
 10 11  1  0  0  0
 11 12  1  0  0  0
 12 13  1  0  0  0
 12 14  2  0  0  0
  2  5  1  0  0  0
  5  6  1  0  0  0
  5  7  2  0  0  0
 30 17  1  0  0  0
 11  9  1  0  0  0
 23 18  1  0  0  0
 30 25  1  0  0  0
  1  3  1  0  0  0
  1  4  1  0  0  0
 13 15  1  0  0  0
  6  8  1  0  0  0
M  END
> <minimizedAffinity>
10.87245

> <CNNscore>
0.6511220336

> <CNNaffinity>
5.9945559502

> <CNN_VS>
3.9031875134

> <CNNaffinity_variance>
0.3455913663

$$$$
[H]OC(=O)[C@@]1([H])C([H])([H])[C@]1([H])[C@@](C(=O)O[H])(N([H])[H])C([H])([H])C1([H])c2c([H])c([H])c([H])c([H])c2Oc2c([H])c([H])c([H])c([H])c21


 30 33  0  0  0  0  0  0  0  0999 V2000
   21.4508    8.2208   56.4987 N   0  0  0  0  0  0  0  0  0  0  0  0
   22.0547    9.1342   55.5464 C   0  0  0  0  0  0  0  0  0  0  0  0
   21.8948    7.3004   56.5453 H   0  0  0  0  0  0  0  0  0  0  0  0
   20.4303    8.2536   56.5386 H   0  0  0  0  0  0  0  0  0  0  0  0
   21.2834   10.3823   55.4320 C   0  0  0  0  0  0  0  0  0  0  0  0
   20.2484   10.6989   56.2967 O   0  0  0  0  0  0  0  0  0  0  0  0
   21.5430   11.2387   54.5159 O   0  0  0  0  0  0  0  0  0  0  0  0
   20.1470   11.6557   56.6099 H   0  0  0  0  0  0  0  0  0  0  0  0
   21.8062    8.4614   54.1246 C   0  0  0  0  0  0  0  0  0  0  0  0
   20.6779    7.4865   54.1766 C   0  0  0  0  0  0  0  0  0  0  0  0
   20.5903    8.7732   53.3953 C   0  0  0  0  0  0  0  0  0  0  0  0
   20.5637    8.6335   51.9262 C   0  0  0  0  0  0  0  0  0  0  0  0
   20.0636    7.4862   51.3275 O   0  0  0  0  0  0  0  0  0  0  0  0
   20.9930    9.5497   51.1794 O   0  0  0  0  0  0  0  0  0  0  0  0
   19.1138    7.1957   51.5217 H   0  0  0  0  0  0  0  0  0  0  0  0
   23.4946    9.1711   55.6520 C   0  0  0  0  0  0  0  0  0  0  0  0
   24.4767    9.1203   54.5146 C   0  0  0  0  0  0  0  0  0  0  0  0
   25.7874    9.2215   55.2710 C   0  0  0  0  0  0  0  0  0  0  0  0
   26.0262   10.4369   55.9366 C   0  0  0  0  0  0  0  0  0  0  0  0
   27.1158   10.5454   56.7567 C   0  0  0  0  0  0  0  0  0  0  0  0
   27.9641    9.4692   56.9215 C   0  0  0  0  0  0  0  0  0  0  0  0
   27.7184    8.2899   56.2615 C   0  0  0  0  0  0  0  0  0  0  0  0
   26.6091    8.1672   55.4181 C   0  0  0  0  0  0  0  0  0  0  0  0
   26.3972    6.9794   54.7469 O   0  0  0  0  0  0  0  0  0  0  0  0
   25.3010    6.8737   53.8835 C   0  0  0  0  0  0  0  0  0  0  0  0
   25.1353    5.6789   53.1806 C   0  0  0  0  0  0  0  0  0  0  0  0
   24.1153    5.5227   52.2967 C   0  0  0  0  0  0  0  0  0  0  0  0
   23.2427    6.5719   52.1048 C   0  0  0  0  0  0  0  0  0  0  0  0
   23.3673    7.7515   52.7729 C   0  0  0  0  0  0  0  0  0  0  0  0
   24.4285    7.9071   53.6983 C   0  0  0  0  0  0  0  0  0  0  0  0
  1  2  1  0  0  0
  2 16  1  0  0  0
 16 17  1  0  0  0
 17 18  1  0  0  0
 18 19  2  0  0  0
 19 20  1  0  0  0
 20 21  2  0  0  0
 21 22  1  0  0  0
 22 23  2  0  0  0
 23 24  1  0  0  0
 24 25  1  0  0  0
 25 26  2  0  0  0
 26 27  1  0  0  0
 27 28  2  0  0  0
 28 29  1  0  0  0
 29 30  2  0  0  0
  2  9  1  0  0  0
  9 10  1  0  0  0
 10 11  1  0  0  0
 11 12  1  0  0  0
 12 13  1  0  0  0
 12 14  2  0  0  0
  2  5  1  0  0  0
  5  6  1  0  0  0
  5  7  2  0  0  0
 30 17  1  0  0  0
 11  9  1  0  0  0
 23 18  1  0  0  0
 30 25  1  0  0  0
  1  3  1  0  0  0
  1  4  1  0  0  0
 13 15  1  0  0  0
  6  8  1  0  0  0
M  END
> <minimizedAffinity>
18.76759

> <CNNscore>
0.6111207008

> <CNNaffinity>
6.0027561188

> <CNN_VS>
3.6684086323

> <CNNaffinity_variance>
0.3372510374

$$$$
[H]OC(=O)[C@@]1([H])C([H])([H])[C@]1([H])[C@@](C(=O)O[H])(N([H])[H])C([H])([H])C1([H])c2c([H])c([H])c([H])c([H])c2Oc2c([H])c([H])c([H])c([H])c21


 30 33  0  0  0  0  0  0  0  0999 V2000
   20.6881    8.6548   53.7915 N   0  0  0  0  0  0  0  0  0  0  0  0
   21.7526    9.6356   53.8955 C   0  0  0  0  0  0  0  0  0  0  0  0
   20.4548    8.3806   52.8340 H   0  0  0  0  0  0  0  0  0  0  0  0
   19.9138    8.7894   54.4444 H   0  0  0  0  0  0  0  0  0  0  0  0
   21.9385   10.0851   55.2845 C   0  0  0  0  0  0  0  0  0  0  0  0
   20.9307   10.7018   56.0078 O   0  0  0  0  0  0  0  0  0  0  0  0
   23.0552    9.9201   55.8892 O   0  0  0  0  0  0  0  0  0  0  0  0
   20.8197   10.4726   56.9871 H   0  0  0  0  0  0  0  0  0  0  0  0
   21.1686   10.9440   53.2008 C   0  0  0  0  0  0  0  0  0  0  0  0
   21.9958   12.1433   53.5228 C   0  0  0  0  0  0  0  0  0  0  0  0
   21.9190   11.5730   52.1289 C   0  0  0  0  0  0  0  0  0  0  0  0
   21.2134   12.4022   51.1324 C   0  0  0  0  0  0  0  0  0  0  0  0
   20.7922   13.6871   51.4428 O   0  0  0  0  0  0  0  0  0  0  0  0
   20.9759   11.9663   49.9769 O   0  0  0  0  0  0  0  0  0  0  0  0
   21.4689   14.3723   51.7540 H   0  0  0  0  0  0  0  0  0  0  0  0
   22.8938    9.3024   53.0755 C   0  0  0  0  0  0  0  0  0  0  0  0
   23.3087    7.9254   52.6367 C   0  0  0  0  0  0  0  0  0  0  0  0
   24.6625    7.8122   53.3111 C   0  0  0  0  0  0  0  0  0  0  0  0
   25.6613    8.6858   52.8457 C   0  0  0  0  0  0  0  0  0  0  0  0
   26.8590    8.7411   53.5046 C   0  0  0  0  0  0  0  0  0  0  0  0
   27.0741    7.9447   54.6111 C   0  0  0  0  0  0  0  0  0  0  0  0
   26.0891    7.0943   55.0509 C   0  0  0  0  0  0  0  0  0  0  0  0
   24.8612    7.0267   54.3843 C   0  0  0  0  0  0  0  0  0  0  0  0
   23.8960    6.1464   54.8312 O   0  0  0  0  0  0  0  0  0  0  0  0
   22.6806    6.0643   54.1423 C   0  0  0  0  0  0  0  0  0  0  0  0
   21.7395    5.1331   54.5853 C   0  0  0  0  0  0  0  0  0  0  0  0
   20.5551    4.9736   53.9391 C   0  0  0  0  0  0  0  0  0  0  0  0
   20.2985    5.7520   52.8312 C   0  0  0  0  0  0  0  0  0  0  0  0
   21.1876    6.6735   52.3694 C   0  0  0  0  0  0  0  0  0  0  0  0
   22.4185    6.8407   53.0505 C   0  0  0  0  0  0  0  0  0  0  0  0
  1  2  1  0  0  0
  2 16  1  0  0  0
 16 17  1  0  0  0
 17 18  1  0  0  0
 18 19  2  0  0  0
 19 20  1  0  0  0
 20 21  2  0  0  0
 21 22  1  0  0  0
 22 23  2  0  0  0
 23 24  1  0  0  0
 24 25  1  0  0  0
 25 26  2  0  0  0
 26 27  1  0  0  0
 27 28  2  0  0  0
 28 29  1  0  0  0
 29 30  2  0  0  0
  2  9  1  0  0  0
  9 10  1  0  0  0
 10 11  1  0  0  0
 11 12  1  0  0  0
 12 13  1  0  0  0
 12 14  2  0  0  0
  2  5  1  0  0  0
  5  6  1  0  0  0
  5  7  2  0  0  0
 30 17  1  0  0  0
 11  9  1  0  0  0
 23 18  1  0  0  0
 30 25  1  0  0  0
  1  3  1  0  0  0
  1  4  1  0  0  0
 13 15  1  0  0  0
  6  8  1  0  0  0
M  END
> <minimizedAffinity>
12.81029

> <CNNscore>
0.5976276994

> <CNNaffinity>
6.1803069115

> <CNN_VS>
3.6935226917

> <CNNaffinity_variance>
0.3471888900

$$$$
[H]OC(=O)[C@@]1([H])C([H])([H])[C@]1([H])[C@@](C(=O)O[H])(N([H])[H])C([H])([H])C1([H])c2c([H])c([H])c([H])c([H])c2Oc2c([H])c([H])c([H])c([H])c21


 30 33  0  0  0  0  0  0  0  0999 V2000
   20.6176    7.8560   53.9542 N   0  0  0  0  0  0  0  0  0  0  0  0
   21.4203    7.3379   52.8619 C   0  0  0  0  0  0  0  0  0  0  0  0
   20.9083    7.5399   54.8826 H   0  0  0  0  0  0  0  0  0  0  0  0
   19.6144    7.9036   53.7659 H   0  0  0  0  0  0  0  0  0  0  0  0
   20.8629    7.7192   51.5543 C   0  0  0  0  0  0  0  0  0  0  0  0
   21.6044    7.6655   50.3854 O   0  0  0  0  0  0  0  0  0  0  0  0
   19.6518    8.1202   51.4432 O   0  0  0  0  0  0  0  0  0  0  0  0
   21.1579    7.3439   49.5363 H   0  0  0  0  0  0  0  0  0  0  0  0
   21.1678    5.7658   52.8824 C   0  0  0  0  0  0  0  0  0  0  0  0
   21.6183    5.1617   54.1702 C   0  0  0  0  0  0  0  0  0  0  0  0
   20.1635    5.2205   53.7778 C   0  0  0  0  0  0  0  0  0  0  0  0
   19.5293    3.9257   53.4620 C   0  0  0  0  0  0  0  0  0  0  0  0
   20.1708    2.9940   52.6588 O   0  0  0  0  0  0  0  0  0  0  0  0
   18.3920    3.6333   53.9122 O   0  0  0  0  0  0  0  0  0  0  0  0
   21.0848    2.6507   52.9255 H   0  0  0  0  0  0  0  0  0  0  0  0
   22.8377    7.4524   53.1144 C   0  0  0  0  0  0  0  0  0  0  0  0
   23.6335    8.7261   53.1869 C   0  0  0  0  0  0  0  0  0  0  0  0
   22.7425    9.5629   54.0848 C   0  0  0  0  0  0  0  0  0  0  0  0
   21.4887    9.9176   53.5561 C   0  0  0  0  0  0  0  0  0  0  0  0
   20.5780   10.5442   54.3623 C   0  0  0  0  0  0  0  0  0  0  0  0
   20.8963   10.8204   55.6765 C   0  0  0  0  0  0  0  0  0  0  0  0
   22.1267   10.4701   56.1765 C   0  0  0  0  0  0  0  0  0  0  0  0
   23.0675    9.8314   55.3617 C   0  0  0  0  0  0  0  0  0  0  0  0
   24.3062    9.5112   55.8807 O   0  0  0  0  0  0  0  0  0  0  0  0
   25.2518    8.8976   55.0515 C   0  0  0  0  0  0  0  0  0  0  0  0
   26.5127    8.6269   55.5863 C   0  0  0  0  0  0  0  0  0  0  0  0
   27.4902    8.0686   54.8256 C   0  0  0  0  0  0  0  0  0  0  0  0
   27.2130    7.7734   53.5084 C   0  0  0  0  0  0  0  0  0  0  0  0
   25.9958    8.0181   52.9501 C   0  0  0  0  0  0  0  0  0  0  0  0
   24.9778    8.5943   53.7490 C   0  0  0  0  0  0  0  0  0  0  0  0
  1  2  1  0  0  0
  2 16  1  0  0  0
 16 17  1  0  0  0
 17 18  1  0  0  0
 18 19  2  0  0  0
 19 20  1  0  0  0
 20 21  2  0  0  0
 21 22  1  0  0  0
 22 23  2  0  0  0
 23 24  1  0  0  0
 24 25  1  0  0  0
 25 26  2  0  0  0
 26 27  1  0  0  0
 27 28  2  0  0  0
 28 29  1  0  0  0
 29 30  2  0  0  0
  2  9  1  0  0  0
  9 10  1  0  0  0
 10 11  1  0  0  0
 11 12  1  0  0  0
 12 13  1  0  0  0
 12 14  2  0  0  0
  2  5  1  0  0  0
  5  6  1  0  0  0
  5  7  2  0  0  0
 30 17  1  0  0  0
 11  9  1  0  0  0
 23 18  1  0  0  0
 30 25  1  0  0  0
  1  3  1  0  0  0
  1  4  1  0  0  0
 13 15  1  0  0  0
  6  8  1  0  0  0
M  END
> <minimizedAffinity>
12.68310

> <CNNscore>
0.5486348271

> <CNNaffinity>
6.4865584373

> <CNN_VS>
3.5587518215

> <CNNaffinity_variance>
0.6779004335

$$$$
[H]OC(=O)[C@@]1([H])C([H])([H])[C@]1([H])[C@@](C(=O)O[H])(N([H])[H])C([H])([H])C1([H])c2c([H])c([H])c([H])c([H])c2Oc2c([H])c([H])c([H])c([H])c21


 30 33  0  0  0  0  0  0  0  0999 V2000
   21.1005    8.4465   55.7005 N   0  0  0  0  0  0  0  0  0  0  0  0
   21.7059    9.5077   54.9174 C   0  0  0  0  0  0  0  0  0  0  0  0
   21.3221    7.5011   55.3786 H   0  0  0  0  0  0  0  0  0  0  0  0
   20.1413    8.6281   56.0022 H   0  0  0  0  0  0  0  0  0  0  0  0
   21.2340   10.8333   55.3487 C   0  0  0  0  0  0  0  0  0  0  0  0
   20.7978   11.0836   56.6395 O   0  0  0  0  0  0  0  0  0  0  0  0
   21.2090   11.8230   54.5365 O   0  0  0  0  0  0  0  0  0  0  0  0
   21.0442   11.9614   57.0784 H   0  0  0  0  0  0  0  0  0  0  0  0
   21.0449    9.3757   53.4747 C   0  0  0  0  0  0  0  0  0  0  0  0
   21.9030   10.0010   52.4265 C   0  0  0  0  0  0  0  0  0  0  0  0
   21.6662    8.5130   52.4861 C   0  0  0  0  0  0  0  0  0  0  0  0
   20.8500    7.9470   51.3945 C   0  0  0  0  0  0  0  0  0  0  0  0
   21.4151    7.6441   50.1641 O   0  0  0  0  0  0  0  0  0  0  0  0
   19.6221    7.7244   51.5507 O   0  0  0  0  0  0  0  0  0  0  0  0
   22.1933    6.9986   50.1180 H   0  0  0  0  0  0  0  0  0  0  0  0
   23.1091    9.2772   54.6648 C   0  0  0  0  0  0  0  0  0  0  0  0
   23.9712    8.2226   55.3015 C   0  0  0  0  0  0  0  0  0  0  0  0
   23.5720    7.0057   54.4891 C   0  0  0  0  0  0  0  0  0  0  0  0
   22.2447    6.5671   54.6421 C   0  0  0  0  0  0  0  0  0  0  0  0
   21.7746    5.5691   53.8328 C   0  0  0  0  0  0  0  0  0  0  0  0
   22.6013    5.0064   52.8816 C   0  0  0  0  0  0  0  0  0  0  0  0
   23.8962    5.4442   52.7472 C   0  0  0  0  0  0  0  0  0  0  0  0
   24.3896    6.4620   53.5703 C   0  0  0  0  0  0  0  0  0  0  0  0
   25.7020    6.8678   53.4322 O   0  0  0  0  0  0  0  0  0  0  0  0
   26.1963    7.8671   54.2780 C   0  0  0  0  0  0  0  0  0  0  0  0
   27.5393    8.2266   54.1502 C   0  0  0  0  0  0  0  0  0  0  0  0
   28.0941    9.1613   54.9654 C   0  0  0  0  0  0  0  0  0  0  0  0
   27.3024    9.7509   55.9270 C   0  0  0  0  0  0  0  0  0  0  0  0
   25.9882    9.4313   56.0817 C   0  0  0  0  0  0  0  0  0  0  0  0
   25.4127    8.4609   55.2250 C   0  0  0  0  0  0  0  0  0  0  0  0
  1  2  1  0  0  0
  2 16  1  0  0  0
 16 17  1  0  0  0
 17 18  1  0  0  0
 18 19  2  0  0  0
 19 20  1  0  0  0
 20 21  2  0  0  0
 21 22  1  0  0  0
 22 23  2  0  0  0
 23 24  1  0  0  0
 24 25  1  0  0  0
 25 26  2  0  0  0
 26 27  1  0  0  0
 27 28  2  0  0  0
 28 29  1  0  0  0
 29 30  2  0  0  0
  2  9  1  0  0  0
  9 10  1  0  0  0
 10 11  1  0  0  0
 11 12  1  0  0  0
 12 13  1  0  0  0
 12 14  2  0  0  0
  2  5  1  0  0  0
  5  6  1  0  0  0
  5  7  2  0  0  0
 30 17  1  0  0  0
 11  9  1  0  0  0
 23 18  1  0  0  0
 30 25  1  0  0  0
  1  3  1  0  0  0
  1  4  1  0  0  0
 13 15  1  0  0  0
  6  8  1  0  0  0
M  END
> <minimizedAffinity>
8.80514

> <CNNscore>
0.5445610881

> <CNNaffinity>
6.4273591042

> <CNN_VS>
3.5000896454

> <CNNaffinity_variance>
0.1960973442

$$$$
[H]OC(=O)[C@@]1([H])C([H])([H])[C@]1([H])[C@@](C(=O)O[H])(N([H])[H])C([H])([H])C1([H])c2c([H])c([H])c([H])c([H])c2Oc2c([H])c([H])c([H])c([H])c21


 30 33  0  0  0  0  0  0  0  0999 V2000
   23.0675    5.6568   55.5979 N   0  0  0  0  0  0  0  0  0  0  0  0
   22.3868    6.6325   54.7668 C   0  0  0  0  0  0  0  0  0  0  0  0
   23.3336    4.7966   55.1123 H   0  0  0  0  0  0  0  0  0  0  0  0
   22.6980    5.5669   56.5462 H   0  0  0  0  0  0  0  0  0  0  0  0
   21.9119    7.7784   55.5588 C   0  0  0  0  0  0  0  0  0  0  0  0
   22.6458    8.3153   56.6039 O   0  0  0  0  0  0  0  0  0  0  0  0
   20.7855    8.3339   55.3087 O   0  0  0  0  0  0  0  0  0  0  0  0
   22.6654    9.3199   56.7235 H   0  0  0  0  0  0  0  0  0  0  0  0
   21.0197    5.9293   54.3518 C   0  0  0  0  0  0  0  0  0  0  0  0
   20.5726    6.3708   52.9985 C   0  0  0  0  0  0  0  0  0  0  0  0
   21.0209    4.9575   53.2732 C   0  0  0  0  0  0  0  0  0  0  0  0
   19.9668    3.9259   53.2185 C   0  0  0  0  0  0  0  0  0  0  0  0
   18.7112    4.1591   53.7607 O   0  0  0  0  0  0  0  0  0  0  0  0
   20.1788    2.8096   52.6794 O   0  0  0  0  0  0  0  0  0  0  0  0
   18.1656    4.9467   53.4345 H   0  0  0  0  0  0  0  0  0  0  0  0
   23.0523    6.8426   53.5024 C   0  0  0  0  0  0  0  0  0  0  0  0
   23.9247    8.0104   53.1338 C   0  0  0  0  0  0  0  0  0  0  0  0
   22.9111    9.1382   53.1637 C   0  0  0  0  0  0  0  0  0  0  0  0
   21.8984    9.0869   52.1895 C   0  0  0  0  0  0  0  0  0  0  0  0
   20.8697    9.9869   52.2487 C   0  0  0  0  0  0  0  0  0  0  0  0
   20.8362   10.9297   53.2561 C   0  0  0  0  0  0  0  0  0  0  0  0
   21.8350   10.9684   54.1981 C   0  0  0  0  0  0  0  0  0  0  0  0
   22.8936   10.0554   54.1470 C   0  0  0  0  0  0  0  0  0  0  0  0
   23.8982   10.1301   55.0912 O   0  0  0  0  0  0  0  0  0  0  0  0
   24.9680    9.2311   55.0169 C   0  0  0  0  0  0  0  0  0  0  0  0
   25.9945    9.3575   55.9547 C   0  0  0  0  0  0  0  0  0  0  0  0
   27.0815    8.5433   55.9163 C   0  0  0  0  0  0  0  0  0  0  0  0
   27.1531    7.5853   54.9283 C   0  0  0  0  0  0  0  0  0  0  0  0
   26.1722    7.4271   53.9977 C   0  0  0  0  0  0  0  0  0  0  0  0
   25.0377    8.2741   54.0459 C   0  0  0  0  0  0  0  0  0  0  0  0
  1  2  1  0  0  0
  2 16  1  0  0  0
 16 17  1  0  0  0
 17 18  1  0  0  0
 18 19  2  0  0  0
 19 20  1  0  0  0
 20 21  2  0  0  0
 21 22  1  0  0  0
 22 23  2  0  0  0
 23 24  1  0  0  0
 24 25  1  0  0  0
 25 26  2  0  0  0
 26 27  1  0  0  0
 27 28  2  0  0  0
 28 29  1  0  0  0
 29 30  2  0  0  0
  2  9  1  0  0  0
  9 10  1  0  0  0
 10 11  1  0  0  0
 11 12  1  0  0  0
 12 13  1  0  0  0
 12 14  2  0  0  0
  2  5  1  0  0  0
  5  6  1  0  0  0
  5  7  2  0  0  0
 30 17  1  0  0  0
 11  9  1  0  0  0
 23 18  1  0  0  0
 30 25  1  0  0  0
  1  3  1  0  0  0
  1  4  1  0  0  0
 13 15  1  0  0  0
  6  8  1  0  0  0
M  END
> <minimizedAffinity>
13.97161

> <CNNscore>
0.5326274037

> <CNNaffinity>
5.9850788116

> <CNN_VS>
3.1878170967

> <CNNaffinity_variance>
0.3500696123

$$$$
[H]c1nc(C([H])([H])[H])c([H])c(-c2c([H])c([H])c([H])c(C3=Nc4c([H])c([H])c(C(F)(F)F)c([H])c4N([H])C(=O)C3([H])[H])c2[H])c1[H]


 30 33  0  0  0  0  0  0  0  0999 V2000
   22.1153    8.9360   53.0317 C   0  0  0  0  0  0  0  0  0  0  0  0
   22.5936   10.1172   52.6954 N   0  0  0  0  0  0  0  0  0  0  0  0
   21.9609   11.2032   52.0494 C   0  0  0  0  0  0  0  0  0  0  0  0
   22.4648   12.4451   52.4119 C   0  0  0  0  0  0  0  0  0  0  0  0
   21.9167   13.5763   51.8453 C   0  0  0  0  0  0  0  0  0  0  0  0
   20.8800   13.5222   50.9252 C   0  0  0  0  0  0  0  0  0  0  0  0
   20.3703   12.2995   50.5563 C   0  0  0  0  0  0  0  0  0  0  0  0
   20.9134   11.1768   51.1187 C   0  0  0  0  0  0  0  0  0  0  0  0
   20.3125    9.9433   50.6769 N   0  0  0  0  0  0  0  0  0  0  0  0
   20.3506    8.6799   51.3314 C   0  0  0  0  0  0  0  0  0  0  0  0
   20.0424    7.6823   50.6474 O   0  0  0  0  0  0  0  0  0  0  0  0
   20.7390    8.4699   52.7699 C   0  0  0  0  0  0  0  0  0  0  0  0
   19.7980   10.0343   49.7650 H   0  0  0  0  0  0  0  0  0  0  0  0
   25.2114    7.4485   54.6326 C   0  0  0  0  0  0  0  0  0  0  0  0
   24.7957    6.1837   54.9180 C   0  0  0  0  0  0  0  0  0  0  0  0
   23.4990    5.8410   54.5849 C   0  0  0  0  0  0  0  0  0  0  0  0
   22.6697    6.7484   53.9936 C   0  0  0  0  0  0  0  0  0  0  0  0
   23.0725    8.0535   53.6888 C   0  0  0  0  0  0  0  0  0  0  0  0
   24.3522    8.3796   54.0194 C   0  0  0  0  0  0  0  0  0  0  0  0
   28.2361    9.9879   57.5878 C   0  0  0  0  0  0  0  0  0  0  0  0
   28.0348    9.1189   56.3986 C   0  0  0  0  0  0  0  0  0  0  0  0
   26.7630    8.6963   56.0498 C   0  0  0  0  0  0  0  0  0  0  0  0
   26.5676    7.8877   54.9506 C   0  0  0  0  0  0  0  0  0  0  0  0
   27.6566    7.4978   54.1883 C   0  0  0  0  0  0  0  0  0  0  0  0
   28.8954    7.9427   54.5736 C   0  0  0  0  0  0  0  0  0  0  0  0
   29.0844    8.7194   55.6328 N   0  0  0  0  0  0  0  0  0  0  0  0
   20.3339   14.8067   50.3467 C   0  0  0  0  0  0  0  0  0  0  0  0
   19.3068   15.1863   51.2238 F   0  0  0  0  0  0  0  0  0  0  0  0
   19.7118   14.4905   49.1631 F   0  0  0  0  0  0  0  0  0  0  0  0
   21.3084   15.7505   50.2323 F   0  0  0  0  0  0  0  0  0  0  0  0
 20 21  1  0  0  0
 21 22  2  0  0  0
 22 23  1  0  0  0
 23 24  2  0  0  0
 24 25  1  0  0  0
 25 26  2  0  0  0
 23 14  1  0  0  0
 14 15  2  0  0  0
 15 16  1  0  0  0
 16 17  2  0  0  0
 17 18  1  0  0  0
 18 19  2  0  0  0
 18  1  1  0  0  0
  1  2  2  0  0  0
  2  3  1  0  0  0
  3  4  2  0  0  0
  4  5  1  0  0  0
  5  6  2  0  0  0
  6  7  1  0  0  0
  7  8  2  0  0  0
  8  9  1  0  0  0
  9 10  1  0  0  0
 10 11  2  0  0  0
 10 12  1  0  0  0
  6 27  1  0  0  0
 27 28  1  0  0  0
 27 29  1  0  0  0
 27 30  1  0  0  0
 26 21  1  0  0  0
 19 14  1  0  0  0
 12  1  1  0  0  0
  8  3  1  0  0  0
  9 13  1  0  0  0
M  END
> <minimizedAffinity>
30.04231

> <CNNscore>
0.6482308507

> <CNNaffinity>
6.1745996475

> <CNN_VS>
4.0025658607

> <CNNaffinity_variance>
0.4746636450

$$$$
[H]c1nc(C([H])([H])[H])c([H])c(-c2c([H])c([H])c([H])c(C3=Nc4c([H])c([H])c(C(F)(F)F)c([H])c4N([H])C(=O)C3([H])[H])c2[H])c1[H]


 30 33  0  0  0  0  0  0  0  0999 V2000
   21.3670    6.1191   53.4546 C   0  0  0  0  0  0  0  0  0  0  0  0
   22.6371    5.8070   53.6172 N   0  0  0  0  0  0  0  0  0  0  0  0
   23.7655    6.6434   53.7724 C   0  0  0  0  0  0  0  0  0  0  0  0
   24.7787    6.0854   54.5402 C   0  0  0  0  0  0  0  0  0  0  0  0
   25.9260    6.8176   54.7608 C   0  0  0  0  0  0  0  0  0  0  0  0
   26.1082    8.0921   54.2444 C   0  0  0  0  0  0  0  0  0  0  0  0
   25.1136    8.6582   53.4822 C   0  0  0  0  0  0  0  0  0  0  0  0
   23.9748    7.9324   53.2634 C   0  0  0  0  0  0  0  0  0  0  0  0
   22.9872    8.6079   52.4595 N   0  0  0  0  0  0  0  0  0  0  0  0
   21.5940    8.3268   52.3845 C   0  0  0  0  0  0  0  0  0  0  0  0
   20.9740    8.8092   51.4144 O   0  0  0  0  0  0  0  0  0  0  0  0
   20.8318    7.4930   53.3786 C   0  0  0  0  0  0  0  0  0  0  0  0
   23.3858    9.3893   51.8806 H   0  0  0  0  0  0  0  0  0  0  0  0
   18.4352    3.7292   53.6879 C   0  0  0  0  0  0  0  0  0  0  0  0
   18.8967    2.6550   52.9900 C   0  0  0  0  0  0  0  0  0  0  0  0
   20.1648    2.7360   52.4468 C   0  0  0  0  0  0  0  0  0  0  0  0
   20.9197    3.8609   52.6068 C   0  0  0  0  0  0  0  0  0  0  0  0
   20.4694    4.9774   53.3202 C   0  0  0  0  0  0  0  0  0  0  0  0
   19.2198    4.8860   53.8526 C   0  0  0  0  0  0  0  0  0  0  0  0
   15.6565    3.3320   57.7440 C   0  0  0  0  0  0  0  0  0  0  0  0
   15.7614    3.5356   56.2751 C   0  0  0  0  0  0  0  0  0  0  0  0
   17.0001    3.5300   55.6561 C   0  0  0  0  0  0  0  0  0  0  0  0
   17.1068    3.7214   54.2951 C   0  0  0  0  0  0  0  0  0  0  0  0
   15.9609    3.9185   53.5420 C   0  0  0  0  0  0  0  0  0  0  0  0
   14.7579    3.9148   54.2006 C   0  0  0  0  0  0  0  0  0  0  0  0
   14.6547    3.7328   55.5109 N   0  0  0  0  0  0  0  0  0  0  0  0
   27.3953    8.8306   54.5287 C   0  0  0  0  0  0  0  0  0  0  0  0
   28.3229    7.8259   54.8426 F   0  0  0  0  0  0  0  0  0  0  0  0
   27.2116    9.5407   55.6907 F   0  0  0  0  0  0  0  0  0  0  0  0
   27.7756    9.5885   53.4636 F   0  0  0  0  0  0  0  0  0  0  0  0
 20 21  1  0  0  0
 21 22  2  0  0  0
 22 23  1  0  0  0
 23 24  2  0  0  0
 24 25  1  0  0  0
 25 26  2  0  0  0
 23 14  1  0  0  0
 14 15  2  0  0  0
 15 16  1  0  0  0
 16 17  2  0  0  0
 17 18  1  0  0  0
 18 19  2  0  0  0
 18  1  1  0  0  0
  1  2  2  0  0  0
  2  3  1  0  0  0
  3  4  2  0  0  0
  4  5  1  0  0  0
  5  6  2  0  0  0
  6  7  1  0  0  0
  7  8  2  0  0  0
  8  9  1  0  0  0
  9 10  1  0  0  0
 10 11  2  0  0  0
 10 12  1  0  0  0
  6 27  1  0  0  0
 27 28  1  0  0  0
 27 29  1  0  0  0
 27 30  1  0  0  0
 26 21  1  0  0  0
 19 14  1  0  0  0
 12  1  1  0  0  0
  8  3  1  0  0  0
  9 13  1  0  0  0
M  END
> <minimizedAffinity>
32.11546

> <CNNscore>
0.5754709840

> <CNNaffinity>
6.4181261063

> <CNN_VS>
3.6934454441

> <CNNaffinity_variance>
0.3270590603

$$$$
[H]c1nc(C([H])([H])[H])c([H])c(-c2c([H])c([H])c([H])c(C3=Nc4c([H])c([H])c(C(F)(F)F)c([H])c4N([H])C(=O)C3([H])[H])c2[H])c1[H]


 30 33  0  0  0  0  0  0  0  0999 V2000
   21.9517    6.5640   53.2112 C   0  0  0  0  0  0  0  0  0  0  0  0
   21.3511    5.4584   53.6036 N   0  0  0  0  0  0  0  0  0  0  0  0
   19.9738    5.1518   53.6831 C   0  0  0  0  0  0  0  0  0  0  0  0
   19.6844    3.8073   53.4935 C   0  0  0  0  0  0  0  0  0  0  0  0
   18.3693    3.3964   53.5453 C   0  0  0  0  0  0  0  0  0  0  0  0
   17.3221    4.2752   53.7804 C   0  0  0  0  0  0  0  0  0  0  0  0
   17.5928    5.6099   53.9700 C   0  0  0  0  0  0  0  0  0  0  0  0
   18.8976    6.0183   53.9181 C   0  0  0  0  0  0  0  0  0  0  0  0
   19.0839    7.4330   54.1224 N   0  0  0  0  0  0  0  0  0  0  0  0
   20.2074    8.2206   53.7441 C   0  0  0  0  0  0  0  0  0  0  0  0
   20.3124    9.3441   54.2779 O   0  0  0  0  0  0  0  0  0  0  0  0
   21.2650    7.7919   52.7633 C   0  0  0  0  0  0  0  0  0  0  0  0
   18.2735    7.8934   54.6080 H   0  0  0  0  0  0  0  0  0  0  0  0
   25.6004    7.2615   53.9609 C   0  0  0  0  0  0  0  0  0  0  0  0
   26.2241    6.3096   53.2133 C   0  0  0  0  0  0  0  0  0  0  0  0
   25.4333    5.4472   52.4780 C   0  0  0  0  0  0  0  0  0  0  0  0
   24.0735    5.5520   52.5100 C   0  0  0  0  0  0  0  0  0  0  0  0
   23.4084    6.5216   53.2688 C   0  0  0  0  0  0  0  0  0  0  0  0
   24.1971    7.3670   53.9875 C   0  0  0  0  0  0  0  0  0  0  0  0
   29.7089    9.9238   54.5638 C   0  0  0  0  0  0  0  0  0  0  0  0
   28.3642    9.5120   55.0458 C   0  0  0  0  0  0  0  0  0  0  0  0
   27.6142    8.5973   54.3257 C   0  0  0  0  0  0  0  0  0  0  0  0
   26.3650    8.2125   54.7636 C   0  0  0  0  0  0  0  0  0  0  0  0
   25.8592    8.7465   55.9375 C   0  0  0  0  0  0  0  0  0  0  0  0
   26.6399    9.6477   56.6152 C   0  0  0  0  0  0  0  0  0  0  0  0
   27.8416   10.0201   56.1931 N   0  0  0  0  0  0  0  0  0  0  0  0
   15.9069    3.7478   53.8247 C   0  0  0  0  0  0  0  0  0  0  0  0
   15.1322    4.7494   53.2206 F   0  0  0  0  0  0  0  0  0  0  0  0
   15.5197    3.7250   55.1429 F   0  0  0  0  0  0  0  0  0  0  0  0
   15.8073    2.5468   53.1911 F   0  0  0  0  0  0  0  0  0  0  0  0
 20 21  1  0  0  0
 21 22  2  0  0  0
 22 23  1  0  0  0
 23 24  2  0  0  0
 24 25  1  0  0  0
 25 26  2  0  0  0
 23 14  1  0  0  0
 14 15  2  0  0  0
 15 16  1  0  0  0
 16 17  2  0  0  0
 17 18  1  0  0  0
 18 19  2  0  0  0
 18  1  1  0  0  0
  1  2  2  0  0  0
  2  3  1  0  0  0
  3  4  2  0  0  0
  4  5  1  0  0  0
  5  6  2  0  0  0
  6  7  1  0  0  0
  7  8  2  0  0  0
  8  9  1  0  0  0
  9 10  1  0  0  0
 10 11  2  0  0  0
 10 12  1  0  0  0
  6 27  1  0  0  0
 27 28  1  0  0  0
 27 29  1  0  0  0
 27 30  1  0  0  0
 26 21  1  0  0  0
 19 14  1  0  0  0
 12  1  1  0  0  0
  8  3  1  0  0  0
  9 13  1  0  0  0
M  END
> <minimizedAffinity>
35.41188

> <CNNscore>
0.5336875319

> <CNNaffinity>
6.2171068192

> <CNN_VS>
3.3179924488

> <CNNaffinity_variance>
0.8363129497

$$$$
[H]c1nc(C([H])([H])[H])c([H])c(-c2c([H])c([H])c([H])c(C3=Nc4c([H])c([H])c(C(F)(F)F)c([H])c4N([H])C(=O)C3([H])[H])c2[H])c1[H]


 30 33  0  0  0  0  0  0  0  0999 V2000
   22.1984    9.0750   53.6593 C   0  0  0  0  0  0  0  0  0  0  0  0
   21.7416    9.6467   52.5632 N   0  0  0  0  0  0  0  0  0  0  0  0
   21.4735   11.0076   52.2924 C   0  0  0  0  0  0  0  0  0  0  0  0
   21.6402   11.3600   50.9599 C   0  0  0  0  0  0  0  0  0  0  0  0
   21.4098   12.6664   50.5837 C   0  0  0  0  0  0  0  0  0  0  0  0
   21.0168   13.6440   51.4859 C   0  0  0  0  0  0  0  0  0  0  0  0
   20.8476   13.3103   52.8090 C   0  0  0  0  0  0  0  0  0  0  0  0
   21.0766   12.0144   53.1830 C   0  0  0  0  0  0  0  0  0  0  0  0
   20.8799   11.7599   54.5881 N   0  0  0  0  0  0  0  0  0  0  0  0
   21.4010   10.6779   55.3521 C   0  0  0  0  0  0  0  0  0  0  0  0
   20.8710   10.4662   56.4622 O   0  0  0  0  0  0  0  0  0  0  0  0
   22.5271    9.7814   54.9134 C   0  0  0  0  0  0  0  0  0  0  0  0
   20.2784   12.4802   55.0611 H   0  0  0  0  0  0  0  0  0  0  0  0
   21.5700    5.3438   53.4464 C   0  0  0  0  0  0  0  0  0  0  0  0
   22.8375    4.8471   53.4727 C   0  0  0  0  0  0  0  0  0  0  0  0
   23.8815    5.7490   53.5534 C   0  0  0  0  0  0  0  0  0  0  0  0
   23.6396    7.0907   53.6009 C   0  0  0  0  0  0  0  0  0  0  0  0
   22.3471    7.6265   53.5766 C   0  0  0  0  0  0  0  0  0  0  0  0
   21.3264    6.7291   53.4990 C   0  0  0  0  0  0  0  0  0  0  0  0
   16.8071    4.5263   54.4351 C   0  0  0  0  0  0  0  0  0  0  0  0
   18.0914    4.0695   53.8419 C   0  0  0  0  0  0  0  0  0  0  0  0
   19.2185    4.8710   53.9150 C   0  0  0  0  0  0  0  0  0  0  0  0
   20.4126    4.4567   53.3647 C   0  0  0  0  0  0  0  0  0  0  0  0
   20.4826    3.2246   52.7353 C   0  0  0  0  0  0  0  0  0  0  0  0
   19.3401    2.4673   52.6894 C   0  0  0  0  0  0  0  0  0  0  0  0
   18.1898    2.8665   53.2170 N   0  0  0  0  0  0  0  0  0  0  0  0
   20.7814   15.0538   50.9960 C   0  0  0  0  0  0  0  0  0  0  0  0
   19.8774   15.6063   51.9156 F   0  0  0  0  0  0  0  0  0  0  0  0
   20.0944   14.9653   49.8093 F   0  0  0  0  0  0  0  0  0  0  0  0
   21.9485   15.7505   50.9167 F   0  0  0  0  0  0  0  0  0  0  0  0
 20 21  1  0  0  0
 21 22  2  0  0  0
 22 23  1  0  0  0
 23 24  2  0  0  0
 24 25  1  0  0  0
 25 26  2  0  0  0
 23 14  1  0  0  0
 14 15  2  0  0  0
 15 16  1  0  0  0
 16 17  2  0  0  0
 17 18  1  0  0  0
 18 19  2  0  0  0
 18  1  1  0  0  0
  1  2  2  0  0  0
  2  3  1  0  0  0
  3  4  2  0  0  0
  4  5  1  0  0  0
  5  6  2  0  0  0
  6  7  1  0  0  0
  7  8  2  0  0  0
  8  9  1  0  0  0
  9 10  1  0  0  0
 10 11  2  0  0  0
 10 12  1  0  0  0
  6 27  1  0  0  0
 27 28  1  0  0  0
 27 29  1  0  0  0
 27 30  1  0  0  0
 26 21  1  0  0  0
 19 14  1  0  0  0
 12  1  1  0  0  0
  8  3  1  0  0  0
  9 13  1  0  0  0
M  END
> <minimizedAffinity>
34.11677

> <CNNscore>
0.5283017159

> <CNNaffinity>
6.2524070740

> <CNN_VS>
3.3031573296

> <CNNaffinity_variance>
0.4612692297

$$$$
[H]c1nc(C([H])([H])[H])c([H])c(-c2c([H])c([H])c([H])c(C3=Nc4c([H])c([H])c(C(F)(F)F)c([H])c4N([H])C(=O)C3([H])[H])c2[H])c1[H]


 30 33  0  0  0  0  0  0  0  0999 V2000
   24.6010    8.3430   54.5786 C   0  0  0  0  0  0  0  0  0  0  0  0
   24.2424    7.0751   54.6055 N   0  0  0  0  0  0  0  0  0  0  0  0
   22.9877    6.4801   54.3430 C   0  0  0  0  0  0  0  0  0  0  0  0
   23.0714    5.1946   53.8253 C   0  0  0  0  0  0  0  0  0  0  0  0
   21.9060    4.5206   53.5271 C   0  0  0  0  0  0  0  0  0  0  0  0
   20.6510    5.0774   53.7249 C   0  0  0  0  0  0  0  0  0  0  0  0
   20.5519    6.3496   54.2369 C   0  0  0  0  0  0  0  0  0  0  0  0
   21.7079    7.0191   54.5325 C   0  0  0  0  0  0  0  0  0  0  0  0
   21.5059    8.3460   55.0582 N   0  0  0  0  0  0  0  0  0  0  0  0
   22.4422    9.4177   55.0834 C   0  0  0  0  0  0  0  0  0  0  0  0
   22.1863   10.3706   55.8481 O   0  0  0  0  0  0  0  0  0  0  0  0
   23.7047    9.4740   54.2666 C   0  0  0  0  0  0  0  0  0  0  0  0
   20.5448    8.4938   55.4566 H   0  0  0  0  0  0  0  0  0  0  0  0
   27.8224    9.3037   56.3282 C   0  0  0  0  0  0  0  0  0  0  0  0
   28.7488    9.0489   55.3634 C   0  0  0  0  0  0  0  0  0  0  0  0
   28.2995    8.5578   54.1524 C   0  0  0  0  0  0  0  0  0  0  0  0
   26.9701    8.3355   53.9418 C   0  0  0  0  0  0  0  0  0  0  0  0
   25.9982    8.5902   54.9159 C   0  0  0  0  0  0  0  0  0  0  0  0
   26.4517    9.0755   56.1042 C   0  0  0  0  0  0  0  0  0  0  0  0
   29.5032    8.4367   60.8839 C   0  0  0  0  0  0  0  0  0  0  0  0
   29.0427    9.3975   59.8471 C   0  0  0  0  0  0  0  0  0  0  0  0
   28.6414    8.9423   58.6023 C   0  0  0  0  0  0  0  0  0  0  0  0
   28.2160    9.8265   57.6340 C   0  0  0  0  0  0  0  0  0  0  0  0
   28.1889   11.1831   57.9135 C   0  0  0  0  0  0  0  0  0  0  0  0
   28.5951   11.5844   59.1604 C   0  0  0  0  0  0  0  0  0  0  0  0
   29.0067   10.7340   60.0922 N   0  0  0  0  0  0  0  0  0  0  0  0
   19.4199    4.2742   53.3754 C   0  0  0  0  0  0  0  0  0  0  0  0
   18.4132    5.2306   53.1750 F   0  0  0  0  0  0  0  0  0  0  0  0
   19.0511    3.5794   54.5021 F   0  0  0  0  0  0  0  0  0  0  0  0
   19.6338    3.4931   52.2810 F   0  0  0  0  0  0  0  0  0  0  0  0
 20 21  1  0  0  0
 21 22  2  0  0  0
 22 23  1  0  0  0
 23 24  2  0  0  0
 24 25  1  0  0  0
 25 26  2  0  0  0
 23 14  1  0  0  0
 14 15  2  0  0  0
 15 16  1  0  0  0
 16 17  2  0  0  0
 17 18  1  0  0  0
 18 19  2  0  0  0
 18  1  1  0  0  0
  1  2  2  0  0  0
  2  3  1  0  0  0
  3  4  2  0  0  0
  4  5  1  0  0  0
  5  6  2  0  0  0
  6  7  1  0  0  0
  7  8  2  0  0  0
  8  9  1  0  0  0
  9 10  1  0  0  0
 10 11  2  0  0  0
 10 12  1  0  0  0
  6 27  1  0  0  0
 27 28  1  0  0  0
 27 29  1  0  0  0
 27 30  1  0  0  0
 26 21  1  0  0  0
 19 14  1  0  0  0
 12  1  1  0  0  0
  8  3  1  0  0  0
  9 13  1  0  0  0
M  END
> <minimizedAffinity>
13.80424

> <CNNscore>
0.5265800953

> <CNNaffinity>
6.2291049957

> <CNN_VS>
3.2801227570

> <CNNaffinity_variance>
0.0651639700

$$$$
[H]c1nc(C([H])([H])[H])c([H])c(-c2c([H])c([H])c([H])c(C3=Nc4c([H])c([H])c(C(F)(F)F)c([H])c4N([H])C(=O)C3([H])[H])c2[H])c1[H]


 30 33  0  0  0  0  0  0  0  0999 V2000
   24.6206    8.3551   54.5794 C   0  0  0  0  0  0  0  0  0  0  0  0
   24.2545    7.0898   54.6244 N   0  0  0  0  0  0  0  0  0  0  0  0
   23.0007    6.4967   54.3538 C   0  0  0  0  0  0  0  0  0  0  0  0
   23.0851    5.2012   53.8615 C   0  0  0  0  0  0  0  0  0  0  0  0
   21.9207    4.5280   53.5581 C   0  0  0  0  0  0  0  0  0  0  0  0
   20.6659    5.0950   53.7262 C   0  0  0  0  0  0  0  0  0  0  0  0
   20.5661    6.3771   54.2127 C   0  0  0  0  0  0  0  0  0  0  0  0
   21.7211    7.0459   54.5135 C   0  0  0  0  0  0  0  0  0  0  0  0
   21.5186    8.3835   55.0111 N   0  0  0  0  0  0  0  0  0  0  0  0
   22.4603    9.4505   55.0307 C   0  0  0  0  0  0  0  0  0  0  0  0
   22.1981   10.4189   55.7735 O   0  0  0  0  0  0  0  0  0  0  0  0
   23.7355    9.4847   54.2326 C   0  0  0  0  0  0  0  0  0  0  0  0
   20.5523    8.5438   55.3919 H   0  0  0  0  0  0  0  0  0  0  0  0
   27.8281    9.2362   56.3953 C   0  0  0  0  0  0  0  0  0  0  0  0
   28.7566    9.0746   55.4125 C   0  0  0  0  0  0  0  0  0  0  0  0
   28.3134    8.6713   54.1673 C   0  0  0  0  0  0  0  0  0  0  0  0
   26.9878    8.4414   53.9415 C   0  0  0  0  0  0  0  0  0  0  0  0
   26.0138    8.6012   54.9335 C   0  0  0  0  0  0  0  0  0  0  0  0
   26.4612    9.0007   56.1556 C   0  0  0  0  0  0  0  0  0  0  0  0
   28.5298   12.9080   59.6133 C   0  0  0  0  0  0  0  0  0  0  0  0
   28.5463   11.4547   59.3009 C   0  0  0  0  0  0  0  0  0  0  0  0
   28.2058   11.0087   58.0348 C   0  0  0  0  0  0  0  0  0  0  0  0
   28.2152    9.6627   57.7374 C   0  0  0  0  0  0  0  0  0  0  0  0
   28.5717    8.7502   58.7169 C   0  0  0  0  0  0  0  0  0  0  0  0
   28.9014    9.2408   59.9544 C   0  0  0  0  0  0  0  0  0  0  0  0
   28.8905   10.5362   60.2419 N   0  0  0  0  0  0  0  0  0  0  0  0
   19.4358    4.2919   53.3728 C   0  0  0  0  0  0  0  0  0  0  0  0
   18.4327    5.2490   53.1584 F   0  0  0  0  0  0  0  0  0  0  0  0
   19.0571    3.6055   54.5014 F   0  0  0  0  0  0  0  0  0  0  0  0
   19.6564    3.5031   52.2854 F   0  0  0  0  0  0  0  0  0  0  0  0
 20 21  1  0  0  0
 21 22  2  0  0  0
 22 23  1  0  0  0
 23 24  2  0  0  0
 24 25  1  0  0  0
 25 26  2  0  0  0
 23 14  1  0  0  0
 14 15  2  0  0  0
 15 16  1  0  0  0
 16 17  2  0  0  0
 17 18  1  0  0  0
 18 19  2  0  0  0
 18  1  1  0  0  0
  1  2  2  0  0  0
  2  3  1  0  0  0
  3  4  2  0  0  0
  4  5  1  0  0  0
  5  6  2  0  0  0
  6  7  1  0  0  0
  7  8  2  0  0  0
  8  9  1  0  0  0
  9 10  1  0  0  0
 10 11  2  0  0  0
 10 12  1  0  0  0
  6 27  1  0  0  0
 27 28  1  0  0  0
 27 29  1  0  0  0
 27 30  1  0  0  0
 26 21  1  0  0  0
 19 14  1  0  0  0
 12  1  1  0  0  0
  8  3  1  0  0  0
  9 13  1  0  0  0
M  END
> <minimizedAffinity>
13.66115

> <CNNscore>
0.5242393613

> <CNNaffinity>
6.2132325172

> <CNN_VS>
3.2572209835

> <CNNaffinity_variance>
0.0719777495

$$$$
[H]c1nc(C([H])([H])[H])c([H])c(-c2c([H])c([H])c([H])c(C3=Nc4c([H])c([H])c(C(F)(F)F)c([H])c4N([H])C(=O)C3([H])[H])c2[H])c1[H]


 30 33  0  0  0  0  0  0  0  0999 V2000
   23.1424    8.0298   54.0026 C   0  0  0  0  0  0  0  0  0  0  0  0
   22.7829    6.8196   54.3808 N   0  0  0  0  0  0  0  0  0  0  0  0
   21.6765    6.0349   53.9842 C   0  0  0  0  0  0  0  0  0  0  0  0
   21.9123    4.6673   54.0255 C   0  0  0  0  0  0  0  0  0  0  0  0
   20.9013    3.8066   53.6538 C   0  0  0  0  0  0  0  0  0  0  0  0
   19.6553    4.2543   53.2400 C   0  0  0  0  0  0  0  0  0  0  0  0
   19.4066    5.6059   53.1937 C   0  0  0  0  0  0  0  0  0  0  0  0
   20.4096    6.4604   53.5619 C   0  0  0  0  0  0  0  0  0  0  0  0
   20.0598    7.8561   53.4762 N   0  0  0  0  0  0  0  0  0  0  0  0
   20.9466    8.9662   53.3923 C   0  0  0  0  0  0  0  0  0  0  0  0
   20.4646   10.0913   53.6372 O   0  0  0  0  0  0  0  0  0  0  0  0
   22.4066    8.8737   53.0401 C   0  0  0  0  0  0  0  0  0  0  0  0
   19.0226    8.0259   53.4783 H   0  0  0  0  0  0  0  0  0  0  0  0
   26.7354    8.6646   55.0268 C   0  0  0  0  0  0  0  0  0  0  0  0
   26.5833    9.5926   56.0116 C   0  0  0  0  0  0  0  0  0  0  0  0
   25.2995   10.0009   56.3195 C   0  0  0  0  0  0  0  0  0  0  0  0
   24.2270    9.4879   55.6505 C   0  0  0  0  0  0  0  0  0  0  0  0
   24.3560    8.5328   54.6359 C   0  0  0  0  0  0  0  0  0  0  0  0
   25.6248    8.1364   54.3421 C   0  0  0  0  0  0  0  0  0  0  0  0
   29.4727    5.3566   52.5989 C   0  0  0  0  0  0  0  0  0  0  0  0
   29.3843    6.5703   53.4526 C   0  0  0  0  0  0  0  0  0  0  0  0
   28.1501    7.0526   53.8551 C   0  0  0  0  0  0  0  0  0  0  0  0
   28.0587    8.1793   54.6441 C   0  0  0  0  0  0  0  0  0  0  0  0
   29.2155    8.8317   55.0382 C   0  0  0  0  0  0  0  0  0  0  0  0
   30.4134    8.3153   54.6148 C   0  0  0  0  0  0  0  0  0  0  0  0
   30.5019    7.2319   53.8536 N   0  0  0  0  0  0  0  0  0  0  0  0
   18.5975    3.2482   52.8503 C   0  0  0  0  0  0  0  0  0  0  0  0
   19.1206    2.0076   53.2448 F   0  0  0  0  0  0  0  0  0  0  0  0
   18.5535    3.2116   51.4775 F   0  0  0  0  0  0  0  0  0  0  0  0
   17.4043    3.5320   53.4414 F   0  0  0  0  0  0  0  0  0  0  0  0
 20 21  1  0  0  0
 21 22  2  0  0  0
 22 23  1  0  0  0
 23 24  2  0  0  0
 24 25  1  0  0  0
 25 26  2  0  0  0
 23 14  1  0  0  0
 14 15  2  0  0  0
 15 16  1  0  0  0
 16 17  2  0  0  0
 17 18  1  0  0  0
 18 19  2  0  0  0
 18  1  1  0  0  0
  1  2  2  0  0  0
  2  3  1  0  0  0
  3  4  2  0  0  0
  4  5  1  0  0  0
  5  6  2  0  0  0
  6  7  1  0  0  0
  7  8  2  0  0  0
  8  9  1  0  0  0
  9 10  1  0  0  0
 10 11  2  0  0  0
 10 12  1  0  0  0
  6 27  1  0  0  0
 27 28  1  0  0  0
 27 29  1  0  0  0
 27 30  1  0  0  0
 26 21  1  0  0  0
 19 14  1  0  0  0
 12  1  1  0  0  0
  8  3  1  0  0  0
  9 13  1  0  0  0
M  END
> <minimizedAffinity>
44.12013

> <CNNscore>
0.5079389215

> <CNNaffinity>
6.1863489151

> <CNN_VS>
3.1422874928

> <CNNaffinity_variance>
0.6991526484

$$$$
[H]c1nc(C([H])([H])[H])c([H])c(-c2c([H])c([H])c([H])c(C3=Nc4c([H])c([H])c(C(F)(F)F)c([H])c4N([H])C(=O)C3([H])[H])c2[H])c1[H]


 30 33  0  0  0  0  0  0  0  0999 V2000
   25.7723    8.9164   55.2733 C   0  0  0  0  0  0  0  0  0  0  0  0
   24.4805    9.1655   55.3522 N   0  0  0  0  0  0  0  0  0  0  0  0
   23.4124    8.6833   54.5624 C   0  0  0  0  0  0  0  0  0  0  0  0
   22.2073    8.5846   55.2448 C   0  0  0  0  0  0  0  0  0  0  0  0
   21.0977    8.1199   54.5711 C   0  0  0  0  0  0  0  0  0  0  0  0
   21.1380    7.7469   53.2357 C   0  0  0  0  0  0  0  0  0  0  0  0
   22.3243    7.8389   52.5464 C   0  0  0  0  0  0  0  0  0  0  0  0
   23.4258    8.2994   53.2145 C   0  0  0  0  0  0  0  0  0  0  0  0
   24.6232    8.3562   52.4140 N   0  0  0  0  0  0  0  0  0  0  0  0
   25.9697    8.3927   52.8738 C   0  0  0  0  0  0  0  0  0  0  0  0
   26.8364    8.7495   52.0494 O   0  0  0  0  0  0  0  0  0  0  0  0
   26.4100    8.0417   54.2692 C   0  0  0  0  0  0  0  0  0  0  0  0
   24.4324    8.3694   51.3806 H   0  0  0  0  0  0  0  0  0  0  0  0
   28.0852    9.7571   58.1552 C   0  0  0  0  0  0  0  0  0  0  0  0
   28.0702   11.1185   58.1348 C   0  0  0  0  0  0  0  0  0  0  0  0
   27.3035   11.7401   57.1676 C   0  0  0  0  0  0  0  0  0  0  0  0
   26.5919   11.0050   56.2652 C   0  0  0  0  0  0  0  0  0  0  0  0
   26.5893    9.6056   56.2654 C   0  0  0  0  0  0  0  0  0  0  0  0
   27.3463    9.0038   57.2236 C   0  0  0  0  0  0  0  0  0  0  0  0
   29.2161    5.4609   60.2985 C   0  0  0  0  0  0  0  0  0  0  0  0
   29.4196    6.9287   60.1800 C   0  0  0  0  0  0  0  0  0  0  0  0
   28.6835    7.6642   59.2662 C   0  0  0  0  0  0  0  0  0  0  0  0
   28.8681    9.0251   59.1473 C   0  0  0  0  0  0  0  0  0  0  0  0
   29.7985    9.6603   59.9535 C   0  0  0  0  0  0  0  0  0  0  0  0
   30.5019    8.8891   60.8432 C   0  0  0  0  0  0  0  0  0  0  0  0
   30.3262    7.5788   60.9566 N   0  0  0  0  0  0  0  0  0  0  0  0
   19.8783    7.2491   52.5663 C   0  0  0  0  0  0  0  0  0  0  0  0
   20.1972    7.1903   51.2013 F   0  0  0  0  0  0  0  0  0  0  0  0
   18.9337    8.2401   52.6833 F   0  0  0  0  0  0  0  0  0  0  0  0
   19.4925    6.0455   53.0723 F   0  0  0  0  0  0  0  0  0  0  0  0
 20 21  1  0  0  0
 21 22  2  0  0  0
 22 23  1  0  0  0
 23 24  2  0  0  0
 24 25  1  0  0  0
 25 26  2  0  0  0
 23 14  1  0  0  0
 14 15  2  0  0  0
 15 16  1  0  0  0
 16 17  2  0  0  0
 17 18  1  0  0  0
 18 19  2  0  0  0
 18  1  1  0  0  0
  1  2  2  0  0  0
  2  3  1  0  0  0
  3  4  2  0  0  0
  4  5  1  0  0  0
  5  6  2  0  0  0
  6  7  1  0  0  0
  7  8  2  0  0  0
  8  9  1  0  0  0
  9 10  1  0  0  0
 10 11  2  0  0  0
 10 12  1  0  0  0
  6 27  1  0  0  0
 27 28  1  0  0  0
 27 29  1  0  0  0
 27 30  1  0  0  0
 26 21  1  0  0  0
 19 14  1  0  0  0
 12  1  1  0  0  0
  8  3  1  0  0  0
  9 13  1  0  0  0
M  END
> <minimizedAffinity>
20.07670

> <CNNscore>
0.5077313781

> <CNNaffinity>
5.7946491241

> <CNN_VS>
2.9421250820

> <CNNaffinity_variance>
0.0516919121

$$$$
[H]c1nc(C([H])([H])[H])c([H])c(-c2c([H])c([H])c([H])c(C3=Nc4c([H])c([H])c(C(F)(F)F)c([H])c4N([H])C(=O)C3([H])[H])c2[H])c1[H]


 30 33  0  0  0  0  0  0  0  0999 V2000
   21.2020    5.9053   53.7386 C   0  0  0  0  0  0  0  0  0  0  0  0
   19.9270    6.0794   53.4537 N   0  0  0  0  0  0  0  0  0  0  0  0
   18.8583    5.1548   53.4687 C   0  0  0  0  0  0  0  0  0  0  0  0
   17.6262    5.7230   53.7629 C   0  0  0  0  0  0  0  0  0  0  0  0
   16.5132    4.9105   53.8091 C   0  0  0  0  0  0  0  0  0  0  0  0
   16.5762    3.5452   53.5721 C   0  0  0  0  0  0  0  0  0  0  0  0
   17.7893    2.9679   53.2795 C   0  0  0  0  0  0  0  0  0  0  0  0
   18.8942    3.7735   53.2341 C   0  0  0  0  0  0  0  0  0  0  0  0
   20.1201    3.0806   52.9261 N   0  0  0  0  0  0  0  0  0  0  0  0
   21.4491    3.5160   53.1902 C   0  0  0  0  0  0  0  0  0  0  0  0
   22.3655    2.9301   52.5777 O   0  0  0  0  0  0  0  0  0  0  0  0
   21.8166    4.6242   54.1395 C   0  0  0  0  0  0  0  0  0  0  0  0
   19.9670    2.1538   52.4548 H   0  0  0  0  0  0  0  0  0  0  0  0
   23.9383    8.5090   54.0471 C   0  0  0  0  0  0  0  0  0  0  0  0
   23.4562    9.5123   53.2628 C   0  0  0  0  0  0  0  0  0  0  0  0
   22.2395    9.3139   52.6382 C   0  0  0  0  0  0  0  0  0  0  0  0
   21.5539    8.1465   52.8052 C   0  0  0  0  0  0  0  0  0  0  0  0
   22.0266    7.1010   53.6063 C   0  0  0  0  0  0  0  0  0  0  0  0
   23.2249    7.3078   54.2183 C   0  0  0  0  0  0  0  0  0  0  0  0
   28.8649    8.6229   53.8326 C   0  0  0  0  0  0  0  0  0  0  0  0
   27.6128    8.7048   54.6299 C   0  0  0  0  0  0  0  0  0  0  0  0
   26.3813    8.5640   54.0123 C   0  0  0  0  0  0  0  0  0  0  0  0
   25.2152    8.6418   54.7434 C   0  0  0  0  0  0  0  0  0  0  0  0
   25.2801    8.8608   56.1098 C   0  0  0  0  0  0  0  0  0  0  0  0
   26.5226    8.9928   56.6751 C   0  0  0  0  0  0  0  0  0  0  0  0
   27.6454    8.9201   55.9715 N   0  0  0  0  0  0  0  0  0  0  0  0
   15.3111    2.7217   53.6389 C   0  0  0  0  0  0  0  0  0  0  0  0
   14.3853    3.4229   52.8519 F   0  0  0  0  0  0  0  0  0  0  0  0
   14.8381    2.8020   54.9265 F   0  0  0  0  0  0  0  0  0  0  0  0
   15.5251    1.4511   53.1993 F   0  0  0  0  0  0  0  0  0  0  0  0
 20 21  1  0  0  0
 21 22  2  0  0  0
 22 23  1  0  0  0
 23 24  2  0  0  0
 24 25  1  0  0  0
 25 26  2  0  0  0
 23 14  1  0  0  0
 14 15  2  0  0  0
 15 16  1  0  0  0
 16 17  2  0  0  0
 17 18  1  0  0  0
 18 19  2  0  0  0
 18  1  1  0  0  0
  1  2  2  0  0  0
  2  3  1  0  0  0
  3  4  2  0  0  0
  4  5  1  0  0  0
  5  6  2  0  0  0
  6  7  1  0  0  0
  7  8  2  0  0  0
  8  9  1  0  0  0
  9 10  1  0  0  0
 10 11  2  0  0  0
 10 12  1  0  0  0
  6 27  1  0  0  0
 27 28  1  0  0  0
 27 29  1  0  0  0
 27 30  1  0  0  0
 26 21  1  0  0  0
 19 14  1  0  0  0
 12  1  1  0  0  0
  8  3  1  0  0  0
  9 13  1  0  0  0
M  END
> <minimizedAffinity>
45.94745

> <CNNscore>
0.5059722066

> <CNNaffinity>
5.9977474213

> <CNN_VS>
3.0346934795

> <CNNaffinity_variance>
0.3483558297

$$$$
[H]OC(=O)[C@]1(N([H])[H])C([H])([H])C([H])([H])[C@@]2([H])[C@](F)(C(=O)O[H])[C@@]12[H]


 18 19  0  0  0  0  0  0  0  0999 V2000
   20.0129    6.9010   53.0162 N   0  0  0  0  0  0  0  0  0  0  0  0
   21.0231    7.8983   52.9196 C   0  0  0  0  0  0  0  0  0  0  0  0
   20.7663    9.0245   53.9619 C   0  0  0  0  0  0  0  0  0  0  0  0
   22.1457    9.5257   54.1888 C   0  0  0  0  0  0  0  0  0  0  0  0
   23.0869    8.3644   54.1237 C   0  0  0  0  0  0  0  0  0  0  0  0
   22.3870    7.3601   53.2916 C   0  0  0  0  0  0  0  0  0  0  0  0
   22.6665    7.0020   54.6672 C   0  0  0  0  0  0  0  0  0  0  0  0
   21.7485    7.1558   55.7189 F   0  0  0  0  0  0  0  0  0  0  0  0
   20.1981    6.1934   52.2887 H   0  0  0  0  0  0  0  0  0  0  0  0
   19.0640    7.2759   52.9226 H   0  0  0  0  0  0  0  0  0  0  0  0
   23.8637    6.2697   55.1202 C   0  0  0  0  0  0  0  0  0  0  0  0
   25.1314    6.6356   54.7711 O   0  0  0  0  0  0  0  0  0  0  0  0
   23.7109    5.2117   55.8801 O   0  0  0  0  0  0  0  0  0  0  0  0
   25.3385    7.1051   53.8842 H   0  0  0  0  0  0  0  0  0  0  0  0
   20.9940    8.6054   51.6302 C   0  0  0  0  0  0  0  0  0  0  0  0
   20.8807    7.8626   50.4572 O   0  0  0  0  0  0  0  0  0  0  0  0
   21.0653    9.8856   51.5261 O   0  0  0  0  0  0  0  0  0  0  0  0
   20.8031    6.8761   50.4963 H   0  0  0  0  0  0  0  0  0  0  0  0
  1  2  1  0  0  0
  2  3  1  0  0  0
  3  4  1  0  0  0
  4  5  1  0  0  0
  5  6  1  0  0  0
  6  7  1  0  0  0
  7  8  1  0  0  0
  7 11  1  0  0  0
 11 12  1  0  0  0
 11 13  2  0  0  0
  2 15  1  0  0  0
 15 16  1  0  0  0
 15 17  2  0  0  0
  6  2  1  0  0  0
  7  5  1  0  0  0
  1  9  1  0  0  0
  1 10  1  0  0  0
 12 14  1  0  0  0
 16 18  1  0  0  0
M  END
> <minimizedAffinity>
-6.66936

> <CNNscore>
0.9360306859

> <CNNaffinity>
5.8493223190

> <CNN_VS>
5.4751453400

> <CNNaffinity_variance>
0.2067330778

$$$$
[H]OC(=O)[C@]1(N([H])[H])C([H])([H])C([H])([H])[C@@]2([H])[C@](F)(C(=O)O[H])[C@@]12[H]


 18 19  0  0  0  0  0  0  0  0999 V2000
   21.1856    8.2070   51.2533 N   0  0  0  0  0  0  0  0  0  0  0  0
   21.4485    8.8301   52.5051 C   0  0  0  0  0  0  0  0  0  0  0  0
   20.3024    8.5192   53.5103 C   0  0  0  0  0  0  0  0  0  0  0  0
   21.0223    8.6163   54.8056 C   0  0  0  0  0  0  0  0  0  0  0  0
   22.4097    8.0895   54.6156 C   0  0  0  0  0  0  0  0  0  0  0  0
   22.6827    8.2630   53.1712 C   0  0  0  0  0  0  0  0  0  0  0  0
   22.6633    6.9081   53.6837 C   0  0  0  0  0  0  0  0  0  0  0  0
   21.5377    6.0693   53.6382 F   0  0  0  0  0  0  0  0  0  0  0  0
   21.9470    8.4650   50.6068 H   0  0  0  0  0  0  0  0  0  0  0  0
   20.2748    8.4607   50.8586 H   0  0  0  0  0  0  0  0  0  0  0  0
   23.8497    6.1673   54.1509 C   0  0  0  0  0  0  0  0  0  0  0  0
   23.8600    5.4377   55.3043 O   0  0  0  0  0  0  0  0  0  0  0  0
   24.9506    6.2186   53.4399 O   0  0  0  0  0  0  0  0  0  0  0  0
   23.2768    5.6836   56.1101 H   0  0  0  0  0  0  0  0  0  0  0  0
   21.4426   10.2981   52.4150 C   0  0  0  0  0  0  0  0  0  0  0  0
   21.5037   11.0452   53.5892 O   0  0  0  0  0  0  0  0  0  0  0  0
   21.3864   10.9361   51.2993 O   0  0  0  0  0  0  0  0  0  0  0  0
   21.5683   10.5914   54.4670 H   0  0  0  0  0  0  0  0  0  0  0  0
  1  2  1  0  0  0
  2  3  1  0  0  0
  3  4  1  0  0  0
  4  5  1  0  0  0
  5  6  1  0  0  0
  6  7  1  0  0  0
  7  8  1  0  0  0
  7 11  1  0  0  0
 11 12  1  0  0  0
 11 13  2  0  0  0
  2 15  1  0  0  0
 15 16  1  0  0  0
 15 17  2  0  0  0
  6  2  1  0  0  0
  7  5  1  0  0  0
  1  9  1  0  0  0
  1 10  1  0  0  0
 12 14  1  0  0  0
 16 18  1  0  0  0
M  END
> <minimizedAffinity>
-6.50986

> <CNNscore>
0.7512174845

> <CNNaffinity>
5.3845043182

> <CNN_VS>
4.0449337959

> <CNNaffinity_variance>
0.1906448007

$$$$
[H]OC(=O)[C@]1(N([H])[H])C([H])([H])C([H])([H])[C@@]2([H])[C@](F)(C(=O)O[H])[C@@]12[H]


 18 19  0  0  0  0  0  0  0  0999 V2000
   22.4502    6.3029   52.2418 N   0  0  0  0  0  0  0  0  0  0  0  0
   22.2039    7.5764   52.8265 C   0  0  0  0  0  0  0  0  0  0  0  0
   21.4922    7.4076   54.1996 C   0  0  0  0  0  0  0  0  0  0  0  0
   21.9322    8.6386   54.9043 C   0  0  0  0  0  0  0  0  0  0  0  0
   23.3383    8.9415   54.4926 C   0  0  0  0  0  0  0  0  0  0  0  0
   23.4877    8.3006   53.1668 C   0  0  0  0  0  0  0  0  0  0  0  0
   24.3272    7.8074   54.2394 C   0  0  0  0  0  0  0  0  0  0  0  0
   24.0097    6.6937   55.0341 F   0  0  0  0  0  0  0  0  0  0  0  0
   22.8891    6.4583   51.3213 H   0  0  0  0  0  0  0  0  0  0  0  0
   21.6055    5.7309   52.1474 H   0  0  0  0  0  0  0  0  0  0  0  0
   25.6938    8.2821   54.5256 C   0  0  0  0  0  0  0  0  0  0  0  0
   26.0128    8.9847   55.6514 O   0  0  0  0  0  0  0  0  0  0  0  0
   26.6463    8.0346   53.6586 O   0  0  0  0  0  0  0  0  0  0  0  0
   25.3380    9.5950   56.1226 H   0  0  0  0  0  0  0  0  0  0  0  0
   21.2566    8.3822   52.0411 C   0  0  0  0  0  0  0  0  0  0  0  0
   20.1751    7.7482   51.4337 O   0  0  0  0  0  0  0  0  0  0  0  0
   21.3723    9.6540   51.8856 O   0  0  0  0  0  0  0  0  0  0  0  0
   20.0400    6.7737   51.5464 H   0  0  0  0  0  0  0  0  0  0  0  0
  1  2  1  0  0  0
  2  3  1  0  0  0
  3  4  1  0  0  0
  4  5  1  0  0  0
  5  6  1  0  0  0
  6  7  1  0  0  0
  7  8  1  0  0  0
  7 11  1  0  0  0
 11 12  1  0  0  0
 11 13  2  0  0  0
  2 15  1  0  0  0
 15 16  1  0  0  0
 15 17  2  0  0  0
  6  2  1  0  0  0
  7  5  1  0  0  0
  1  9  1  0  0  0
  1 10  1  0  0  0
 12 14  1  0  0  0
 16 18  1  0  0  0
M  END
> <minimizedAffinity>
-6.37208

> <CNNscore>
0.6722930670

> <CNNaffinity>
5.3375959396

> <CNN_VS>
3.5884287357

> <CNNaffinity_variance>
0.0795321167

$$$$
[H]OC(=O)[C@]1(N([H])[H])C([H])([H])C([H])([H])[C@@]2([H])[C@](F)(C(=O)O[H])[C@@]12[H]


 18 19  0  0  0  0  0  0  0  0999 V2000
   24.3815    9.3936   54.7324 N   0  0  0  0  0  0  0  0  0  0  0  0
   25.3738    8.3762   54.6652 C   0  0  0  0  0  0  0  0  0  0  0  0
   26.3763    8.6797   53.5148 C   0  0  0  0  0  0  0  0  0  0  0  0
   27.5994    8.0006   54.0130 C   0  0  0  0  0  0  0  0  0  0  0  0
   27.6489    8.1485   55.5010 C   0  0  0  0  0  0  0  0  0  0  0  0
   26.2390    8.3470   55.9058 C   0  0  0  0  0  0  0  0  0  0  0  0
   27.1615    9.4339   56.1631 C   0  0  0  0  0  0  0  0  0  0  0  0
   27.3428   10.5282   55.3016 F   0  0  0  0  0  0  0  0  0  0  0  0
   23.7189    9.1386   55.4808 H   0  0  0  0  0  0  0  0  0  0  0  0
   23.8878    9.5363   53.8460 H   0  0  0  0  0  0  0  0  0  0  0  0
   27.8930    9.6362   57.4275 C   0  0  0  0  0  0  0  0  0  0  0  0
   28.4698   10.8257   57.7668 O   0  0  0  0  0  0  0  0  0  0  0  0
   28.0107    8.6302   58.2607 O   0  0  0  0  0  0  0  0  0  0  0  0
   28.8259   11.4793   57.0626 H   0  0  0  0  0  0  0  0  0  0  0  0
   24.8128    7.0664   54.3003 C   0  0  0  0  0  0  0  0  0  0  0  0
   24.6185    6.7685   52.9534 O   0  0  0  0  0  0  0  0  0  0  0  0
   24.4914    6.1708   55.1661 O   0  0  0  0  0  0  0  0  0  0  0  0
   24.8721    7.4237   52.2555 H   0  0  0  0  0  0  0  0  0  0  0  0
  1  2  1  0  0  0
  2  3  1  0  0  0
  3  4  1  0  0  0
  4  5  1  0  0  0
  5  6  1  0  0  0
  6  7  1  0  0  0
  7  8  1  0  0  0
  7 11  1  0  0  0
 11 12  1  0  0  0
 11 13  2  0  0  0
  2 15  1  0  0  0
 15 16  1  0  0  0
 15 17  2  0  0  0
  6  2  1  0  0  0
  7  5  1  0  0  0
  1  9  1  0  0  0
  1 10  1  0  0  0
 12 14  1  0  0  0
 16 18  1  0  0  0
M  END
> <minimizedAffinity>
6.10174

> <CNNscore>
0.6613034010

> <CNNaffinity>
4.6733627319

> <CNN_VS>
3.0905106068

> <CNNaffinity_variance>
0.3138321042

$$$$
[H]OC(=O)[C@]1(N([H])[H])C([H])([H])C([H])([H])[C@@]2([H])[C@](F)(C(=O)O[H])[C@@]12[H]


 18 19  0  0  0  0  0  0  0  0999 V2000
   21.0475    6.0146   53.5302 N   0  0  0  0  0  0  0  0  0  0  0  0
   22.2172    6.6697   54.0066 C   0  0  0  0  0  0  0  0  0  0  0  0
   23.3923    6.4626   53.0082 C   0  0  0  0  0  0  0  0  0  0  0  0
   24.2064    7.6774   53.2667 C   0  0  0  0  0  0  0  0  0  0  0  0
   23.2786    8.8143   53.5589 C   0  0  0  0  0  0  0  0  0  0  0  0
   22.0429    8.1714   54.0594 C   0  0  0  0  0  0  0  0  0  0  0  0
   21.9445    8.9263   52.8269 C   0  0  0  0  0  0  0  0  0  0  0  0
   22.0376    8.3536   51.5478 F   0  0  0  0  0  0  0  0  0  0  0  0
   20.3046    6.1451   54.2339 H   0  0  0  0  0  0  0  0  0  0  0  0
   21.1918    5.0187   53.3374 H   0  0  0  0  0  0  0  0  0  0  0  0
   21.5575   10.3465   52.7377 C   0  0  0  0  0  0  0  0  0  0  0  0
   21.4218   11.0035   51.5491 O   0  0  0  0  0  0  0  0  0  0  0  0
   21.3467   11.0177   53.8446 O   0  0  0  0  0  0  0  0  0  0  0  0
   21.9690   10.7501   50.7207 H   0  0  0  0  0  0  0  0  0  0  0  0
   22.7189    6.0847   55.2594 C   0  0  0  0  0  0  0  0  0  0  0  0
   21.9655    6.2340   56.4216 O   0  0  0  0  0  0  0  0  0  0  0  0
   23.8255    5.4336   55.3403 O   0  0  0  0  0  0  0  0  0  0  0  0
   21.0982    6.7113   56.3965 H   0  0  0  0  0  0  0  0  0  0  0  0
  1  2  1  0  0  0
  2  3  1  0  0  0
  3  4  1  0  0  0
  4  5  1  0  0  0
  5  6  1  0  0  0
  6  7  1  0  0  0
  7  8  1  0  0  0
  7 11  1  0  0  0
 11 12  1  0  0  0
 11 13  2  0  0  0
  2 15  1  0  0  0
 15 16  1  0  0  0
 15 17  2  0  0  0
  6  2  1  0  0  0
  7  5  1  0  0  0
  1  9  1  0  0  0
  1 10  1  0  0  0
 12 14  1  0  0  0
 16 18  1  0  0  0
M  END
> <minimizedAffinity>
-6.21138

> <CNNscore>
0.6496413350

> <CNNaffinity>
5.3926992416

> <CNN_VS>
3.5033202171

> <CNNaffinity_variance>
0.0593875237

$$$$
[H]OC(=O)[C@]1(N([H])[H])C([H])([H])C([H])([H])[C@@]2([H])[C@](F)(C(=O)O[H])[C@@]12[H]


 18 19  0  0  0  0  0  0  0  0999 V2000
   24.1973    6.2820   53.4325 N   0  0  0  0  0  0  0  0  0  0  0  0
   23.2206    6.8795   54.2771 C   0  0  0  0  0  0  0  0  0  0  0  0
   23.7322    8.2522   54.8012 C   0  0  0  0  0  0  0  0  0  0  0  0
   22.4511    8.9681   55.0289 C   0  0  0  0  0  0  0  0  0  0  0  0
   21.4843    8.5568   53.9637 C   0  0  0  0  0  0  0  0  0  0  0  0
   21.9554    7.2246   53.5231 C   0  0  0  0  0  0  0  0  0  0  0  0
   21.9724    8.2908   52.5427 C   0  0  0  0  0  0  0  0  0  0  0  0
   23.1021    9.0751   52.2576 F   0  0  0  0  0  0  0  0  0  0  0  0
   23.8367    5.3622   53.1354 H   0  0  0  0  0  0  0  0  0  0  0  0
   25.1136    6.1835   53.8802 H   0  0  0  0  0  0  0  0  0  0  0  0
   20.8818    8.5792   51.5929 C   0  0  0  0  0  0  0  0  0  0  0  0
   19.9992    7.6285   51.1684 O   0  0  0  0  0  0  0  0  0  0  0  0
   20.7567    9.7962   51.1204 O   0  0  0  0  0  0  0  0  0  0  0  0
   20.2564    6.6392   51.0968 H   0  0  0  0  0  0  0  0  0  0  0  0
   22.9885    6.1037   55.5050 C   0  0  0  0  0  0  0  0  0  0  0  0
   21.8787    6.4040   56.2917 O   0  0  0  0  0  0  0  0  0  0  0  0
   23.7609    5.1515   55.8943 O   0  0  0  0  0  0  0  0  0  0  0  0
   21.2490    7.1166   56.0156 H   0  0  0  0  0  0  0  0  0  0  0  0
  1  2  1  0  0  0
  2  3  1  0  0  0
  3  4  1  0  0  0
  4  5  1  0  0  0
  5  6  1  0  0  0
  6  7  1  0  0  0
  7  8  1  0  0  0
  7 11  1  0  0  0
 11 12  1  0  0  0
 11 13  2  0  0  0
  2 15  1  0  0  0
 15 16  1  0  0  0
 15 17  2  0  0  0
  6  2  1  0  0  0
  7  5  1  0  0  0
  1  9  1  0  0  0
  1 10  1  0  0  0
 12 14  1  0  0  0
 16 18  1  0  0  0
M  END
> <minimizedAffinity>
-5.89340

> <CNNscore>
0.5849913359

> <CNNaffinity>
5.1899948120

> <CNN_VS>
3.0361020565

> <CNNaffinity_variance>
0.2206640691

$$$$
[H]OC(=O)[C@]1(N([H])[H])C([H])([H])C([H])([H])[C@@]2([H])[C@](F)(C(=O)O[H])[C@@]12[H]


 18 19  0  0  0  0  0  0  0  0999 V2000
   21.9088    7.2233   52.9164 N   0  0  0  0  0  0  0  0  0  0  0  0
   22.1402    8.1419   53.9780 C   0  0  0  0  0  0  0  0  0  0  0  0
   21.9202    7.4424   55.3502 C   0  0  0  0  0  0  0  0  0  0  0  0
   22.8139    8.2416   56.2265 C   0  0  0  0  0  0  0  0  0  0  0  0
   24.0261    8.6274   55.4389 C   0  0  0  0  0  0  0  0  0  0  0  0
   23.5817    8.5982   54.0273 C   0  0  0  0  0  0  0  0  0  0  0  0
   24.6176    7.6628   54.4152 C   0  0  0  0  0  0  0  0  0  0  0  0
   24.3707    6.3332   54.7947 F   0  0  0  0  0  0  0  0  0  0  0  0
   22.0298    7.7323   52.0273 H   0  0  0  0  0  0  0  0  0  0  0  0
   20.9851    6.7821   52.9574 H   0  0  0  0  0  0  0  0  0  0  0  0
   26.0660    7.9121   54.2937 C   0  0  0  0  0  0  0  0  0  0  0  0
   26.8963    7.1117   53.5639 O   0  0  0  0  0  0  0  0  0  0  0  0
   26.5886    8.9374   54.9229 O   0  0  0  0  0  0  0  0  0  0  0  0
   26.7139    6.1118   53.4336 H   0  0  0  0  0  0  0  0  0  0  0  0
   21.1667    9.2444   53.9902 C   0  0  0  0  0  0  0  0  0  0  0  0
   21.2597   10.2360   53.0163 O   0  0  0  0  0  0  0  0  0  0  0  0
   20.2226    9.3420   54.8587 O   0  0  0  0  0  0  0  0  0  0  0  0
   21.9602   10.1860   52.3181 H   0  0  0  0  0  0  0  0  0  0  0  0
  1  2  1  0  0  0
  2  3  1  0  0  0
  3  4  1  0  0  0
  4  5  1  0  0  0
  5  6  1  0  0  0
  6  7  1  0  0  0
  7  8  1  0  0  0
  7 11  1  0  0  0
 11 12  1  0  0  0
 11 13  2  0  0  0
  2 15  1  0  0  0
 15 16  1  0  0  0
 15 17  2  0  0  0
  6  2  1  0  0  0
  7  5  1  0  0  0
  1  9  1  0  0  0
  1 10  1  0  0  0
 12 14  1  0  0  0
 16 18  1  0  0  0
M  END
> <minimizedAffinity>
1.31609

> <CNNscore>
0.5616093278

> <CNNaffinity>
4.9384779930

> <CNN_VS>
2.7734951973

> <CNNaffinity_variance>
0.1181011200

$$$$
[H]OC(=O)[C@]1(N([H])[H])C([H])([H])C([H])([H])[C@@]2([H])[C@](F)(C(=O)O[H])[C@@]12[H]


 18 19  0  0  0  0  0  0  0  0999 V2000
   24.4939    8.3602   54.5202 N   0  0  0  0  0  0  0  0  0  0  0  0
   23.2985    7.5930   54.4384 C   0  0  0  0  0  0  0  0  0  0  0  0
   22.3244    7.9940   55.5833 C   0  0  0  0  0  0  0  0  0  0  0  0
   21.0116    7.6658   54.9716 C   0  0  0  0  0  0  0  0  0  0  0  0
   21.0810    7.9758   53.5096 C   0  0  0  0  0  0  0  0  0  0  0  0
   22.5205    7.8906   53.1756 C   0  0  0  0  0  0  0  0  0  0  0  0
   21.8783    9.1792   53.0152 C   0  0  0  0  0  0  0  0  0  0  0  0
   21.8954   10.1900   53.9903 F   0  0  0  0  0  0  0  0  0  0  0  0
   25.1250    8.0413   53.7690 H   0  0  0  0  0  0  0  0  0  0  0  0
   24.9556    8.2937   55.4324 H   0  0  0  0  0  0  0  0  0  0  0  0
   21.2832    9.6732   51.7596 C   0  0  0  0  0  0  0  0  0  0  0  0
   21.3578   10.9786   51.3684 O   0  0  0  0  0  0  0  0  0  0  0  0
   20.6406    8.8303   50.9871 O   0  0  0  0  0  0  0  0  0  0  0  0
   21.4084   11.7479   52.0434 H   0  0  0  0  0  0  0  0  0  0  0  0
   23.5332    6.1594   54.6684 C   0  0  0  0  0  0  0  0  0  0  0  0
   24.0025    5.3763   53.6162 O   0  0  0  0  0  0  0  0  0  0  0  0
   23.3293    5.5841   55.8009 O   0  0  0  0  0  0  0  0  0  0  0  0
   24.1909    5.7858   52.7345 H   0  0  0  0  0  0  0  0  0  0  0  0
  1  2  1  0  0  0
  2  3  1  0  0  0
  3  4  1  0  0  0
  4  5  1  0  0  0
  5  6  1  0  0  0
  6  7  1  0  0  0
  7  8  1  0  0  0
  7 11  1  0  0  0
 11 12  1  0  0  0
 11 13  2  0  0  0
  2 15  1  0  0  0
 15 16  1  0  0  0
 15 17  2  0  0  0
  6  2  1  0  0  0
  7  5  1  0  0  0
  1  9  1  0  0  0
  1 10  1  0  0  0
 12 14  1  0  0  0
 16 18  1  0  0  0
M  END
> <minimizedAffinity>
-5.54129

> <CNNscore>
0.5352362394

> <CNNaffinity>
5.2222785950

> <CNN_VS>
2.7951526642

> <CNNaffinity_variance>
0.1753645837

$$$$
[H]OC(=O)[C@]1(N([H])[H])C([H])([H])C([H])([H])[C@@]2([H])[C@](F)(C(=O)O[H])[C@@]12[H]


 18 19  0  0  0  0  0  0  0  0999 V2000
   23.1890    9.3491   55.3729 N   0  0  0  0  0  0  0  0  0  0  0  0
   23.5696    8.2763   54.5192 C   0  0  0  0  0  0  0  0  0  0  0  0
   23.0075    6.9318   55.0642 C   0  0  0  0  0  0  0  0  0  0  0  0
   22.8892    6.1416   53.8124 C   0  0  0  0  0  0  0  0  0  0  0  0
   22.4852    7.0654   52.7070 C   0  0  0  0  0  0  0  0  0  0  0  0
   22.9511    8.4005   53.1443 C   0  0  0  0  0  0  0  0  0  0  0  0
   21.5234    8.2180   52.9804 C   0  0  0  0  0  0  0  0  0  0  0  0
   20.6500    7.8891   54.0300 F   0  0  0  0  0  0  0  0  0  0  0  0
   23.6087   10.2138   54.9984 H   0  0  0  0  0  0  0  0  0  0  0  0
   23.4652    9.2067   56.3492 H   0  0  0  0  0  0  0  0  0  0  0  0
   20.7709    8.5246   51.7498 C   0  0  0  0  0  0  0  0  0  0  0  0
   19.9502    7.6208   51.1395 O   0  0  0  0  0  0  0  0  0  0  0  0
   20.9019    9.7101   51.2044 O   0  0  0  0  0  0  0  0  0  0  0  0
   20.1180    6.6113   51.1898 H   0  0  0  0  0  0  0  0  0  0  0  0
   25.0246    8.0619   54.4998 C   0  0  0  0  0  0  0  0  0  0  0  0
   25.8174    8.7379   55.4245 O   0  0  0  0  0  0  0  0  0  0  0  0
   25.6104    7.2738   53.6687 O   0  0  0  0  0  0  0  0  0  0  0  0
   25.4023    9.3381   56.0939 H   0  0  0  0  0  0  0  0  0  0  0  0
  1  2  1  0  0  0
  2  3  1  0  0  0
  3  4  1  0  0  0
  4  5  1  0  0  0
  5  6  1  0  0  0
  6  7  1  0  0  0
  7  8  1  0  0  0
  7 11  1  0  0  0
 11 12  1  0  0  0
 11 13  2  0  0  0
  2 15  1  0  0  0
 15 16  1  0  0  0
 15 17  2  0  0  0
  6  2  1  0  0  0
  7  5  1  0  0  0
  1  9  1  0  0  0
  1 10  1  0  0  0
 12 14  1  0  0  0
 16 18  1  0  0  0
M  END
> <minimizedAffinity>
-6.39503

> <CNNscore>
0.4647987783

> <CNNaffinity>
4.9393696785

> <CNN_VS>
2.2958130836

> <CNNaffinity_variance>
0.1390442848

$$$$
[H]c1nnn(-c2c([H])c([H])c([H])c(C3=Nc4c([H])c([H])c(-c5c([H])c([H])c([H])c([H])c5F)c([H])c4N([H])C(=O)C3([H])[H])c2[H])c1[H]


 31 35  0  0  0  0  0  0  0  0999 V2000
   25.5268    7.8955   54.6967 C   0  0  0  0  0  0  0  0  0  0  0  0
   25.3199    6.6065   55.1324 C   0  0  0  0  0  0  0  0  0  0  0  0
   24.1774    5.8925   54.8232 C   0  0  0  0  0  0  0  0  0  0  0  0
   23.1921    6.4559   54.0566 C   0  0  0  0  0  0  0  0  0  0  0  0
   22.0788    5.6136   53.8168 N   0  0  0  0  0  0  0  0  0  0  0  0
   20.9882    5.8131   53.1727 C   0  0  0  0  0  0  0  0  0  0  0  0
   20.4454    6.9639   52.4324 C   0  0  0  0  0  0  0  0  0  0  0  0
   21.1565    8.2174   52.5166 C   0  0  0  0  0  0  0  0  0  0  0  0
   20.4458    9.2456   52.2824 O   0  0  0  0  0  0  0  0  0  0  0  0
   22.5030    8.5229   52.8117 N   0  0  0  0  0  0  0  0  0  0  0  0
   23.3790    7.7476   53.6088 C   0  0  0  0  0  0  0  0  0  0  0  0
   24.5377    8.4599   53.9273 C   0  0  0  0  0  0  0  0  0  0  0  0
   22.8828    9.4131   52.3955 H   0  0  0  0  0  0  0  0  0  0  0  0
   27.4984    8.3763   52.8204 F   0  0  0  0  0  0  0  0  0  0  0  0
   27.7070    8.8726   54.0644 C   0  0  0  0  0  0  0  0  0  0  0  0
   28.8581    9.5677   54.3122 C   0  0  0  0  0  0  0  0  0  0  0  0
   29.0470   10.0681   55.5827 C   0  0  0  0  0  0  0  0  0  0  0  0
   28.0829    9.8564   56.5553 C   0  0  0  0  0  0  0  0  0  0  0  0
   26.9288    9.1584   56.3038 C   0  0  0  0  0  0  0  0  0  0  0  0
   26.7347    8.6500   55.0167 C   0  0  0  0  0  0  0  0  0  0  0  0
   20.0635    4.6583   53.1531 C   0  0  0  0  0  0  0  0  0  0  0  0
   20.5649    3.4027   52.8382 C   0  0  0  0  0  0  0  0  0  0  0  0
   19.7435    2.2977   52.8050 C   0  0  0  0  0  0  0  0  0  0  0  0
   18.3877    2.4488   53.0930 C   0  0  0  0  0  0  0  0  0  0  0  0
   17.8580    3.6830   53.4097 C   0  0  0  0  0  0  0  0  0  0  0  0
   18.7378    4.7488   53.4248 C   0  0  0  0  0  0  0  0  0  0  0  0
   16.4828    3.7999   53.6957 N   0  0  0  0  0  0  0  0  0  0  0  0
   15.4729    3.7929   52.8135 C   0  0  0  0  0  0  0  0  0  0  0  0
   14.2762    3.9306   53.4866 C   0  0  0  0  0  0  0  0  0  0  0  0
   14.6164    4.0179   54.7832 N   0  0  0  0  0  0  0  0  0  0  0  0
   15.9389    3.9366   54.8735 N   0  0  0  0  0  0  0  0  0  0  0  0
 14 15  1  0  0  0
 15 16  2  0  0  0
 16 17  1  0  0  0
 17 18  2  0  0  0
 18 19  1  0  0  0
 19 20  2  0  0  0
 20  1  1  0  0  0
  1  2  2  0  0  0
  2  3  1  0  0  0
  3  4  2  0  0  0
  4  5  1  0  0  0
  5  6  2  0  0  0
  6  7  1  0  0  0
  7  8  1  0  0  0
  8  9  2  0  0  0
  8 10  1  0  0  0
 10 11  1  0  0  0
 11 12  2  0  0  0
  6 21  1  0  0  0
 21 22  2  0  0  0
 22 23  1  0  0  0
 23 24  2  0  0  0
 24 25  1  0  0  0
 25 26  2  0  0  0
 25 27  1  0  0  0
 27 28  1  0  0  0
 28 29  2  0  0  0
 29 30  1  0  0  0
 30 31  2  0  0  0
 20 15  1  0  0  0
 12  1  1  0  0  0
 26 21  1  0  0  0
 31 27  1  0  0  0
 11  4  1  0  0  0
 10 13  1  0  0  0
M  END
> <minimizedAffinity>
33.34123

> <CNNscore>
0.6082869768

> <CNNaffinity>
6.6186075211

> <CNN_VS>
4.0260128975

> <CNNaffinity_variance>
0.6514066458

$$$$
[H]c1nnn(-c2c([H])c([H])c([H])c(C3=Nc4c([H])c([H])c(-c5c([H])c([H])c([H])c([H])c5F)c([H])c4N([H])C(=O)C3([H])[H])c2[H])c1[H]


 31 35  0  0  0  0  0  0  0  0999 V2000
   19.1739    4.7835   53.7460 C   0  0  0  0  0  0  0  0  0  0  0  0
   20.2014    4.4032   54.5788 C   0  0  0  0  0  0  0  0  0  0  0  0
   21.2957    5.2111   54.8247 C   0  0  0  0  0  0  0  0  0  0  0  0
   21.3961    6.4433   54.2352 C   0  0  0  0  0  0  0  0  0  0  0  0
   22.5671    7.1645   54.5747 N   0  0  0  0  0  0  0  0  0  0  0  0
   22.9919    8.3153   54.2014 C   0  0  0  0  0  0  0  0  0  0  0  0
   22.4621    9.3438   53.2911 C   0  0  0  0  0  0  0  0  0  0  0  0
   21.2997    9.0129   52.5016 C   0  0  0  0  0  0  0  0  0  0  0  0
   21.1689    9.6994   51.4391 O   0  0  0  0  0  0  0  0  0  0  0  0
   20.2703    8.0642   52.6854 N   0  0  0  0  0  0  0  0  0  0  0  0
   20.3769    6.8448   53.3964 C   0  0  0  0  0  0  0  0  0  0  0  0
   19.2755    6.0201   53.1551 C   0  0  0  0  0  0  0  0  0  0  0  0
   19.3392    8.2936   52.2490 H   0  0  0  0  0  0  0  0  0  0  0  0
   19.3356    2.5088   52.1844 F   0  0  0  0  0  0  0  0  0  0  0  0
   18.1189    2.8074   52.7020 C   0  0  0  0  0  0  0  0  0  0  0  0
   17.0645    1.9818   52.4258 C   0  0  0  0  0  0  0  0  0  0  0  0
   15.8376    2.3017   52.9669 C   0  0  0  0  0  0  0  0  0  0  0  0
   15.7096    3.4302   53.7608 C   0  0  0  0  0  0  0  0  0  0  0  0
   16.7694    4.2569   54.0361 C   0  0  0  0  0  0  0  0  0  0  0  0
   18.0142    3.9350   53.4889 C   0  0  0  0  0  0  0  0  0  0  0  0
   24.2843    8.7188   54.7977 C   0  0  0  0  0  0  0  0  0  0  0  0
   24.2878    9.6623   55.8160 C   0  0  0  0  0  0  0  0  0  0  0  0
   25.4655   10.0714   56.4011 C   0  0  0  0  0  0  0  0  0  0  0  0
   26.6702    9.5260   55.9595 C   0  0  0  0  0  0  0  0  0  0  0  0
   26.7010    8.5863   54.9495 C   0  0  0  0  0  0  0  0  0  0  0  0
   25.4837    8.2208   54.4066 C   0  0  0  0  0  0  0  0  0  0  0  0
   27.9367    8.0554   54.5274 N   0  0  0  0  0  0  0  0  0  0  0  0
   29.1562    8.5506   54.7835 C   0  0  0  0  0  0  0  0  0  0  0  0
   30.1100    7.7447   54.1965 C   0  0  0  0  0  0  0  0  0  0  0  0
   29.4136    6.7679   53.5922 N   0  0  0  0  0  0  0  0  0  0  0  0
   28.1210    6.9824   53.8087 N   0  0  0  0  0  0  0  0  0  0  0  0
 14 15  1  0  0  0
 15 16  2  0  0  0
 16 17  1  0  0  0
 17 18  2  0  0  0
 18 19  1  0  0  0
 19 20  2  0  0  0
 20  1  1  0  0  0
  1  2  2  0  0  0
  2  3  1  0  0  0
  3  4  2  0  0  0
  4  5  1  0  0  0
  5  6  2  0  0  0
  6  7  1  0  0  0
  7  8  1  0  0  0
  8  9  2  0  0  0
  8 10  1  0  0  0
 10 11  1  0  0  0
 11 12  2  0  0  0
  6 21  1  0  0  0
 21 22  2  0  0  0
 22 23  1  0  0  0
 23 24  2  0  0  0
 24 25  1  0  0  0
 25 26  2  0  0  0
 25 27  1  0  0  0
 27 28  1  0  0  0
 28 29  2  0  0  0
 29 30  1  0  0  0
 30 31  2  0  0  0
 20 15  1  0  0  0
 12  1  1  0  0  0
 26 21  1  0  0  0
 31 27  1  0  0  0
 11  4  1  0  0  0
 10 13  1  0  0  0
M  END
> <minimizedAffinity>
37.27013

> <CNNscore>
0.5718684196

> <CNNaffinity>
6.5133728981

> <CNN_VS>
3.7247922421

> <CNNaffinity_variance>
0.6174145937

$$$$
[H]c1nnn(-c2c([H])c([H])c([H])c(C3=Nc4c([H])c([H])c(-c5c([H])c([H])c([H])c([H])c5F)c([H])c4N([H])C(=O)C3([H])[H])c2[H])c1[H]


 31 35  0  0  0  0  0  0  0  0999 V2000
   19.9522    5.0508   53.8108 C   0  0  0  0  0  0  0  0  0  0  0  0
   21.1856    4.4410   53.8387 C   0  0  0  0  0  0  0  0  0  0  0  0
   22.3585    5.1462   54.0327 C   0  0  0  0  0  0  0  0  0  0  0  0
   22.3318    6.5044   54.2075 C   0  0  0  0  0  0  0  0  0  0  0  0
   23.6037    7.0987   54.3961 N   0  0  0  0  0  0  0  0  0  0  0  0
   23.9513    8.3213   54.5651 C   0  0  0  0  0  0  0  0  0  0  0  0
   23.2024    9.5869   54.6328 C   0  0  0  0  0  0  0  0  0  0  0  0
   21.7956    9.5572   54.3102 C   0  0  0  0  0  0  0  0  0  0  0  0
   21.3171   10.6714   53.9270 O   0  0  0  0  0  0  0  0  0  0  0  0
   20.8403    8.5181   54.3395 N   0  0  0  0  0  0  0  0  0  0  0  0
   21.1055    7.1364   54.1832 C   0  0  0  0  0  0  0  0  0  0  0  0
   19.9264    6.4136   53.9864 C   0  0  0  0  0  0  0  0  0  0  0  0
   19.8388    8.8074   54.4925 H   0  0  0  0  0  0  0  0  0  0  0  0
   19.8523    2.7337   52.3075 F   0  0  0  0  0  0  0  0  0  0  0  0
   18.6858    3.1568   52.8531 C   0  0  0  0  0  0  0  0  0  0  0  0
   17.5513    2.4266   52.6314 C   0  0  0  0  0  0  0  0  0  0  0  0
   16.3775    2.8724   53.2003 C   0  0  0  0  0  0  0  0  0  0  0  0
   16.3800    4.0268   53.9668 C   0  0  0  0  0  0  0  0  0  0  0  0
   17.5200    4.7577   54.1875 C   0  0  0  0  0  0  0  0  0  0  0  0
   18.7114    4.3081   53.6119 C   0  0  0  0  0  0  0  0  0  0  0  0
   25.4063    8.5315   54.7309 C   0  0  0  0  0  0  0  0  0  0  0  0
   26.2506    8.2488   53.6658 C   0  0  0  0  0  0  0  0  0  0  0  0
   27.6122    8.4264   53.7722 C   0  0  0  0  0  0  0  0  0  0  0  0
   28.1454    8.8976   54.9711 C   0  0  0  0  0  0  0  0  0  0  0  0
   27.3336    9.1879   56.0485 C   0  0  0  0  0  0  0  0  0  0  0  0
   25.9773    8.9871   55.8736 C   0  0  0  0  0  0  0  0  0  0  0  0
   27.9059    9.6627   57.2459 N   0  0  0  0  0  0  0  0  0  0  0  0
   28.2080    8.9422   58.3358 C   0  0  0  0  0  0  0  0  0  0  0  0
   28.7520    9.7707   59.2958 C   0  0  0  0  0  0  0  0  0  0  0  0
   28.7584   10.9918   58.7361 N   0  0  0  0  0  0  0  0  0  0  0  0
   28.2475   10.8928   57.5142 N   0  0  0  0  0  0  0  0  0  0  0  0
 14 15  1  0  0  0
 15 16  2  0  0  0
 16 17  1  0  0  0
 17 18  2  0  0  0
 18 19  1  0  0  0
 19 20  2  0  0  0
 20  1  1  0  0  0
  1  2  2  0  0  0
  2  3  1  0  0  0
  3  4  2  0  0  0
  4  5  1  0  0  0
  5  6  2  0  0  0
  6  7  1  0  0  0
  7  8  1  0  0  0
  8  9  2  0  0  0
  8 10  1  0  0  0
 10 11  1  0  0  0
 11 12  2  0  0  0
  6 21  1  0  0  0
 21 22  2  0  0  0
 22 23  1  0  0  0
 23 24  2  0  0  0
 24 25  1  0  0  0
 25 26  2  0  0  0
 25 27  1  0  0  0
 27 28  1  0  0  0
 28 29  2  0  0  0
 29 30  1  0  0  0
 30 31  2  0  0  0
 20 15  1  0  0  0
 12  1  1  0  0  0
 26 21  1  0  0  0
 31 27  1  0  0  0
 11  4  1  0  0  0
 10 13  1  0  0  0
M  END
> <minimizedAffinity>
18.57823

> <CNNscore>
0.5256867409

> <CNNaffinity>
6.4846367836

> <CNN_VS>
3.4088876247

> <CNNaffinity_variance>
0.0727340728

$$$$
[H]c1nnn(-c2c([H])c([H])c([H])c(C3=Nc4c([H])c([H])c(-c5c([H])c([H])c([H])c([H])c5F)c([H])c4N([H])C(=O)C3([H])[H])c2[H])c1[H]


 31 35  0  0  0  0  0  0  0  0999 V2000
   19.7334    5.1070   53.6407 C   0  0  0  0  0  0  0  0  0  0  0  0
   20.9031    4.5258   53.2070 C   0  0  0  0  0  0  0  0  0  0  0  0
   22.1115    5.1969   53.2102 C   0  0  0  0  0  0  0  0  0  0  0  0
   22.1868    6.4903   53.6547 C   0  0  0  0  0  0  0  0  0  0  0  0
   23.4846    7.0556   53.6036 N   0  0  0  0  0  0  0  0  0  0  0  0
   23.9130    8.2239   53.9130 C   0  0  0  0  0  0  0  0  0  0  0  0
   23.2611    9.4359   54.4358 C   0  0  0  0  0  0  0  0  0  0  0  0
   21.8195    9.4482   54.5113 C   0  0  0  0  0  0  0  0  0  0  0  0
   21.2993   10.6086   54.5055 O   0  0  0  0  0  0  0  0  0  0  0  0
   20.8677    8.4084   54.5915 N   0  0  0  0  0  0  0  0  0  0  0  0
   21.0258    7.0925   54.0944 C   0  0  0  0  0  0  0  0  0  0  0  0
   19.8100    6.4047   54.0867 C   0  0  0  0  0  0  0  0  0  0  0  0
   19.9575    8.6430   55.0675 H   0  0  0  0  0  0  0  0  0  0  0  0
   19.4309    2.6189   52.4760 F   0  0  0  0  0  0  0  0  0  0  0  0
   18.3296    3.1602   53.0516 C   0  0  0  0  0  0  0  0  0  0  0  0
   17.1573    2.4570   53.0220 C   0  0  0  0  0  0  0  0  0  0  0  0
   16.0513    3.0241   53.6181 C   0  0  0  0  0  0  0  0  0  0  0  0
   16.1564    4.2681   54.2194 C   0  0  0  0  0  0  0  0  0  0  0  0
   17.3340    4.9716   54.2475 C   0  0  0  0  0  0  0  0  0  0  0  0
   18.4569    4.3990   53.6439 C   0  0  0  0  0  0  0  0  0  0  0  0
   25.3655    8.4211   53.7130 C   0  0  0  0  0  0  0  0  0  0  0  0
   26.2244    8.2138   54.7838 C   0  0  0  0  0  0  0  0  0  0  0  0
   27.5839    8.3865   54.6476 C   0  0  0  0  0  0  0  0  0  0  0  0
   28.1001    8.7759   53.4124 C   0  0  0  0  0  0  0  0  0  0  0  0
   27.2735    8.9901   52.3284 C   0  0  0  0  0  0  0  0  0  0  0  0
   25.9203    8.7988   52.5344 C   0  0  0  0  0  0  0  0  0  0  0  0
   27.8288    9.3831   51.0939 N   0  0  0  0  0  0  0  0  0  0  0  0
   28.4320   10.5480   50.8161 C   0  0  0  0  0  0  0  0  0  0  0  0
   28.8393   10.5495   49.4977 C   0  0  0  0  0  0  0  0  0  0  0  0
   28.4574    9.3552   49.0160 N   0  0  0  0  0  0  0  0  0  0  0  0
   27.8580    8.6842   49.9928 N   0  0  0  0  0  0  0  0  0  0  0  0
 14 15  1  0  0  0
 15 16  2  0  0  0
 16 17  1  0  0  0
 17 18  2  0  0  0
 18 19  1  0  0  0
 19 20  2  0  0  0
 20  1  1  0  0  0
  1  2  2  0  0  0
  2  3  1  0  0  0
  3  4  2  0  0  0
  4  5  1  0  0  0
  5  6  2  0  0  0
  6  7  1  0  0  0
  7  8  1  0  0  0
  8  9  2  0  0  0
  8 10  1  0  0  0
 10 11  1  0  0  0
 11 12  2  0  0  0
  6 21  1  0  0  0
 21 22  2  0  0  0
 22 23  1  0  0  0
 23 24  2  0  0  0
 24 25  1  0  0  0
 25 26  2  0  0  0
 25 27  1  0  0  0
 27 28  1  0  0  0
 28 29  2  0  0  0
 29 30  1  0  0  0
 30 31  2  0  0  0
 20 15  1  0  0  0
 12  1  1  0  0  0
 26 21  1  0  0  0
 31 27  1  0  0  0
 11  4  1  0  0  0
 10 13  1  0  0  0
M  END
> <minimizedAffinity>
32.46643

> <CNNscore>
0.5199338198

> <CNNaffinity>
6.2900800705

> <CNN_VS>
3.2704253197

> <CNNaffinity_variance>
0.5042918324

$$$$
[H]c1nnn(-c2c([H])c([H])c([H])c(C3=Nc4c([H])c([H])c(-c5c([H])c([H])c([H])c([H])c5F)c([H])c4N([H])C(=O)C3([H])[H])c2[H])c1[H]


 31 35  0  0  0  0  0  0  0  0999 V2000
   26.0769    8.4826   54.6296 C   0  0  0  0  0  0  0  0  0  0  0  0
   25.9620    7.1196   54.4769 C   0  0  0  0  0  0  0  0  0  0  0  0
   24.7447    6.4941   54.2835 C   0  0  0  0  0  0  0  0  0  0  0  0
   23.5875    7.2253   54.2364 C   0  0  0  0  0  0  0  0  0  0  0  0
   22.4144    6.4581   54.0326 N   0  0  0  0  0  0  0  0  0  0  0  0
   21.1806    6.7995   53.9578 C   0  0  0  0  0  0  0  0  0  0  0  0
   20.4801    8.0909   54.0489 C   0  0  0  0  0  0  0  0  0  0  0  0
   21.2463    9.2484   54.4454 C   0  0  0  0  0  0  0  0  0  0  0  0
   20.5587   10.1886   54.9557 O   0  0  0  0  0  0  0  0  0  0  0  0
   22.6261    9.5391   54.3739 N   0  0  0  0  0  0  0  0  0  0  0  0
   23.6796    8.5937   54.3872 C   0  0  0  0  0  0  0  0  0  0  0  0
   24.9153    9.2154   54.5820 C   0  0  0  0  0  0  0  0  0  0  0  0
   22.8867   10.5576   54.3043 H   0  0  0  0  0  0  0  0  0  0  0  0
   26.8651    9.4490   57.0962 F   0  0  0  0  0  0  0  0  0  0  0  0
   27.7304    9.6251   56.0679 C   0  0  0  0  0  0  0  0  0  0  0  0
   28.9184   10.2583   56.3073 C   0  0  0  0  0  0  0  0  0  0  0  0
   29.7856   10.4218   55.2482 C   0  0  0  0  0  0  0  0  0  0  0  0
   29.4355    9.9486   53.9937 C   0  0  0  0  0  0  0  0  0  0  0  0
   28.2426    9.3137   53.7564 C   0  0  0  0  0  0  0  0  0  0  0  0
   27.3616    9.1466   54.8282 C   0  0  0  0  0  0  0  0  0  0  0  0
   20.2430    5.6777   53.7312 C   0  0  0  0  0  0  0  0  0  0  0  0
   18.8826    5.9445   53.6595 C   0  0  0  0  0  0  0  0  0  0  0  0
   17.9705    4.9337   53.4520 C   0  0  0  0  0  0  0  0  0  0  0  0
   18.4265    3.6236   53.3126 C   0  0  0  0  0  0  0  0  0  0  0  0
   19.7721    3.3250   53.3789 C   0  0  0  0  0  0  0  0  0  0  0  0
   20.6322    4.3863   53.5890 C   0  0  0  0  0  0  0  0  0  0  0  0
   20.1988    1.9894   53.2336 N   0  0  0  0  0  0  0  0  0  0  0  0
   20.7290    1.4276   52.1376 C   0  0  0  0  0  0  0  0  0  0  0  0
   21.0161    0.1028   52.3955 C   0  0  0  0  0  0  0  0  0  0  0  0
   20.6390   -0.0913   53.6701 N   0  0  0  0  0  0  0  0  0  0  0  0
   20.1562    1.0529   54.1407 N   0  0  0  0  0  0  0  0  0  0  0  0
 14 15  1  0  0  0
 15 16  2  0  0  0
 16 17  1  0  0  0
 17 18  2  0  0  0
 18 19  1  0  0  0
 19 20  2  0  0  0
 20  1  1  0  0  0
  1  2  2  0  0  0
  2  3  1  0  0  0
  3  4  2  0  0  0
  4  5  1  0  0  0
  5  6  2  0  0  0
  6  7  1  0  0  0
  7  8  1  0  0  0
  8  9  2  0  0  0
  8 10  1  0  0  0
 10 11  1  0  0  0
 11 12  2  0  0  0
  6 21  1  0  0  0
 21 22  2  0  0  0
 22 23  1  0  0  0
 23 24  2  0  0  0
 24 25  1  0  0  0
 25 26  2  0  0  0
 25 27  1  0  0  0
 27 28  1  0  0  0
 28 29  2  0  0  0
 29 30  1  0  0  0
 30 31  2  0  0  0
 20 15  1  0  0  0
 12  1  1  0  0  0
 26 21  1  0  0  0
 31 27  1  0  0  0
 11  4  1  0  0  0
 10 13  1  0  0  0
M  END
> <minimizedAffinity>
49.19329

> <CNNscore>
0.4146996439

> <CNNaffinity>
6.0568690300

> <CNN_VS>
2.5117814541

> <CNNaffinity_variance>
0.3434038162

$$$$
[H]c1nnn(-c2c([H])c([H])c([H])c(C3=Nc4c([H])c([H])c(-c5c([H])c([H])c([H])c([H])c5F)c([H])c4N([H])C(=O)C3([H])[H])c2[H])c1[H]


 31 35  0  0  0  0  0  0  0  0999 V2000
   22.5482    6.7804   55.4852 C   0  0  0  0  0  0  0  0  0  0  0  0
   22.7335    8.0442   55.9977 C   0  0  0  0  0  0  0  0  0  0  0  0
   22.4053    9.1869   55.2926 C   0  0  0  0  0  0  0  0  0  0  0  0
   21.8734    9.0977   54.0336 C   0  0  0  0  0  0  0  0  0  0  0  0
   21.5840   10.3448   53.4272 N   0  0  0  0  0  0  0  0  0  0  0  0
   21.1087   10.6358   52.2724 C   0  0  0  0  0  0  0  0  0  0  0  0
   20.6758    9.8256   51.1221 C   0  0  0  0  0  0  0  0  0  0  0  0
   20.9381    8.4064   51.1586 C   0  0  0  0  0  0  0  0  0  0  0  0
   20.9905    7.8485   50.0171 O   0  0  0  0  0  0  0  0  0  0  0  0
   21.1491    7.5109   52.2296 N   0  0  0  0  0  0  0  0  0  0  0  0
   21.6790    7.8401   53.5003 C   0  0  0  0  0  0  0  0  0  0  0  0
   22.0143    6.6920   54.2219 C   0  0  0  0  0  0  0  0  0  0  0  0
   20.8845    6.5056   52.0580 H   0  0  0  0  0  0  0  0  0  0  0  0
   21.0940    5.9519   57.6847 F   0  0  0  0  0  0  0  0  0  0  0  0
   22.1504    5.1815   57.3273 C   0  0  0  0  0  0  0  0  0  0  0  0
   22.4285    4.0624   58.0619 C   0  0  0  0  0  0  0  0  0  0  0  0
   23.5040    3.2907   57.6773 C   0  0  0  0  0  0  0  0  0  0  0  0
   24.2595    3.6639   56.5772 C   0  0  0  0  0  0  0  0  0  0  0  0
   23.9782    4.7876   55.8419 C   0  0  0  0  0  0  0  0  0  0  0  0
   22.8884    5.5717   56.2296 C   0  0  0  0  0  0  0  0  0  0  0  0
   20.9513   12.0846   52.0175 C   0  0  0  0  0  0  0  0  0  0  0  0
   20.8921   12.9534   53.0986 C   0  0  0  0  0  0  0  0  0  0  0  0
   20.7442   14.3099   52.9124 C   0  0  0  0  0  0  0  0  0  0  0  0
   20.6527   14.8128   51.6153 C   0  0  0  0  0  0  0  0  0  0  0  0
   20.7080   13.9761   50.5194 C   0  0  0  0  0  0  0  0  0  0  0  0
   20.8574   12.6266   50.7778 C   0  0  0  0  0  0  0  0  0  0  0  0
   20.6125   14.5181   49.2217 N   0  0  0  0  0  0  0  0  0  0  0  0
   20.9078   15.7717   48.8483 C   0  0  0  0  0  0  0  0  0  0  0  0
   20.6829   15.9109   47.4941 C   0  0  0  0  0  0  0  0  0  0  0  0
   20.2491   14.7057   47.0895 N   0  0  0  0  0  0  0  0  0  0  0  0
   20.2186   13.8983   48.1435 N   0  0  0  0  0  0  0  0  0  0  0  0
 14 15  1  0  0  0
 15 16  2  0  0  0
 16 17  1  0  0  0
 17 18  2  0  0  0
 18 19  1  0  0  0
 19 20  2  0  0  0
 20  1  1  0  0  0
  1  2  2  0  0  0
  2  3  1  0  0  0
  3  4  2  0  0  0
  4  5  1  0  0  0
  5  6  2  0  0  0
  6  7  1  0  0  0
  7  8  1  0  0  0
  8  9  2  0  0  0
  8 10  1  0  0  0
 10 11  1  0  0  0
 11 12  2  0  0  0
  6 21  1  0  0  0
 21 22  2  0  0  0
 22 23  1  0  0  0
 23 24  2  0  0  0
 24 25  1  0  0  0
 25 26  2  0  0  0
 25 27  1  0  0  0
 27 28  1  0  0  0
 28 29  2  0  0  0
 29 30  1  0  0  0
 30 31  2  0  0  0
 20 15  1  0  0  0
 12  1  1  0  0  0
 26 21  1  0  0  0
 31 27  1  0  0  0
 11  4  1  0  0  0
 10 13  1  0  0  0
M  END
> <minimizedAffinity>
60.04317

> <CNNscore>
0.4132334590

> <CNNaffinity>
5.9803791046

> <CNN_VS>
2.4712927341

> <CNNaffinity_variance>
0.5757575035

$$$$
[H]c1nnn(-c2c([H])c([H])c([H])c(C3=Nc4c([H])c([H])c(-c5c([H])c([H])c([H])c([H])c5F)c([H])c4N([H])C(=O)C3([H])[H])c2[H])c1[H]


 31 35  0  0  0  0  0  0  0  0999 V2000
   21.3435   11.8974   51.7089 C   0  0  0  0  0  0  0  0  0  0  0  0
   20.8171   10.9777   50.8307 C   0  0  0  0  0  0  0  0  0  0  0  0
   20.5753    9.6643   51.1872 C   0  0  0  0  0  0  0  0  0  0  0  0
   20.8575    9.2249   52.4534 C   0  0  0  0  0  0  0  0  0  0  0  0
   20.5606    7.8589   52.6821 N   0  0  0  0  0  0  0  0  0  0  0  0
   20.7119    7.1208   53.7197 C   0  0  0  0  0  0  0  0  0  0  0  0
   21.2411    7.3693   55.0707 C   0  0  0  0  0  0  0  0  0  0  0  0
   21.8749    8.6413   55.3243 C   0  0  0  0  0  0  0  0  0  0  0  0
   22.7009    8.6374   56.2912 O   0  0  0  0  0  0  0  0  0  0  0  0
   21.7516    9.9009   54.6985 N   0  0  0  0  0  0  0  0  0  0  0  0
   21.3859   10.1304   53.3504 C   0  0  0  0  0  0  0  0  0  0  0  0
   21.6262   11.4555   52.9792 C   0  0  0  0  0  0  0  0  0  0  0  0
   21.9525   10.7433   55.2987 H   0  0  0  0  0  0  0  0  0  0  0  0
   19.8225   13.9811   52.7006 F   0  0  0  0  0  0  0  0  0  0  0  0
   20.8184   14.3087   51.8414 C   0  0  0  0  0  0  0  0  0  0  0  0
   21.0074   15.6248   51.5224 C   0  0  0  0  0  0  0  0  0  0  0  0
   22.0293   15.9356   50.6510 C   0  0  0  0  0  0  0  0  0  0  0  0
   22.8218   14.9242   50.1322 C   0  0  0  0  0  0  0  0  0  0  0  0
   22.6298   13.6044   50.4539 C   0  0  0  0  0  0  0  0  0  0  0  0
   21.5945   13.2865   51.3371 C   0  0  0  0  0  0  0  0  0  0  0  0
   20.2674    5.7199   53.5502 C   0  0  0  0  0  0  0  0  0  0  0  0
   21.2185    4.7398   53.3015 C   0  0  0  0  0  0  0  0  0  0  0  0
   20.8538    3.4222   53.1345 C   0  0  0  0  0  0  0  0  0  0  0  0
   19.5065    3.0733   53.2174 C   0  0  0  0  0  0  0  0  0  0  0  0
   18.5365    4.0235   53.4633 C   0  0  0  0  0  0  0  0  0  0  0  0
   18.9715    5.3259   53.6208 C   0  0  0  0  0  0  0  0  0  0  0  0
   17.1835    3.6361   53.5409 N   0  0  0  0  0  0  0  0  0  0  0  0
   16.6497    2.4829   53.1126 C   0  0  0  0  0  0  0  0  0  0  0  0
   15.2938    2.4831   53.3687 C   0  0  0  0  0  0  0  0  0  0  0  0
   15.0528    3.6665   53.9570 N   0  0  0  0  0  0  0  0  0  0  0  0
   16.2002    4.3296   54.0447 N   0  0  0  0  0  0  0  0  0  0  0  0
 14 15  1  0  0  0
 15 16  2  0  0  0
 16 17  1  0  0  0
 17 18  2  0  0  0
 18 19  1  0  0  0
 19 20  2  0  0  0
 20  1  1  0  0  0
  1  2  2  0  0  0
  2  3  1  0  0  0
  3  4  2  0  0  0
  4  5  1  0  0  0
  5  6  2  0  0  0
  6  7  1  0  0  0
  7  8  1  0  0  0
  8  9  2  0  0  0
  8 10  1  0  0  0
 10 11  1  0  0  0
 11 12  2  0  0  0
  6 21  1  0  0  0
 21 22  2  0  0  0
 22 23  1  0  0  0
 23 24  2  0  0  0
 24 25  1  0  0  0
 25 26  2  0  0  0
 25 27  1  0  0  0
 27 28  1  0  0  0
 28 29  2  0  0  0
 29 30  1  0  0  0
 30 31  2  0  0  0
 20 15  1  0  0  0
 12  1  1  0  0  0
 26 21  1  0  0  0
 31 27  1  0  0  0
 11  4  1  0  0  0
 10 13  1  0  0  0
M  END
> <minimizedAffinity>
42.86998

> <CNNscore>
0.4055531621

> <CNNaffinity>
6.3866591454

> <CNN_VS>
2.5901298523

> <CNNaffinity_variance>
0.6671769023

$$$$
[H]c1nnn(-c2c([H])c([H])c([H])c(C3=Nc4c([H])c([H])c(-c5c([H])c([H])c([H])c([H])c5F)c([H])c4N([H])C(=O)C3([H])[H])c2[H])c1[H]


 31 35  0  0  0  0  0  0  0  0999 V2000
   22.2179    7.4386   55.5351 C   0  0  0  0  0  0  0  0  0  0  0  0
   22.7573    8.6618   55.8619 C   0  0  0  0  0  0  0  0  0  0  0  0
   22.6529    9.7643   55.0347 C   0  0  0  0  0  0  0  0  0  0  0  0
   21.9952    9.6742   53.8367 C   0  0  0  0  0  0  0  0  0  0  0  0
   21.9635   10.8780   53.0907 N   0  0  0  0  0  0  0  0  0  0  0  0
   21.4641   11.1501   51.9414 C   0  0  0  0  0  0  0  0  0  0  0  0
   20.7352   10.3544   50.9401 C   0  0  0  0  0  0  0  0  0  0  0  0
   20.6428    8.9288   51.1472 C   0  0  0  0  0  0  0  0  0  0  0  0
   20.4448    8.2521   50.0889 O   0  0  0  0  0  0  0  0  0  0  0  0
   20.7306    8.1346   52.3112 N   0  0  0  0  0  0  0  0  0  0  0  0
   21.4465    8.4569   53.4891 C   0  0  0  0  0  0  0  0  0  0  0  0
   21.5580    7.3493   54.3329 C   0  0  0  0  0  0  0  0  0  0  0  0
   20.2116    7.2178   52.2924 H   0  0  0  0  0  0  0  0  0  0  0  0
   23.9957    5.3817   55.0372 F   0  0  0  0  0  0  0  0  0  0  0  0
   23.2130    5.2578   56.1369 C   0  0  0  0  0  0  0  0  0  0  0  0
   23.3466    4.1442   56.9189 C   0  0  0  0  0  0  0  0  0  0  0  0
   22.5444    4.0415   58.0352 C   0  0  0  0  0  0  0  0  0  0  0  0
   21.6415    5.0511   58.3282 C   0  0  0  0  0  0  0  0  0  0  0  0
   21.5094    6.1673   57.5415 C   0  0  0  0  0  0  0  0  0  0  0  0
   22.3214    6.2740   56.4092 C   0  0  0  0  0  0  0  0  0  0  0  0
   21.6435   12.5530   51.5075 C   0  0  0  0  0  0  0  0  0  0  0  0
   20.7235   13.5063   51.9221 C   0  0  0  0  0  0  0  0  0  0  0  0
   20.8469   14.8246   51.5428 C   0  0  0  0  0  0  0  0  0  0  0  0
   21.9145   15.2016   50.7294 C   0  0  0  0  0  0  0  0  0  0  0  0
   22.8461   14.2785   50.3001 C   0  0  0  0  0  0  0  0  0  0  0  0
   22.6626   12.9738   50.7175 C   0  0  0  0  0  0  0  0  0  0  0  0
   23.9133   14.6940   49.4785 N   0  0  0  0  0  0  0  0  0  0  0  0
   24.9320   13.9411   49.0386 C   0  0  0  0  0  0  0  0  0  0  0  0
   25.7693   14.7136   48.2601 C   0  0  0  0  0  0  0  0  0  0  0  0
   25.2112   15.9354   48.2585 N   0  0  0  0  0  0  0  0  0  0  0  0
   24.1063   15.8898   48.9940 N   0  0  0  0  0  0  0  0  0  0  0  0
 14 15  1  0  0  0
 15 16  2  0  0  0
 16 17  1  0  0  0
 17 18  2  0  0  0
 18 19  1  0  0  0
 19 20  2  0  0  0
 20  1  1  0  0  0
  1  2  2  0  0  0
  2  3  1  0  0  0
  3  4  2  0  0  0
  4  5  1  0  0  0
  5  6  2  0  0  0
  6  7  1  0  0  0
  7  8  1  0  0  0
  8  9  2  0  0  0
  8 10  1  0  0  0
 10 11  1  0  0  0
 11 12  2  0  0  0
  6 21  1  0  0  0
 21 22  2  0  0  0
 22 23  1  0  0  0
 23 24  2  0  0  0
 24 25  1  0  0  0
 25 26  2  0  0  0
 25 27  1  0  0  0
 27 28  1  0  0  0
 28 29  2  0  0  0
 29 30  1  0  0  0
 30 31  2  0  0  0
 20 15  1  0  0  0
 12  1  1  0  0  0
 26 21  1  0  0  0
 31 27  1  0  0  0
 11  4  1  0  0  0
 10 13  1  0  0  0
M  END
> <minimizedAffinity>
48.93810

> <CNNscore>
0.3866259456

> <CNNaffinity>
6.0373678207

> <CNN_VS>
2.3342030048

> <CNNaffinity_variance>
0.3826969564

$$$$
[H]c1nnn(-c2c([H])c([H])c([H])c(C3=Nc4c([H])c([H])c(-c5c([H])c([H])c([H])c([H])c5F)c([H])c4N([H])C(=O)C3([H])[H])c2[H])c1[H]


 31 35  0  0  0  0  0  0  0  0999 V2000
   21.4765   11.9133   51.5509 C   0  0  0  0  0  0  0  0  0  0  0  0
   20.4933   11.1907   50.9142 C   0  0  0  0  0  0  0  0  0  0  0  0
   20.1461    9.9094   51.2993 C   0  0  0  0  0  0  0  0  0  0  0  0
   20.7824    9.3032   52.3497 C   0  0  0  0  0  0  0  0  0  0  0  0
   20.3277    7.9926   52.6363 N   0  0  0  0  0  0  0  0  0  0  0  0
   20.7020    7.1392   53.5171 C   0  0  0  0  0  0  0  0  0  0  0  0
   21.7296    7.1561   54.5709 C   0  0  0  0  0  0  0  0  0  0  0  0
   22.6497    8.2682   54.5993 C   0  0  0  0  0  0  0  0  0  0  0  0
   23.7556    8.0253   55.1781 O   0  0  0  0  0  0  0  0  0  0  0  0
   22.5553    9.5866   54.1028 N   0  0  0  0  0  0  0  0  0  0  0  0
   21.7716   10.0097   53.0026 C   0  0  0  0  0  0  0  0  0  0  0  0
   22.1143   11.3042   52.6049 C   0  0  0  0  0  0  0  0  0  0  0  0
   23.1251   10.3173   54.6044 H   0  0  0  0  0  0  0  0  0  0  0  0
   19.9002   14.1000   52.1615 F   0  0  0  0  0  0  0  0  0  0  0  0
   21.0356   14.3435   51.4624 C   0  0  0  0  0  0  0  0  0  0  0  0
   21.3277   15.6312   51.1075 C   0  0  0  0  0  0  0  0  0  0  0  0
   22.4901   15.8565   50.4016 C   0  0  0  0  0  0  0  0  0  0  0  0
   23.3148   14.7912   50.0772 C   0  0  0  0  0  0  0  0  0  0  0  0
   23.0191   13.4999   50.4345 C   0  0  0  0  0  0  0  0  0  0  0  0
   21.8414   13.2687   51.1502 C   0  0  0  0  0  0  0  0  0  0  0  0
   19.9595    5.8598   53.4907 C   0  0  0  0  0  0  0  0  0  0  0  0
   18.5816    5.8802   53.6583 C   0  0  0  0  0  0  0  0  0  0  0  0
   17.8469    4.7154   53.6433 C   0  0  0  0  0  0  0  0  0  0  0  0
   18.5029    3.4994   53.4567 C   0  0  0  0  0  0  0  0  0  0  0  0
   19.8713    3.4448   53.2873 C   0  0  0  0  0  0  0  0  0  0  0  0
   20.5469    4.6503   53.3129 C   0  0  0  0  0  0  0  0  0  0  0  0
   20.5025    2.1983   53.1008 N   0  0  0  0  0  0  0  0  0  0  0  0
   20.4426    1.1350   53.9156 C   0  0  0  0  0  0  0  0  0  0  0  0
   21.1950    0.1079   53.3836 C   0  0  0  0  0  0  0  0  0  0  0  0
   21.6941    0.6015   52.2384 N   0  0  0  0  0  0  0  0  0  0  0  0
   21.2622    1.8497   52.0993 N   0  0  0  0  0  0  0  0  0  0  0  0
 14 15  1  0  0  0
 15 16  2  0  0  0
 16 17  1  0  0  0
 17 18  2  0  0  0
 18 19  1  0  0  0
 19 20  2  0  0  0
 20  1  1  0  0  0
  1  2  2  0  0  0
  2  3  1  0  0  0
  3  4  2  0  0  0
  4  5  1  0  0  0
  5  6  2  0  0  0
  6  7  1  0  0  0
  7  8  1  0  0  0
  8  9  2  0  0  0
  8 10  1  0  0  0
 10 11  1  0  0  0
 11 12  2  0  0  0
  6 21  1  0  0  0
 21 22  2  0  0  0
 22 23  1  0  0  0
 23 24  2  0  0  0
 24 25  1  0  0  0
 25 26  2  0  0  0
 25 27  1  0  0  0
 27 28  1  0  0  0
 28 29  2  0  0  0
 29 30  1  0  0  0
 30 31  2  0  0  0
 20 15  1  0  0  0
 12  1  1  0  0  0
 26 21  1  0  0  0
 31 27  1  0  0  0
 11  4  1  0  0  0
 10 13  1  0  0  0
M  END
> <minimizedAffinity>
58.97097

> <CNNscore>
0.3833422363

> <CNNaffinity>
5.9094233513

> <CNN_VS>
2.2653315067

> <CNNaffinity_variance>
0.6908623576

$$$$
[H]OC(=O)C(N([H])[H])(C([H])([H])C1([H])c2c([H])c([H])c([H])c([H])c2Oc2c([H])c([H])c([H])c([H])c21)[C@]1([H])[C@@]([H])(C(=O)O[H])[C@@]1([H])C([H])([H])C([H])(C([H])([H])[H])C([H])([H])[H]


 34 37  0  0  0  0  0  0  0  0999 V2000
   23.2455    6.7306   52.6814 C   0  0  0  0  0  0  0  0  0  0  0  0
   23.2092    6.3910   51.2455 N   0  0  0  0  0  0  0  0  0  0  0  0
   22.2853    5.9156   51.0916 H   0  0  0  0  0  0  0  0  0  0  0  0
   23.1318    7.3295   50.7521 H   0  0  0  0  0  0  0  0  0  0  0  0
   22.8578    5.5544   53.4927 C   0  0  0  0  0  0  0  0  0  0  0  0
   21.5022    5.1946   53.6187 O   0  0  0  0  0  0  0  0  0  0  0  0
   23.7133    4.8566   54.0824 O   0  0  0  0  0  0  0  0  0  0  0  0
   21.2172    4.8050   54.5047 H   0  0  0  0  0  0  0  0  0  0  0  0
   21.9142    8.8689   51.9813 C   0  0  0  0  0  0  0  0  0  0  0  0
   21.0952    7.7074   51.5517 C   0  0  0  0  0  0  0  0  0  0  0  0
   21.9861    7.6537   52.7806 C   0  0  0  0  0  0  0  0  0  0  0  0
   19.6354    7.6169   51.8605 C   0  0  0  0  0  0  0  0  0  0  0  0
   19.1394    6.9872   52.9902 O   0  0  0  0  0  0  0  0  0  0  0  0
   18.8136    8.1299   51.0643 O   0  0  0  0  0  0  0  0  0  0  0  0
   18.4466    6.2345   52.9296 H   0  0  0  0  0  0  0  0  0  0  0  0
   21.3094   10.1011   52.5658 C   0  0  0  0  0  0  0  0  0  0  0  0
   21.5969   12.5318   53.0774 C   0  0  0  0  0  0  0  0  0  0  0  0
   21.9084   11.3921   52.1242 C   0  0  0  0  0  0  0  0  0  0  0  0
   21.2152   11.7656   50.8054 C   0  0  0  0  0  0  0  0  0  0  0  0
   24.4151    7.4155   53.1403 C   0  0  0  0  0  0  0  0  0  0  0  0
   24.8428    7.4698   54.5828 C   0  0  0  0  0  0  0  0  0  0  0  0
   26.1499    8.0410   54.8995 C   0  0  0  0  0  0  0  0  0  0  0  0
   27.3174    7.2947   54.6068 C   0  0  0  0  0  0  0  0  0  0  0  0
   28.5409    7.8814   54.7602 C   0  0  0  0  0  0  0  0  0  0  0  0
   28.7072    9.1755   55.1915 C   0  0  0  0  0  0  0  0  0  0  0  0
   27.5620    9.8721   55.4758 C   0  0  0  0  0  0  0  0  0  0  0  0
   26.2741    9.3329   55.3460 C   0  0  0  0  0  0  0  0  0  0  0  0
   25.1953   10.1306   55.7159 O   0  0  0  0  0  0  0  0  0  0  0  0
   23.9278    9.5860   55.6470 C   0  0  0  0  0  0  0  0  0  0  0  0
   22.8035   10.3394   56.0394 C   0  0  0  0  0  0  0  0  0  0  0  0
   21.5320    9.8127   56.0055 C   0  0  0  0  0  0  0  0  0  0  0  0
   21.3578    8.5163   55.5767 C   0  0  0  0  0  0  0  0  0  0  0  0
   22.4668    7.7740   55.1865 C   0  0  0  0  0  0  0  0  0  0  0  0
   23.7418    8.3214   55.2236 C   0  0  0  0  0  0  0  0  0  0  0  0
 17 18  1  0  0  0
 18 19  1  0  0  0
 18 16  1  0  0  0
 16  9  1  0  0  0
  9 10  1  0  0  0
 10 11  1  0  0  0
 11  1  1  0  0  0
  1  2  1  0  0  0
  1 20  1  0  0  0
 20 21  1  0  0  0
 21 22  1  0  0  0
 22 23  2  0  0  0
 23 24  1  0  0  0
 24 25  2  0  0  0
 25 26  1  0  0  0
 26 27  2  0  0  0
 27 28  1  0  0  0
 28 29  1  0  0  0
 29 30  2  0  0  0
 30 31  1  0  0  0
 31 32  2  0  0  0
 32 33  1  0  0  0
 33 34  2  0  0  0
  1  5  1  0  0  0
  5  6  1  0  0  0
  5  7  2  0  0  0
 10 12  1  0  0  0
 12 13  1  0  0  0
 12 14  2  0  0  0
 11  9  1  0  0  0
 34 21  1  0  0  0
 27 22  1  0  0  0
 34 29  1  0  0  0
  2  3  1  0  0  0
  2  4  1  0  0  0
  6  8  1  0  0  0
 13 15  1  0  0  0
M  END
> <minimizedAffinity>
17.19886

> <CNNscore>
0.5376487374

> <CNNaffinity>
6.5517554283

> <CNN_VS>
3.5225429535

> <CNNaffinity_variance>
0.4779416621

$$$$
[H]OC(=O)C(N([H])[H])(C([H])([H])C1([H])c2c([H])c([H])c([H])c([H])c2Oc2c([H])c([H])c([H])c([H])c21)[C@]1([H])[C@@]([H])(C(=O)O[H])[C@@]1([H])C([H])([H])C([H])(C([H])([H])[H])C([H])([H])[H]


 34 37  0  0  0  0  0  0  0  0999 V2000
   22.0069    8.8954   55.4815 C   0  0  0  0  0  0  0  0  0  0  0  0
   21.0346    8.1013   56.2576 N   0  0  0  0  0  0  0  0  0  0  0  0
   20.0885    8.3943   55.9080 H   0  0  0  0  0  0  0  0  0  0  0  0
   21.1693    7.1049   55.9125 H   0  0  0  0  0  0  0  0  0  0  0  0
   21.6122   10.3224   55.4787 C   0  0  0  0  0  0  0  0  0  0  0  0
   20.4940   10.7510   56.2196 O   0  0  0  0  0  0  0  0  0  0  0  0
   22.2529   11.1764   54.8254 O   0  0  0  0  0  0  0  0  0  0  0  0
   19.9486   11.5017   55.8234 H   0  0  0  0  0  0  0  0  0  0  0  0
   20.3194    7.9130   53.7431 C   0  0  0  0  0  0  0  0  0  0  0  0
   20.6425    9.2867   53.2817 C   0  0  0  0  0  0  0  0  0  0  0  0
   21.6496    8.4315   54.0306 C   0  0  0  0  0  0  0  0  0  0  0  0
   21.0272    9.5708   51.8653 C   0  0  0  0  0  0  0  0  0  0  0  0
   21.5607   10.7817   51.4554 O   0  0  0  0  0  0  0  0  0  0  0  0
   20.8604    8.6784   51.0004 O   0  0  0  0  0  0  0  0  0  0  0  0
   21.1371   11.3319   50.7018 H   0  0  0  0  0  0  0  0  0  0  0  0
   20.1623    6.7687   52.7988 C   0  0  0  0  0  0  0  0  0  0  0  0
   19.6597    4.4571   53.6088 C   0  0  0  0  0  0  0  0  0  0  0  0
   20.7334    5.4689   53.2512 C   0  0  0  0  0  0  0  0  0  0  0  0
   21.4764    5.7531   54.5651 C   0  0  0  0  0  0  0  0  0  0  0  0
   23.3890    8.6569   55.7655 C   0  0  0  0  0  0  0  0  0  0  0  0
   24.5171    9.1033   54.8739 C   0  0  0  0  0  0  0  0  0  0  0  0
   25.8334    9.3161   55.4717 C   0  0  0  0  0  0  0  0  0  0  0  0
   26.0480   10.4619   56.2759 C   0  0  0  0  0  0  0  0  0  0  0  0
   27.2246   10.5886   56.9572 C   0  0  0  0  0  0  0  0  0  0  0  0
   28.2301    9.6533   56.9048 C   0  0  0  0  0  0  0  0  0  0  0  0
   28.0001    8.5590   56.1129 C   0  0  0  0  0  0  0  0  0  0  0  0
   26.8191    8.3652   55.3822 C   0  0  0  0  0  0  0  0  0  0  0  0
   26.7319    7.2341   54.5761 O   0  0  0  0  0  0  0  0  0  0  0  0
   25.5962    7.0667   53.8079 C   0  0  0  0  0  0  0  0  0  0  0  0
   25.4700    5.9556   52.9506 C   0  0  0  0  0  0  0  0  0  0  0  0
   24.3606    5.7780   52.1550 C   0  0  0  0  0  0  0  0  0  0  0  0
   23.3503    6.7118   52.2004 C   0  0  0  0  0  0  0  0  0  0  0  0
   23.4734    7.8066   53.0487 C   0  0  0  0  0  0  0  0  0  0  0  0
   24.5973    7.9689   53.8469 C   0  0  0  0  0  0  0  0  0  0  0  0
 17 18  1  0  0  0
 18 19  1  0  0  0
 18 16  1  0  0  0
 16  9  1  0  0  0
  9 10  1  0  0  0
 10 11  1  0  0  0
 11  1  1  0  0  0
  1  2  1  0  0  0
  1 20  1  0  0  0
 20 21  1  0  0  0
 21 22  1  0  0  0
 22 23  2  0  0  0
 23 24  1  0  0  0
 24 25  2  0  0  0
 25 26  1  0  0  0
 26 27  2  0  0  0
 27 28  1  0  0  0
 28 29  1  0  0  0
 29 30  2  0  0  0
 30 31  1  0  0  0
 31 32  2  0  0  0
 32 33  1  0  0  0
 33 34  2  0  0  0
  1  5  1  0  0  0
  5  6  1  0  0  0
  5  7  2  0  0  0
 10 12  1  0  0  0
 12 13  1  0  0  0
 12 14  2  0  0  0
 11  9  1  0  0  0
 34 21  1  0  0  0
 27 22  1  0  0  0
 34 29  1  0  0  0
  2  3  1  0  0  0
  2  4  1  0  0  0
  6  8  1  0  0  0
 13 15  1  0  0  0
M  END
> <minimizedAffinity>
21.37554

> <CNNscore>
0.5212370157

> <CNNaffinity>
6.4503731728

> <CNN_VS>
3.3621733189

> <CNNaffinity_variance>
0.4675474167

$$$$
[H]OC(=O)C(N([H])[H])(C([H])([H])C1([H])c2c([H])c([H])c([H])c([H])c2Oc2c([H])c([H])c([H])c([H])c21)[C@]1([H])[C@@]([H])(C(=O)O[H])[C@@]1([H])C([H])([H])C([H])(C([H])([H])[H])C([H])([H])[H]


 34 37  0  0  0  0  0  0  0  0999 V2000
   22.5135    9.6338   55.2547 C   0  0  0  0  0  0  0  0  0  0  0  0
   21.5558    8.5550   55.5669 N   0  0  0  0  0  0  0  0  0  0  0  0
   20.6273    8.8896   55.2073 H   0  0  0  0  0  0  0  0  0  0  0  0
   21.8377    7.7553   54.9256 H   0  0  0  0  0  0  0  0  0  0  0  0
   21.9653   10.9408   55.6824 C   0  0  0  0  0  0  0  0  0  0  0  0
   20.7746   11.0002   56.4320 O   0  0  0  0  0  0  0  0  0  0  0  0
   22.5372   12.0158   55.3927 O   0  0  0  0  0  0  0  0  0  0  0  0
   20.1686   11.7881   56.2582 H   0  0  0  0  0  0  0  0  0  0  0  0
   21.2445    9.0340   53.0490 C   0  0  0  0  0  0  0  0  0  0  0  0
   21.2180   10.5146   53.1571 C   0  0  0  0  0  0  0  0  0  0  0  0
   22.3723    9.6887   53.6974 C   0  0  0  0  0  0  0  0  0  0  0  0
   21.5916   11.3942   52.0076 C   0  0  0  0  0  0  0  0  0  0  0  0
   22.2513   12.6022   52.1635 O   0  0  0  0  0  0  0  0  0  0  0  0
   21.2958   11.0311   50.8444 O   0  0  0  0  0  0  0  0  0  0  0  0
   21.8733   13.4774   51.7875 H   0  0  0  0  0  0  0  0  0  0  0  0
   21.4479    8.3309   51.7490 C   0  0  0  0  0  0  0  0  0  0  0  0
   19.1938    8.2433   50.6704 C   0  0  0  0  0  0  0  0  0  0  0  0
   20.3283    7.4558   51.3007 C   0  0  0  0  0  0  0  0  0  0  0  0
   19.7308    6.8284   52.5690 C   0  0  0  0  0  0  0  0  0  0  0  0
   23.8736    9.4018   55.6339 C   0  0  0  0  0  0  0  0  0  0  0  0
   24.5250    8.0444   55.6302 C   0  0  0  0  0  0  0  0  0  0  0  0
   24.0417    7.0438   54.6814 C   0  0  0  0  0  0  0  0  0  0  0  0
   22.7935    6.4173   54.9165 C   0  0  0  0  0  0  0  0  0  0  0  0
   22.2682    5.5957   53.9606 C   0  0  0  0  0  0  0  0  0  0  0  0
   22.8926    5.3360   52.7643 C   0  0  0  0  0  0  0  0  0  0  0  0
   24.1024    5.9480   52.5661 C   0  0  0  0  0  0  0  0  0  0  0  0
   24.7037    6.7993   53.5042 C   0  0  0  0  0  0  0  0  0  0  0  0
   25.9592    7.3174   53.2007 O   0  0  0  0  0  0  0  0  0  0  0  0
   26.5836    8.1089   54.1449 C   0  0  0  0  0  0  0  0  0  0  0  0
   27.8687    8.6334   53.9016 C   0  0  0  0  0  0  0  0  0  0  0  0
   28.5245    9.4034   54.8355 C   0  0  0  0  0  0  0  0  0  0  0  0
   27.9063    9.6659   56.0371 C   0  0  0  0  0  0  0  0  0  0  0  0
   26.6370    9.1511   56.2759 C   0  0  0  0  0  0  0  0  0  0  0  0
   25.9882    8.3792   55.3220 C   0  0  0  0  0  0  0  0  0  0  0  0
 17 18  1  0  0  0
 18 19  1  0  0  0
 18 16  1  0  0  0
 16  9  1  0  0  0
  9 10  1  0  0  0
 10 11  1  0  0  0
 11  1  1  0  0  0
  1  2  1  0  0  0
  1 20  1  0  0  0
 20 21  1  0  0  0
 21 22  1  0  0  0
 22 23  2  0  0  0
 23 24  1  0  0  0
 24 25  2  0  0  0
 25 26  1  0  0  0
 26 27  2  0  0  0
 27 28  1  0  0  0
 28 29  1  0  0  0
 29 30  2  0  0  0
 30 31  1  0  0  0
 31 32  2  0  0  0
 32 33  1  0  0  0
 33 34  2  0  0  0
  1  5  1  0  0  0
  5  6  1  0  0  0
  5  7  2  0  0  0
 10 12  1  0  0  0
 12 13  1  0  0  0
 12 14  2  0  0  0
 11  9  1  0  0  0
 34 21  1  0  0  0
 27 22  1  0  0  0
 34 29  1  0  0  0
  2  3  1  0  0  0
  2  4  1  0  0  0
  6  8  1  0  0  0
 13 15  1  0  0  0
M  END
> <minimizedAffinity>
19.08223

> <CNNscore>
0.5194823742

> <CNNaffinity>
6.5566434860

> <CNN_VS>
3.4060606956

> <CNNaffinity_variance>
0.3333682120

$$$$
[H]OC(=O)C(N([H])[H])(C([H])([H])C1([H])c2c([H])c([H])c([H])c([H])c2Oc2c([H])c([H])c([H])c([H])c21)[C@]1([H])[C@@]([H])(C(=O)O[H])[C@@]1([H])C([H])([H])C([H])(C([H])([H])[H])C([H])([H])[H]


 34 37  0  0  0  0  0  0  0  0999 V2000
   24.5129    8.3493   54.7104 C   0  0  0  0  0  0  0  0  0  0  0  0
   24.6284    7.0651   55.4287 N   0  0  0  0  0  0  0  0  0  0  0  0
   25.3784    6.5278   54.9265 H   0  0  0  0  0  0  0  0  0  0  0  0
   25.0466    7.3241   56.3711 H   0  0  0  0  0  0  0  0  0  0  0  0
   24.4224    8.1108   53.2521 C   0  0  0  0  0  0  0  0  0  0  0  0
   24.3555    6.7966   52.7506 O   0  0  0  0  0  0  0  0  0  0  0  0
   24.4037    9.0585   52.4347 O   0  0  0  0  0  0  0  0  0  0  0  0
   24.8122    6.6248   51.8674 H   0  0  0  0  0  0  0  0  0  0  0  0
   26.5971    8.8761   56.1982 C   0  0  0  0  0  0  0  0  0  0  0  0
   27.0389    7.8678   55.2019 C   0  0  0  0  0  0  0  0  0  0  0  0
   25.9681    8.8971   54.8849 C   0  0  0  0  0  0  0  0  0  0  0  0
   28.2956    8.0414   54.4110 C   0  0  0  0  0  0  0  0  0  0  0  0
   28.8799    7.0160   53.6859 O   0  0  0  0  0  0  0  0  0  0  0  0
   28.8554    9.1634   54.3995 O   0  0  0  0  0  0  0  0  0  0  0  0
   29.8550    6.7371   53.8328 H   0  0  0  0  0  0  0  0  0  0  0  0
   27.4624   10.0161   56.6196 C   0  0  0  0  0  0  0  0  0  0  0  0
   27.9326    8.6927   58.6884 C   0  0  0  0  0  0  0  0  0  0  0  0
   28.4479    9.7208   57.6975 C   0  0  0  0  0  0  0  0  0  0  0  0
   28.6111   11.0167   58.5058 C   0  0  0  0  0  0  0  0  0  0  0  0
   23.5547    9.2787   55.2259 C   0  0  0  0  0  0  0  0  0  0  0  0
   22.1035    9.2953   54.8253 C   0  0  0  0  0  0  0  0  0  0  0  0
   21.7209   10.0421   53.6291 C   0  0  0  0  0  0  0  0  0  0  0  0
   21.6984   11.4573   53.6780 C   0  0  0  0  0  0  0  0  0  0  0  0
   21.4891   12.1620   52.5272 C   0  0  0  0  0  0  0  0  0  0  0  0
   21.2937   11.5666   51.3041 C   0  0  0  0  0  0  0  0  0  0  0  0
   21.3118   10.1966   51.2865 C   0  0  0  0  0  0  0  0  0  0  0  0
   21.5163    9.4091   52.4285 C   0  0  0  0  0  0  0  0  0  0  0  0
   21.4612    8.0262   52.2827 O   0  0  0  0  0  0  0  0  0  0  0  0
   21.6026    7.2452   53.4132 C   0  0  0  0  0  0  0  0  0  0  0  0
   21.5236    5.8409   53.3267 C   0  0  0  0  0  0  0  0  0  0  0  0
   21.6350    5.0400   54.4409 C   0  0  0  0  0  0  0  0  0  0  0  0
   21.8286    5.6293   55.6697 C   0  0  0  0  0  0  0  0  0  0  0  0
   21.9097    7.0147   55.7547 C   0  0  0  0  0  0  0  0  0  0  0  0
   21.7986    7.8076   54.6208 C   0  0  0  0  0  0  0  0  0  0  0  0
 17 18  1  0  0  0
 18 19  1  0  0  0
 18 16  1  0  0  0
 16  9  1  0  0  0
  9 10  1  0  0  0
 10 11  1  0  0  0
 11  1  1  0  0  0
  1  2  1  0  0  0
  1 20  1  0  0  0
 20 21  1  0  0  0
 21 22  1  0  0  0
 22 23  2  0  0  0
 23 24  1  0  0  0
 24 25  2  0  0  0
 25 26  1  0  0  0
 26 27  2  0  0  0
 27 28  1  0  0  0
 28 29  1  0  0  0
 29 30  2  0  0  0
 30 31  1  0  0  0
 31 32  2  0  0  0
 32 33  1  0  0  0
 33 34  2  0  0  0
  1  5  1  0  0  0
  5  6  1  0  0  0
  5  7  2  0  0  0
 10 12  1  0  0  0
 12 13  1  0  0  0
 12 14  2  0  0  0
 11  9  1  0  0  0
 34 21  1  0  0  0
 27 22  1  0  0  0
 34 29  1  0  0  0
  2  3  1  0  0  0
  2  4  1  0  0  0
  6  8  1  0  0  0
 13 15  1  0  0  0
M  END
> <minimizedAffinity>
12.13478

> <CNNscore>
0.4920088053

> <CNNaffinity>
6.2373185158

> <CNN_VS>
3.0688157082

> <CNNaffinity_variance>
0.2723983228

$$$$
[H]OC(=O)C(N([H])[H])(C([H])([H])C1([H])c2c([H])c([H])c([H])c([H])c2Oc2c([H])c([H])c([H])c([H])c21)[C@]1([H])[C@@]([H])(C(=O)O[H])[C@@]1([H])C([H])([H])C([H])(C([H])([H])[H])C([H])([H])[H]


 34 37  0  0  0  0  0  0  0  0999 V2000
   21.8447    8.2438   55.7732 C   0  0  0  0  0  0  0  0  0  0  0  0
   21.3838    7.0526   56.5128 N   0  0  0  0  0  0  0  0  0  0  0  0
   20.4832    6.7670   56.0539 H   0  0  0  0  0  0  0  0  0  0  0  0
   22.0849    6.2947   56.2598 H   0  0  0  0  0  0  0  0  0  0  0  0
   20.7342    9.2114   55.6233 C   0  0  0  0  0  0  0  0  0  0  0  0
   20.8064   10.4758   56.2390 O   0  0  0  0  0  0  0  0  0  0  0  0
   19.7129    8.9356   54.9543 O   0  0  0  0  0  0  0  0  0  0  0  0
   19.9395   10.8643   56.5792 H   0  0  0  0  0  0  0  0  0  0  0  0
   21.8947    6.2018   54.1415 C   0  0  0  0  0  0  0  0  0  0  0  0
   20.7247    7.0254   53.7446 C   0  0  0  0  0  0  0  0  0  0  0  0
   21.9805    7.6426   54.3351 C   0  0  0  0  0  0  0  0  0  0  0  0
   20.4775    7.4062   52.3204 C   0  0  0  0  0  0  0  0  0  0  0  0
   19.2786    7.9408   51.8782 O   0  0  0  0  0  0  0  0  0  0  0  0
   21.3913    7.2350   51.4789 O   0  0  0  0  0  0  0  0  0  0  0  0
   18.7467    7.5160   51.1121 H   0  0  0  0  0  0  0  0  0  0  0  0
   22.7811    5.5381   53.1417 C   0  0  0  0  0  0  0  0  0  0  0  0
   24.5242    5.6752   54.9293 C   0  0  0  0  0  0  0  0  0  0  0  0
   24.0480    4.9635   53.6758 C   0  0  0  0  0  0  0  0  0  0  0  0
   25.1294    5.2356   52.6195 C   0  0  0  0  0  0  0  0  0  0  0  0
   23.0835    8.8161   56.2039 C   0  0  0  0  0  0  0  0  0  0  0  0
   23.9699    9.6561   55.3234 C   0  0  0  0  0  0  0  0  0  0  0  0
   25.2594    9.1076   54.9092 C   0  0  0  0  0  0  0  0  0  0  0  0
   26.3115    9.0315   55.8542 C   0  0  0  0  0  0  0  0  0  0  0  0
   27.4660    8.3846   55.5174 C   0  0  0  0  0  0  0  0  0  0  0  0
   27.6697    7.7952   54.2928 C   0  0  0  0  0  0  0  0  0  0  0  0
   26.6393    7.8908   53.3946 C   0  0  0  0  0  0  0  0  0  0  0  0
   25.4289    8.5430   53.6697 C   0  0  0  0  0  0  0  0  0  0  0  0
   24.4822    8.6125   52.6520 O   0  0  0  0  0  0  0  0  0  0  0  0
   23.3119    9.3044   52.8961 C   0  0  0  0  0  0  0  0  0  0  0  0
   22.3335    9.4323   51.8901 C   0  0  0  0  0  0  0  0  0  0  0  0
   21.1700   10.1381   52.0980 C   0  0  0  0  0  0  0  0  0  0  0  0
   20.9600   10.7333   53.3213 C   0  0  0  0  0  0  0  0  0  0  0  0
   21.9239   10.6045   54.3150 C   0  0  0  0  0  0  0  0  0  0  0  0
   23.0902    9.8863   54.0900 C   0  0  0  0  0  0  0  0  0  0  0  0
 17 18  1  0  0  0
 18 19  1  0  0  0
 18 16  1  0  0  0
 16  9  1  0  0  0
  9 10  1  0  0  0
 10 11  1  0  0  0
 11  1  1  0  0  0
  1  2  1  0  0  0
  1 20  1  0  0  0
 20 21  1  0  0  0
 21 22  1  0  0  0
 22 23  2  0  0  0
 23 24  1  0  0  0
 24 25  2  0  0  0
 25 26  1  0  0  0
 26 27  2  0  0  0
 27 28  1  0  0  0
 28 29  1  0  0  0
 29 30  2  0  0  0
 30 31  1  0  0  0
 31 32  2  0  0  0
 32 33  1  0  0  0
 33 34  2  0  0  0
  1  5  1  0  0  0
  5  6  1  0  0  0
  5  7  2  0  0  0
 10 12  1  0  0  0
 12 13  1  0  0  0
 12 14  2  0  0  0
 11  9  1  0  0  0
 34 21  1  0  0  0
 27 22  1  0  0  0
 34 29  1  0  0  0
  2  3  1  0  0  0
  2  4  1  0  0  0
  6  8  1  0  0  0
 13 15  1  0  0  0
M  END
> <minimizedAffinity>
19.88467

> <CNNscore>
0.4757545292

> <CNNaffinity>
6.4233312607

> <CNN_VS>
3.0559289455

> <CNNaffinity_variance>
0.4643809795

$$$$
[H]OC(=O)C(N([H])[H])(C([H])([H])C1([H])c2c([H])c([H])c([H])c([H])c2Oc2c([H])c([H])c([H])c([H])c21)[C@]1([H])[C@@]([H])(C(=O)O[H])[C@@]1([H])C([H])([H])C([H])(C([H])([H])[H])C([H])([H])[H]


 34 37  0  0  0  0  0  0  0  0999 V2000
   23.8718    6.0692   52.9562 C   0  0  0  0  0  0  0  0  0  0  0  0
   23.3057    6.6937   51.7446 N   0  0  0  0  0  0  0  0  0  0  0  0
   22.7155    5.9507   51.2942 H   0  0  0  0  0  0  0  0  0  0  0  0
   22.6197    7.4169   52.1140 H   0  0  0  0  0  0  0  0  0  0  0  0
   24.4473    4.7458   52.6255 C   0  0  0  0  0  0  0  0  0  0  0  0
   25.1716    4.5650   51.4314 O   0  0  0  0  0  0  0  0  0  0  0  0
   24.3071    3.7632   53.3880 O   0  0  0  0  0  0  0  0  0  0  0  0
   25.0842    3.6669   50.9800 H   0  0  0  0  0  0  0  0  0  0  0  0
   22.2149    6.3890   54.9530 C   0  0  0  0  0  0  0  0  0  0  0  0
   21.4643    6.7528   53.7247 C   0  0  0  0  0  0  0  0  0  0  0  0
   22.5565    5.6976   53.7177 C   0  0  0  0  0  0  0  0  0  0  0  0
   20.0993    6.2103   53.4472 C   0  0  0  0  0  0  0  0  0  0  0  0
   19.8258    4.8544   53.3725 O   0  0  0  0  0  0  0  0  0  0  0  0
   19.1519    7.0123   53.2697 O   0  0  0  0  0  0  0  0  0  0  0  0
   19.3823    4.4366   52.5485 H   0  0  0  0  0  0  0  0  0  0  0  0
   21.5914    5.6291   56.0753 C   0  0  0  0  0  0  0  0  0  0  0  0
   23.2970    4.1245   57.1144 C   0  0  0  0  0  0  0  0  0  0  0  0
   22.4631    5.3848   57.2589 C   0  0  0  0  0  0  0  0  0  0  0  0
   21.5237    5.1158   58.4439 C   0  0  0  0  0  0  0  0  0  0  0  0
   24.7094    6.9014   53.7647 C   0  0  0  0  0  0  0  0  0  0  0  0
   24.7649    8.4013   53.6469 C   0  0  0  0  0  0  0  0  0  0  0  0
   23.5900    9.1739   54.0442 C   0  0  0  0  0  0  0  0  0  0  0  0
   22.4494    9.1746   53.2046 C   0  0  0  0  0  0  0  0  0  0  0  0
   21.2999    9.7689   53.6404 C   0  0  0  0  0  0  0  0  0  0  0  0
   21.1850   10.3786   54.8667 C   0  0  0  0  0  0  0  0  0  0  0  0
   22.3055   10.3711   55.6553 C   0  0  0  0  0  0  0  0  0  0  0  0
   23.5199    9.7845   55.2714 C   0  0  0  0  0  0  0  0  0  0  0  0
   24.5976    9.8902   56.1455 O   0  0  0  0  0  0  0  0  0  0  0  0
   25.8127    9.3667   55.7489 C   0  0  0  0  0  0  0  0  0  0  0  0
   26.9441    9.4743   56.5820 C   0  0  0  0  0  0  0  0  0  0  0  0
   28.1728    8.9847   56.2005 C   0  0  0  0  0  0  0  0  0  0  0  0
   28.2962    8.3747   54.9727 C   0  0  0  0  0  0  0  0  0  0  0  0
   27.1792    8.2657   54.1518 C   0  0  0  0  0  0  0  0  0  0  0  0
   25.9466    8.7619   54.5533 C   0  0  0  0  0  0  0  0  0  0  0  0
 17 18  1  0  0  0
 18 19  1  0  0  0
 18 16  1  0  0  0
 16  9  1  0  0  0
  9 10  1  0  0  0
 10 11  1  0  0  0
 11  1  1  0  0  0
  1  2  1  0  0  0
  1 20  1  0  0  0
 20 21  1  0  0  0
 21 22  1  0  0  0
 22 23  2  0  0  0
 23 24  1  0  0  0
 24 25  2  0  0  0
 25 26  1  0  0  0
 26 27  2  0  0  0
 27 28  1  0  0  0
 28 29  1  0  0  0
 29 30  2  0  0  0
 30 31  1  0  0  0
 31 32  2  0  0  0
 32 33  1  0  0  0
 33 34  2  0  0  0
  1  5  1  0  0  0
  5  6  1  0  0  0
  5  7  2  0  0  0
 10 12  1  0  0  0
 12 13  1  0  0  0
 12 14  2  0  0  0
 11  9  1  0  0  0
 34 21  1  0  0  0
 27 22  1  0  0  0
 34 29  1  0  0  0
  2  3  1  0  0  0
  2  4  1  0  0  0
  6  8  1  0  0  0
 13 15  1  0  0  0
M  END
> <minimizedAffinity>
23.52287

> <CNNscore>
0.4673677087

> <CNNaffinity>
6.5341539383

> <CNN_VS>
3.0538525581

> <CNNaffinity_variance>
0.7829224467

$$$$
[H]OC(=O)C(N([H])[H])(C([H])([H])C1([H])c2c([H])c([H])c([H])c([H])c2Oc2c([H])c([H])c([H])c([H])c21)[C@]1([H])[C@@]([H])(C(=O)O[H])[C@@]1([H])C([H])([H])C([H])(C([H])([H])[H])C([H])([H])[H]


 34 37  0  0  0  0  0  0  0  0999 V2000
   21.7169    9.4516   55.0841 C   0  0  0  0  0  0  0  0  0  0  0  0
   20.9186    8.3421   55.6412 N   0  0  0  0  0  0  0  0  0  0  0  0
   19.9164    8.6438   55.5523 H   0  0  0  0  0  0  0  0  0  0  0  0
   21.0402    7.5501   54.9427 H   0  0  0  0  0  0  0  0  0  0  0  0
   21.2636   10.7409   55.6533 C   0  0  0  0  0  0  0  0  0  0  0  0
   21.3827   10.9881   57.0346 O   0  0  0  0  0  0  0  0  0  0  0  0
   20.7676   11.6355   54.9320 O   0  0  0  0  0  0  0  0  0  0  0  0
   20.6554   11.5433   57.4599 H   0  0  0  0  0  0  0  0  0  0  0  0
   21.9468   10.0867   52.5585 C   0  0  0  0  0  0  0  0  0  0  0  0
   21.8464    8.6062   52.6097 C   0  0  0  0  0  0  0  0  0  0  0  0
   21.1516    9.4957   53.6258 C   0  0  0  0  0  0  0  0  0  0  0  0
   20.9063    7.8504   51.7267 C   0  0  0  0  0  0  0  0  0  0  0  0
   21.0791    7.7413   50.3567 O   0  0  0  0  0  0  0  0  0  0  0  0
   19.9106    7.2877   52.2409 O   0  0  0  0  0  0  0  0  0  0  0  0
   20.3476    8.0203   49.6954 H   0  0  0  0  0  0  0  0  0  0  0  0
   21.2756   10.8974   51.5012 C   0  0  0  0  0  0  0  0  0  0  0  0
   21.5128   13.1985   52.4504 C   0  0  0  0  0  0  0  0  0  0  0  0
   21.8188   12.2688   51.2900 C   0  0  0  0  0  0  0  0  0  0  0  0
   21.0629   12.8568   50.0891 C   0  0  0  0  0  0  0  0  0  0  0  0
   23.1359    9.2672   55.0738 C   0  0  0  0  0  0  0  0  0  0  0  0
   23.8129    7.9553   55.3690 C   0  0  0  0  0  0  0  0  0  0  0  0
   23.4946    6.8038   54.5277 C   0  0  0  0  0  0  0  0  0  0  0  0
   22.2407    6.1635   54.6814 C   0  0  0  0  0  0  0  0  0  0  0  0
   21.8777    5.1859   53.7998 C   0  0  0  0  0  0  0  0  0  0  0  0
   22.6734    4.7795   52.7557 C   0  0  0  0  0  0  0  0  0  0  0  0
   23.8843    5.4092   52.6350 C   0  0  0  0  0  0  0  0  0  0  0  0
   24.3244    6.4169   53.5051 C   0  0  0  0  0  0  0  0  0  0  0  0
   25.5978    6.9403   53.3022 O   0  0  0  0  0  0  0  0  0  0  0  0
   26.0613    7.8910   54.1907 C   0  0  0  0  0  0  0  0  0  0  0  0
   27.3553    8.4309   54.0499 C   0  0  0  0  0  0  0  0  0  0  0  0
   27.8519    9.3601   54.9359 C   0  0  0  0  0  0  0  0  0  0  0  0
   27.0615    9.7704   55.9856 C   0  0  0  0  0  0  0  0  0  0  0  0
   25.7835    9.2400   56.1228 C   0  0  0  0  0  0  0  0  0  0  0  0
   25.2968    8.3062   55.2185 C   0  0  0  0  0  0  0  0  0  0  0  0
 17 18  1  0  0  0
 18 19  1  0  0  0
 18 16  1  0  0  0
 16  9  1  0  0  0
  9 10  1  0  0  0
 10 11  1  0  0  0
 11  1  1  0  0  0
  1  2  1  0  0  0
  1 20  1  0  0  0
 20 21  1  0  0  0
 21 22  1  0  0  0
 22 23  2  0  0  0
 23 24  1  0  0  0
 24 25  2  0  0  0
 25 26  1  0  0  0
 26 27  2  0  0  0
 27 28  1  0  0  0
 28 29  1  0  0  0
 29 30  2  0  0  0
 30 31  1  0  0  0
 31 32  2  0  0  0
 32 33  1  0  0  0
 33 34  2  0  0  0
  1  5  1  0  0  0
  5  6  1  0  0  0
  5  7  2  0  0  0
 10 12  1  0  0  0
 12 13  1  0  0  0
 12 14  2  0  0  0
 11  9  1  0  0  0
 34 21  1  0  0  0
 27 22  1  0  0  0
 34 29  1  0  0  0
  2  3  1  0  0  0
  2  4  1  0  0  0
  6  8  1  0  0  0
 13 15  1  0  0  0
M  END
> <minimizedAffinity>
17.32183

> <CNNscore>
0.4622302353

> <CNNaffinity>
6.7352142334

> <CNN_VS>
3.1132197380

> <CNNaffinity_variance>
0.5846046209

$$$$
[H]OC(=O)C(N([H])[H])(C([H])([H])C1([H])c2c([H])c([H])c([H])c([H])c2Oc2c([H])c([H])c([H])c([H])c21)[C@]1([H])[C@@]([H])(C(=O)O[H])[C@@]1([H])C([H])([H])C([H])(C([H])([H])[H])C([H])([H])[H]


 34 37  0  0  0  0  0  0  0  0999 V2000
   24.0281    6.1956   53.4695 C   0  0  0  0  0  0  0  0  0  0  0  0
   23.4182    6.1585   52.1259 N   0  0  0  0  0  0  0  0  0  0  0  0
   22.5716    5.5435   52.2176 H   0  0  0  0  0  0  0  0  0  0  0  0
   23.0411    7.1413   51.9778 H   0  0  0  0  0  0  0  0  0  0  0  0
   24.1474    4.8235   54.0126 C   0  0  0  0  0  0  0  0  0  0  0  0
   24.0852    4.6021   55.4019 O   0  0  0  0  0  0  0  0  0  0  0  0
   24.3057    3.8348   53.2616 O   0  0  0  0  0  0  0  0  0  0  0  0
   24.6609    3.8588   55.7685 H   0  0  0  0  0  0  0  0  0  0  0  0
   21.4730    6.4218   53.9750 C   0  0  0  0  0  0  0  0  0  0  0  0
   22.0881    5.8269   55.1884 C   0  0  0  0  0  0  0  0  0  0  0  0
   22.8432    6.7965   54.2960 C   0  0  0  0  0  0  0  0  0  0  0  0
   21.8056    6.3606   56.5559 C   0  0  0  0  0  0  0  0  0  0  0  0
   21.5484    7.6984   56.8068 O   0  0  0  0  0  0  0  0  0  0  0  0
   21.8016    5.5682   57.5278 O   0  0  0  0  0  0  0  0  0  0  0  0
   22.0960    8.2363   57.4857 H   0  0  0  0  0  0  0  0  0  0  0  0
   20.3919    7.4473   54.0476 C   0  0  0  0  0  0  0  0  0  0  0  0
   18.7087    5.9442   52.9706 C   0  0  0  0  0  0  0  0  0  0  0  0
   19.3177    7.3338   53.0211 C   0  0  0  0  0  0  0  0  0  0  0  0
   19.9961    7.5291   51.6570 C   0  0  0  0  0  0  0  0  0  0  0  0
   25.2039    6.9992   53.6087 C   0  0  0  0  0  0  0  0  0  0  0  0
   25.1993    8.5044   53.5751 C   0  0  0  0  0  0  0  0  0  0  0  0
   23.9546    9.2030   53.8877 C   0  0  0  0  0  0  0  0  0  0  0  0
   22.9063    9.2029   52.9355 C   0  0  0  0  0  0  0  0  0  0  0  0
   21.6914    9.7227   53.2799 C   0  0  0  0  0  0  0  0  0  0  0  0
   21.4238   10.2568   54.5175 C   0  0  0  0  0  0  0  0  0  0  0  0
   22.4577   10.2522   55.4167 C   0  0  0  0  0  0  0  0  0  0  0  0
   23.7314    9.7399   55.1310 C   0  0  0  0  0  0  0  0  0  0  0  0
   24.7088    9.8416   56.1166 O   0  0  0  0  0  0  0  0  0  0  0  0
   25.9814    9.3931   55.8216 C   0  0  0  0  0  0  0  0  0  0  0  0
   27.0161    9.5012   56.7721 C   0  0  0  0  0  0  0  0  0  0  0  0
   28.2991    9.0861   56.4952 C   0  0  0  0  0  0  0  0  0  0  0  0
   28.5753    8.5521   55.2569 C   0  0  0  0  0  0  0  0  0  0  0  0
   27.5537    8.4425   54.3201 C   0  0  0  0  0  0  0  0  0  0  0  0
   26.2645    8.8629   54.6166 C   0  0  0  0  0  0  0  0  0  0  0  0
 17 18  1  0  0  0
 18 19  1  0  0  0
 18 16  1  0  0  0
 16  9  1  0  0  0
  9 10  1  0  0  0
 10 11  1  0  0  0
 11  1  1  0  0  0
  1  2  1  0  0  0
  1 20  1  0  0  0
 20 21  1  0  0  0
 21 22  1  0  0  0
 22 23  2  0  0  0
 23 24  1  0  0  0
 24 25  2  0  0  0
 25 26  1  0  0  0
 26 27  2  0  0  0
 27 28  1  0  0  0
 28 29  1  0  0  0
 29 30  2  0  0  0
 30 31  1  0  0  0
 31 32  2  0  0  0
 32 33  1  0  0  0
 33 34  2  0  0  0
  1  5  1  0  0  0
  5  6  1  0  0  0
  5  7  2  0  0  0
 10 12  1  0  0  0
 12 13  1  0  0  0
 12 14  2  0  0  0
 11  9  1  0  0  0
 34 21  1  0  0  0
 27 22  1  0  0  0
 34 29  1  0  0  0
  2  3  1  0  0  0
  2  4  1  0  0  0
  6  8  1  0  0  0
 13 15  1  0  0  0
M  END
> <minimizedAffinity>
18.28651

> <CNNscore>
0.4524349868

> <CNNaffinity>
6.6325674057

> <CNN_VS>
3.0008056164

> <CNNaffinity_variance>
0.5786231756

$$$$
[H]OC(=O)C(N([H])[H])(C([H])([H])C1([H])c2c([H])c([H])c([H])c([H])c2Oc2c([H])c([H])c([H])c([H])c21)[C@]1([H])[C@@]([H])(C(=O)O[H])[C@@]1([H])C([H])([H])C([H])(C([H])([H])[H])C([H])([H])[H]


 34 37  0  0  0  0  0  0  0  0999 V2000
   22.3037    8.1004   52.4511 C   0  0  0  0  0  0  0  0  0  0  0  0
   21.4848    9.3283   52.4356 N   0  0  0  0  0  0  0  0  0  0  0  0
   20.5284    9.0253   52.1246 H   0  0  0  0  0  0  0  0  0  0  0  0
   21.3806    9.5915   53.4602 H   0  0  0  0  0  0  0  0  0  0  0  0
   22.1233    7.3521   51.1865 C   0  0  0  0  0  0  0  0  0  0  0  0
   21.0449    7.6518   50.3319 O   0  0  0  0  0  0  0  0  0  0  0  0
   22.9139    6.4433   50.8464 O   0  0  0  0  0  0  0  0  0  0  0  0
   20.6358    6.8778   49.8300 H   0  0  0  0  0  0  0  0  0  0  0  0
   20.9605    5.9489   53.0848 C   0  0  0  0  0  0  0  0  0  0  0  0
   22.1640    5.9615   53.9543 C   0  0  0  0  0  0  0  0  0  0  0  0
   21.4984    7.2425   53.4824 C   0  0  0  0  0  0  0  0  0  0  0  0
   22.0709    5.7413   55.4299 C   0  0  0  0  0  0  0  0  0  0  0  0
   23.0801    5.1486   56.1707 O   0  0  0  0  0  0  0  0  0  0  0  0
   21.0336    6.1046   56.0335 O   0  0  0  0  0  0  0  0  0  0  0  0
   22.9091    4.3248   56.7559 H   0  0  0  0  0  0  0  0  0  0  0  0
   19.6196    5.5237   53.5819 C   0  0  0  0  0  0  0  0  0  0  0  0
   19.6816    3.2399   52.5656 C   0  0  0  0  0  0  0  0  0  0  0  0
   19.4473    4.0628   53.8196 C   0  0  0  0  0  0  0  0  0  0  0  0
   17.9678    3.8504   54.1734 C   0  0  0  0  0  0  0  0  0  0  0  0
   23.6640    8.2522   52.8684 C   0  0  0  0  0  0  0  0  0  0  0  0
   24.1531    7.9471   54.2592 C   0  0  0  0  0  0  0  0  0  0  0  0
   25.5659    8.1644   54.5628 C   0  0  0  0  0  0  0  0  0  0  0  0
   26.5277    7.2589   54.0522 C   0  0  0  0  0  0  0  0  0  0  0  0
   27.8554    7.5388   54.2049 C   0  0  0  0  0  0  0  0  0  0  0  0
   28.3197    8.6666   54.8381 C   0  0  0  0  0  0  0  0  0  0  0  0
   27.3684    9.5213   55.3300 C   0  0  0  0  0  0  0  0  0  0  0  0
   25.9892    9.2960   55.2139 C   0  0  0  0  0  0  0  0  0  0  0  0
   25.1284   10.2179   55.8020 O   0  0  0  0  0  0  0  0  0  0  0  0
   23.7705    9.9719   55.7431 C   0  0  0  0  0  0  0  0  0  0  0  0
   22.8564   10.8566   56.3493 C   0  0  0  0  0  0  0  0  0  0  0  0
   21.5000   10.6221   56.3281 C   0  0  0  0  0  0  0  0  0  0  0  0
   21.0277    9.4933   55.6976 C   0  0  0  0  0  0  0  0  0  0  0  0
   21.9293    8.6220   55.0967 C   0  0  0  0  0  0  0  0  0  0  0  0
   23.2938    8.8750   55.1244 C   0  0  0  0  0  0  0  0  0  0  0  0
 17 18  1  0  0  0
 18 19  1  0  0  0
 18 16  1  0  0  0
 16  9  1  0  0  0
  9 10  1  0  0  0
 10 11  1  0  0  0
 11  1  1  0  0  0
  1  2  1  0  0  0
  1 20  1  0  0  0
 20 21  1  0  0  0
 21 22  1  0  0  0
 22 23  2  0  0  0
 23 24  1  0  0  0
 24 25  2  0  0  0
 25 26  1  0  0  0
 26 27  2  0  0  0
 27 28  1  0  0  0
 28 29  1  0  0  0
 29 30  2  0  0  0
 30 31  1  0  0  0
 31 32  2  0  0  0
 32 33  1  0  0  0
 33 34  2  0  0  0
  1  5  1  0  0  0
  5  6  1  0  0  0
  5  7  2  0  0  0
 10 12  1  0  0  0
 12 13  1  0  0  0
 12 14  2  0  0  0
 11  9  1  0  0  0
 34 21  1  0  0  0
 27 22  1  0  0  0
 34 29  1  0  0  0
  2  3  1  0  0  0
  2  4  1  0  0  0
  6  8  1  0  0  0
 13 15  1  0  0  0
M  END
> <minimizedAffinity>
23.30103

> <CNNscore>
0.4259118438

> <CNNaffinity>
6.5377092361

> <CNN_VS>
2.7844877243

> <CNNaffinity_variance>
0.4812613428

$$$$
[H]c1nc(C([H])([H])[H])c([H])c(-c2c([H])c([H])c([H])c(C3=Nc4c([H])c(Cl)c(Cl)c([H])c4N([H])C(=O)C3([H])[H])c2[H])c1[H]


 28 31  0  0  0  0  0  0  0  0999 V2000
   23.5884    8.3753   53.8649 C   0  0  0  0  0  0  0  0  0  0  0  0
   23.1010    7.1662   53.9189 N   0  0  0  0  0  0  0  0  0  0  0  0
   21.8064    6.6180   53.8761 C   0  0  0  0  0  0  0  0  0  0  0  0
   21.7080    5.3196   53.4357 C   0  0  0  0  0  0  0  0  0  0  0  0
   20.4735    4.6976   53.3624 C   0  0  0  0  0  0  0  0  0  0  0  0
   20.3714    3.0426   52.7987 Cl  0  0  0  0  0  0  0  0  0  0  0  0
   19.3230    5.3773   53.7324 C   0  0  0  0  0  0  0  0  0  0  0  0
   17.7448    4.5892   53.6412 Cl  0  0  0  0  0  0  0  0  0  0  0  0
   19.4181    6.6754   54.1730 C   0  0  0  0  0  0  0  0  0  0  0  0
   20.6472    7.2952   54.2461 C   0  0  0  0  0  0  0  0  0  0  0  0
   20.5415    8.6512   54.7299 N   0  0  0  0  0  0  0  0  0  0  0  0
   21.5745    9.6159   54.6023 C   0  0  0  0  0  0  0  0  0  0  0  0
   21.4127   10.6210   55.3371 O   0  0  0  0  0  0  0  0  0  0  0  0
   22.7963    9.5901   53.7292 C   0  0  0  0  0  0  0  0  0  0  0  0
   19.6365    8.9129   55.1992 H   0  0  0  0  0  0  0  0  0  0  0  0
   26.9757    8.9570   55.3339 C   0  0  0  0  0  0  0  0  0  0  0  0
   27.7777    8.5793   54.2723 C   0  0  0  0  0  0  0  0  0  0  0  0
   27.2102    8.1405   53.0960 C   0  0  0  0  0  0  0  0  0  0  0  0
   25.8349    8.0510   52.9043 C   0  0  0  0  0  0  0  0  0  0  0  0
   25.0274    8.4235   53.9516 C   0  0  0  0  0  0  0  0  0  0  0  0
   25.6266    8.8677   55.1415 C   0  0  0  0  0  0  0  0  0  0  0  0
   29.3623    8.0739   59.6420 C   0  0  0  0  0  0  0  0  0  0  0  0
   28.7109    8.9955   58.6719 C   0  0  0  0  0  0  0  0  0  0  0  0
   28.1625    8.5506   57.4865 C   0  0  0  0  0  0  0  0  0  0  0  0
   27.5560    9.4241   56.5871 C   0  0  0  0  0  0  0  0  0  0  0  0
   27.5411   10.7528   56.9597 C   0  0  0  0  0  0  0  0  0  0  0  0
   28.0954   11.1919   58.1548 C   0  0  0  0  0  0  0  0  0  0  0  0
   28.6749   10.3017   58.9972 N   0  0  0  0  0  0  0  0  0  0  0  0
 22 23  1  0  0  0
 23 24  2  0  0  0
 24 25  1  0  0  0
 25 26  2  0  0  0
 26 27  1  0  0  0
 27 28  2  0  0  0
 25 16  1  0  0  0
 16 17  2  0  0  0
 17 18  1  0  0  0
 18 19  2  0  0  0
 19 20  1  0  0  0
 20 21  2  0  0  0
 20  1  1  0  0  0
  1  2  2  0  0  0
  2  3  1  0  0  0
  3  4  2  0  0  0
  4  5  1  0  0  0
  5  6  1  0  0  0
  5  7  2  0  0  0
  7  8  1  0  0  0
  7  9  1  0  0  0
  9 10  2  0  0  0
 10 11  1  0  0  0
 11 12  1  0  0  0
 12 13  2  0  0  0
 12 14  1  0  0  0
 28 23  1  0  0  0
 21 16  1  0  0  0
 14  1  1  0  0  0
 10  3  1  0  0  0
 11 15  1  0  0  0
M  END
> <minimizedAffinity>
19.81840

> <CNNscore>
0.5142594576

> <CNNaffinity>
6.4336042404

> <CNN_VS>
3.3085417747

> <CNNaffinity_variance>
0.5709294081

$$$$
[H]c1nc(C([H])([H])[H])c([H])c(-c2c([H])c([H])c([H])c(C3=Nc4c([H])c(Cl)c(Cl)c([H])c4N([H])C(=O)C3([H])[H])c2[H])c1[H]


 28 31  0  0  0  0  0  0  0  0999 V2000
   24.0549    8.5515   54.1850 C   0  0  0  0  0  0  0  0  0  0  0  0
   23.5129    7.3648   54.2009 N   0  0  0  0  0  0  0  0  0  0  0  0
   22.2033    6.8727   54.0554 C   0  0  0  0  0  0  0  0  0  0  0  0
   22.0843    5.5778   53.6096 C   0  0  0  0  0  0  0  0  0  0  0  0
   20.8339    5.0093   53.4384 C   0  0  0  0  0  0  0  0  0  0  0  0
   20.7055    3.3578   52.8697 Cl  0  0  0  0  0  0  0  0  0  0  0  0
   19.6880    5.7395   53.7148 C   0  0  0  0  0  0  0  0  0  0  0  0
   18.0895    5.0196   53.4985 Cl  0  0  0  0  0  0  0  0  0  0  0  0
   19.8038    7.0341   54.1605 C   0  0  0  0  0  0  0  0  0  0  0  0
   21.0488    7.6007   54.3310 C   0  0  0  0  0  0  0  0  0  0  0  0
   20.9636    8.9620   54.8037 N   0  0  0  0  0  0  0  0  0  0  0  0
   22.0442    9.8809   54.7582 C   0  0  0  0  0  0  0  0  0  0  0  0
   21.8679   10.8951   55.4770 O   0  0  0  0  0  0  0  0  0  0  0  0
   23.3294    9.7987   53.9855 C   0  0  0  0  0  0  0  0  0  0  0  0
   20.0362    9.2644   55.1991 H   0  0  0  0  0  0  0  0  0  0  0  0
   27.3385    9.0282   55.9057 C   0  0  0  0  0  0  0  0  0  0  0  0
   28.2036    8.5810   54.9236 C   0  0  0  0  0  0  0  0  0  0  0  0
   27.7112    8.1304   53.7183 C   0  0  0  0  0  0  0  0  0  0  0  0
   26.3528    8.0963   53.4188 C   0  0  0  0  0  0  0  0  0  0  0  0
   25.4832    8.5381   54.3863 C   0  0  0  0  0  0  0  0  0  0  0  0
   26.0062    8.9932   55.6075 C   0  0  0  0  0  0  0  0  0  0  0  0
   28.4082   12.7654   59.0561 C   0  0  0  0  0  0  0  0  0  0  0  0
   28.3563   11.3184   58.7117 C   0  0  0  0  0  0  0  0  0  0  0  0
   27.8822   10.8663   57.4974 C   0  0  0  0  0  0  0  0  0  0  0  0
   27.8388    9.5090   57.1879 C   0  0  0  0  0  0  0  0  0  0  0  0
   28.2985    8.6555   58.1701 C   0  0  0  0  0  0  0  0  0  0  0  0
   28.7740    9.1193   59.3896 C   0  0  0  0  0  0  0  0  0  0  0  0
   28.7957   10.4509   59.6430 N   0  0  0  0  0  0  0  0  0  0  0  0
 22 23  1  0  0  0
 23 24  2  0  0  0
 24 25  1  0  0  0
 25 26  2  0  0  0
 26 27  1  0  0  0
 27 28  2  0  0  0
 25 16  1  0  0  0
 16 17  2  0  0  0
 17 18  1  0  0  0
 18 19  2  0  0  0
 19 20  1  0  0  0
 20 21  2  0  0  0
 20  1  1  0  0  0
  1  2  2  0  0  0
  2  3  1  0  0  0
  3  4  2  0  0  0
  4  5  1  0  0  0
  5  6  1  0  0  0
  5  7  2  0  0  0
  7  8  1  0  0  0
  7  9  1  0  0  0
  9 10  2  0  0  0
 10 11  1  0  0  0
 11 12  1  0  0  0
 12 13  2  0  0  0
 12 14  1  0  0  0
 28 23  1  0  0  0
 21 16  1  0  0  0
 14  1  1  0  0  0
 10  3  1  0  0  0
 11 15  1  0  0  0
M  END
> <minimizedAffinity>
16.99838

> <CNNscore>
0.4847516716

> <CNNaffinity>
6.2523078918

> <CNN_VS>
3.0308167934

> <CNNaffinity_variance>
0.3469110727

$$$$
[H]c1nc(C([H])([H])[H])c([H])c(-c2c([H])c([H])c([H])c(C3=Nc4c([H])c(Cl)c(Cl)c([H])c4N([H])C(=O)C3([H])[H])c2[H])c1[H]


 28 31  0  0  0  0  0  0  0  0999 V2000
   23.6417    8.2955   53.3560 C   0  0  0  0  0  0  0  0  0  0  0  0
   23.1801    7.0892   53.5402 N   0  0  0  0  0  0  0  0  0  0  0  0
   21.8955    6.5200   53.6043 C   0  0  0  0  0  0  0  0  0  0  0  0
   21.8031    5.1856   53.2874 C   0  0  0  0  0  0  0  0  0  0  0  0
   20.5786    4.5410   53.3251 C   0  0  0  0  0  0  0  0  0  0  0  0
   20.4840    2.8403   52.9178 Cl  0  0  0  0  0  0  0  0  0  0  0  0
   19.4323    5.2341   53.6829 C   0  0  0  0  0  0  0  0  0  0  0  0
   17.8669    4.4173   53.7330 Cl  0  0  0  0  0  0  0  0  0  0  0  0
   19.5215    6.5681   54.0002 C   0  0  0  0  0  0  0  0  0  0  0  0
   20.7405    7.2104   53.9627 C   0  0  0  0  0  0  0  0  0  0  0  0
   20.6299    8.6030   54.3266 N   0  0  0  0  0  0  0  0  0  0  0  0
   21.6380    9.5676   54.0671 C   0  0  0  0  0  0  0  0  0  0  0  0
   21.4886   10.6327   54.7148 O   0  0  0  0  0  0  0  0  0  0  0  0
   22.8216    9.4809   53.1467 C   0  0  0  0  0  0  0  0  0  0  0  0
   19.7409    8.8926   54.8100 H   0  0  0  0  0  0  0  0  0  0  0  0
   27.1158    8.9253   52.1294 C   0  0  0  0  0  0  0  0  0  0  0  0
   27.8454    8.5713   53.2498 C   0  0  0  0  0  0  0  0  0  0  0  0
   27.2018    8.1346   54.3871 C   0  0  0  0  0  0  0  0  0  0  0  0
   25.8179    8.0245   54.4808 C   0  0  0  0  0  0  0  0  0  0  0  0
   25.0820    8.3731   53.3743 C   0  0  0  0  0  0  0  0  0  0  0  0
   25.7579    8.8156   52.2256 C   0  0  0  0  0  0  0  0  0  0  0  0
   29.0542    8.0508   47.6002 C   0  0  0  0  0  0  0  0  0  0  0  0
   28.7150    8.9655   48.7242 C   0  0  0  0  0  0  0  0  0  0  0  0
   28.0891    8.5230   49.8715 C   0  0  0  0  0  0  0  0  0  0  0  0
   27.7771    9.3898   50.9160 C   0  0  0  0  0  0  0  0  0  0  0  0
   28.1339   10.7094   50.7264 C   0  0  0  0  0  0  0  0  0  0  0  0
   28.7637   11.1461   49.5684 C   0  0  0  0  0  0  0  0  0  0  0  0
   29.0462   10.2626   48.5797 N   0  0  0  0  0  0  0  0  0  0  0  0
 22 23  1  0  0  0
 23 24  2  0  0  0
 24 25  1  0  0  0
 25 26  2  0  0  0
 26 27  1  0  0  0
 27 28  2  0  0  0
 25 16  1  0  0  0
 16 17  2  0  0  0
 17 18  1  0  0  0
 18 19  2  0  0  0
 19 20  1  0  0  0
 20 21  2  0  0  0
 20  1  1  0  0  0
  1  2  2  0  0  0
  2  3  1  0  0  0
  3  4  2  0  0  0
  4  5  1  0  0  0
  5  6  1  0  0  0
  5  7  2  0  0  0
  7  8  1  0  0  0
  7  9  1  0  0  0
  9 10  2  0  0  0
 10 11  1  0  0  0
 11 12  1  0  0  0
 12 13  2  0  0  0
 12 14  1  0  0  0
 28 23  1  0  0  0
 21 16  1  0  0  0
 14  1  1  0  0  0
 10  3  1  0  0  0
 11 15  1  0  0  0
M  END
> <minimizedAffinity>
31.89935

> <CNNscore>
0.4351425171

> <CNNaffinity>
6.1032471657

> <CNN_VS>
2.6557822227

> <CNNaffinity_variance>
0.5314952135

$$$$
[H]c1nc(C([H])([H])[H])c([H])c(-c2c([H])c([H])c([H])c(C3=Nc4c([H])c(Cl)c(Cl)c([H])c4N([H])C(=O)C3([H])[H])c2[H])c1[H]


 28 31  0  0  0  0  0  0  0  0999 V2000
   21.7054    6.0517   54.2587 C   0  0  0  0  0  0  0  0  0  0  0  0
   20.4303    6.0433   53.9825 N   0  0  0  0  0  0  0  0  0  0  0  0
   19.4808    5.0393   53.7206 C   0  0  0  0  0  0  0  0  0  0  0  0
   18.1701    5.3538   53.9906 C   0  0  0  0  0  0  0  0  0  0  0  0
   17.1672    4.4275   53.7620 C   0  0  0  0  0  0  0  0  0  0  0  0
   15.5041    4.8495   54.1128 Cl  0  0  0  0  0  0  0  0  0  0  0  0
   17.4736    3.1726   53.2580 C   0  0  0  0  0  0  0  0  0  0  0  0
   16.1985    1.9862   52.9639 Cl  0  0  0  0  0  0  0  0  0  0  0  0
   18.7829    2.8552   52.9872 C   0  0  0  0  0  0  0  0  0  0  0  0
   19.7819    3.7773   53.2148 C   0  0  0  0  0  0  0  0  0  0  0  0
   21.0847    3.2598   52.8703 N   0  0  0  0  0  0  0  0  0  0  0  0
   22.3040    3.8492   53.2945 C   0  0  0  0  0  0  0  0  0  0  0  0
   23.3049    3.4405   52.6561 O   0  0  0  0  0  0  0  0  0  0  0  0
   22.5430    4.8656   54.3740 C   0  0  0  0  0  0  0  0  0  0  0  0
   21.1027    2.3952   52.2702 H   0  0  0  0  0  0  0  0  0  0  0  0
   24.2505    8.7276   54.8348 C   0  0  0  0  0  0  0  0  0  0  0  0
   23.4399    9.8483   54.8381 C   0  0  0  0  0  0  0  0  0  0  0  0
   22.0805    9.7215   54.6526 C   0  0  0  0  0  0  0  0  0  0  0  0
   21.4528    8.4955   54.4556 C   0  0  0  0  0  0  0  0  0  0  0  0
   22.2474    7.3746   54.4504 C   0  0  0  0  0  0  0  0  0  0  0  0
   23.6303    7.5264   54.6412 C   0  0  0  0  0  0  0  0  0  0  0  0
   28.1990    9.8963   57.6772 C   0  0  0  0  0  0  0  0  0  0  0  0
   27.6013    9.4058   56.4056 C   0  0  0  0  0  0  0  0  0  0  0  0
   26.2374    9.3007   56.2245 C   0  0  0  0  0  0  0  0  0  0  0  0
   25.6910    8.8398   55.0292 C   0  0  0  0  0  0  0  0  0  0  0  0
   26.5991    8.4987   54.0475 C   0  0  0  0  0  0  0  0  0  0  0  0
   27.9702    8.6077   54.2383 C   0  0  0  0  0  0  0  0  0  0  0  0
   28.4529    9.0621   55.4209 N   0  0  0  0  0  0  0  0  0  0  0  0
 22 23  1  0  0  0
 23 24  2  0  0  0
 24 25  1  0  0  0
 25 26  2  0  0  0
 26 27  1  0  0  0
 27 28  2  0  0  0
 25 16  1  0  0  0
 16 17  2  0  0  0
 17 18  1  0  0  0
 18 19  2  0  0  0
 19 20  1  0  0  0
 20 21  2  0  0  0
 20  1  1  0  0  0
  1  2  2  0  0  0
  2  3  1  0  0  0
  3  4  2  0  0  0
  4  5  1  0  0  0
  5  6  1  0  0  0
  5  7  2  0  0  0
  7  8  1  0  0  0
  7  9  1  0  0  0
  9 10  2  0  0  0
 10 11  1  0  0  0
 11 12  1  0  0  0
 12 13  2  0  0  0
 12 14  1  0  0  0
 28 23  1  0  0  0
 21 16  1  0  0  0
 14  1  1  0  0  0
 10  3  1  0  0  0
 11 15  1  0  0  0
M  END
> <minimizedAffinity>
43.34790

> <CNNscore>
0.4224050641

> <CNNaffinity>
6.1586680412

> <CNN_VS>
2.6014525890

> <CNNaffinity_variance>
0.7708848715

$$$$
[H]c1nc(C([H])([H])[H])c([H])c(-c2c([H])c([H])c([H])c(C3=Nc4c([H])c(Cl)c(Cl)c([H])c4N([H])C(=O)C3([H])[H])c2[H])c1[H]


 28 31  0  0  0  0  0  0  0  0999 V2000
   25.4968    7.6693   53.5680 C   0  0  0  0  0  0  0  0  0  0  0  0
   24.4317    8.4182   53.6522 N   0  0  0  0  0  0  0  0  0  0  0  0
   23.0665    8.1746   53.8871 C   0  0  0  0  0  0  0  0  0  0  0  0
   22.3440    9.2156   54.4198 C   0  0  0  0  0  0  0  0  0  0  0  0
   20.9930    9.0670   54.6825 C   0  0  0  0  0  0  0  0  0  0  0  0
   20.0917   10.4065   55.3609 Cl  0  0  0  0  0  0  0  0  0  0  0  0
   20.3540    7.8667   54.4110 C   0  0  0  0  0  0  0  0  0  0  0  0
   18.6303    7.6708   54.7438 Cl  0  0  0  0  0  0  0  0  0  0  0  0
   21.0736    6.8243   53.8786 C   0  0  0  0  0  0  0  0  0  0  0  0
   22.4189    6.9718   53.6169 C   0  0  0  0  0  0  0  0  0  0  0  0
   22.9972    5.7710   53.0622 N   0  0  0  0  0  0  0  0  0  0  0  0
   24.3934    5.5247   53.0006 C   0  0  0  0  0  0  0  0  0  0  0  0
   24.7011    4.5850   52.2269 O   0  0  0  0  0  0  0  0  0  0  0  0
   25.5137    6.2207   53.7191 C   0  0  0  0  0  0  0  0  0  0  0  0
   22.3226    5.0539   52.6899 H   0  0  0  0  0  0  0  0  0  0  0  0
   28.0928    9.5315   51.6280 C   0  0  0  0  0  0  0  0  0  0  0  0
   28.9888    9.8365   52.6365 C   0  0  0  0  0  0  0  0  0  0  0  0
   28.7390    9.4357   53.9308 C   0  0  0  0  0  0  0  0  0  0  0  0
   27.6037    8.7198   54.2976 C   0  0  0  0  0  0  0  0  0  0  0  0
   26.7060    8.4105   53.3046 C   0  0  0  0  0  0  0  0  0  0  0  0
   26.9800    8.8286   51.9923 C   0  0  0  0  0  0  0  0  0  0  0  0
   28.7952    8.4438   46.7949 C   0  0  0  0  0  0  0  0  0  0  0  0
   28.6780    9.4187   47.9132 C   0  0  0  0  0  0  0  0  0  0  0  0
   28.4458    9.0233   49.2146 C   0  0  0  0  0  0  0  0  0  0  0  0
   28.3380    9.9462   50.2520 C   0  0  0  0  0  0  0  0  0  0  0  0
   28.4783   11.2711   49.8922 C   0  0  0  0  0  0  0  0  0  0  0  0
   28.7119   11.6603   48.5798 C   0  0  0  0  0  0  0  0  0  0  0  0
   28.8087   10.7229   47.6051 N   0  0  0  0  0  0  0  0  0  0  0  0
 22 23  1  0  0  0
 23 24  2  0  0  0
 24 25  1  0  0  0
 25 26  2  0  0  0
 26 27  1  0  0  0
 27 28  2  0  0  0
 25 16  1  0  0  0
 16 17  2  0  0  0
 17 18  1  0  0  0
 18 19  2  0  0  0
 19 20  1  0  0  0
 20 21  2  0  0  0
 20  1  1  0  0  0
  1  2  2  0  0  0
  2  3  1  0  0  0
  3  4  2  0  0  0
  4  5  1  0  0  0
  5  6  1  0  0  0
  5  7  2  0  0  0
  7  8  1  0  0  0
  7  9  1  0  0  0
  9 10  2  0  0  0
 10 11  1  0  0  0
 11 12  1  0  0  0
 12 13  2  0  0  0
 12 14  1  0  0  0
 28 23  1  0  0  0
 21 16  1  0  0  0
 14  1  1  0  0  0
 10  3  1  0  0  0
 11 15  1  0  0  0
M  END
> <minimizedAffinity>
35.72614

> <CNNscore>
0.4151970744

> <CNNaffinity>
5.9523034096

> <CNN_VS>
2.4713790417

> <CNNaffinity_variance>
0.3095435202

$$$$
[H]c1nc(C([H])([H])[H])c([H])c(-c2c([H])c([H])c([H])c(C3=Nc4c([H])c(Cl)c(Cl)c([H])c4N([H])C(=O)C3([H])[H])c2[H])c1[H]


 28 31  0  0  0  0  0  0  0  0999 V2000
   24.7659    7.9483   53.6518 C   0  0  0  0  0  0  0  0  0  0  0  0
   24.6657    7.1971   54.7138 N   0  0  0  0  0  0  0  0  0  0  0  0
   23.6070    6.5357   55.3621 C   0  0  0  0  0  0  0  0  0  0  0  0
   23.9453    5.4397   56.1197 C   0  0  0  0  0  0  0  0  0  0  0  0
   22.9687    4.7280   56.7950 C   0  0  0  0  0  0  0  0  0  0  0  0
   23.4220    3.3350   57.7547 Cl  0  0  0  0  0  0  0  0  0  0  0  0
   21.6390    5.1129   56.7147 C   0  0  0  0  0  0  0  0  0  0  0  0
   20.3882    4.2090   57.5741 Cl  0  0  0  0  0  0  0  0  0  0  0  0
   21.2978    6.2080   55.9581 C   0  0  0  0  0  0  0  0  0  0  0  0
   22.2699    6.9170   55.2854 C   0  0  0  0  0  0  0  0  0  0  0  0
   21.7169    8.0286   54.5489 N   0  0  0  0  0  0  0  0  0  0  0  0
   22.4154    8.7215   53.5261 C   0  0  0  0  0  0  0  0  0  0  0  0
   21.8941    9.8228   53.2234 O   0  0  0  0  0  0  0  0  0  0  0  0
   23.6571    8.3193   52.7832 C   0  0  0  0  0  0  0  0  0  0  0  0
   20.7386    8.3207   54.8045 H   0  0  0  0  0  0  0  0  0  0  0  0
   27.7230    9.1492   51.7066 C   0  0  0  0  0  0  0  0  0  0  0  0
   28.6539    9.2810   52.7211 C   0  0  0  0  0  0  0  0  0  0  0  0
   28.3103    8.9802   54.0210 C   0  0  0  0  0  0  0  0  0  0  0  0
   27.0432    8.5376   54.3878 C   0  0  0  0  0  0  0  0  0  0  0  0
   26.1096    8.4024   53.3889 C   0  0  0  0  0  0  0  0  0  0  0  0
   26.4808    8.7144   52.0710 C   0  0  0  0  0  0  0  0  0  0  0  0
   28.5530   12.4662   48.0536 C   0  0  0  0  0  0  0  0  0  0  0  0
   28.4673   11.0684   48.5574 C   0  0  0  0  0  0  0  0  0  0  0  0
   28.1425   10.7751   49.8660 C   0  0  0  0  0  0  0  0  0  0  0  0
   28.0660    9.4623   50.3247 C   0  0  0  0  0  0  0  0  0  0  0  0
   28.3348    8.4841   49.3890 C   0  0  0  0  0  0  0  0  0  0  0  0
   28.6609    8.7883   48.0740 C   0  0  0  0  0  0  0  0  0  0  0  0
   28.7225   10.0829   47.6762 N   0  0  0  0  0  0  0  0  0  0  0  0
 22 23  1  0  0  0
 23 24  2  0  0  0
 24 25  1  0  0  0
 25 26  2  0  0  0
 26 27  1  0  0  0
 27 28  2  0  0  0
 25 16  1  0  0  0
 16 17  2  0  0  0
 17 18  1  0  0  0
 18 19  2  0  0  0
 19 20  1  0  0  0
 20 21  2  0  0  0
 20  1  1  0  0  0
  1  2  2  0  0  0
  2  3  1  0  0  0
  3  4  2  0  0  0
  4  5  1  0  0  0
  5  6  1  0  0  0
  5  7  2  0  0  0
  7  8  1  0  0  0
  7  9  1  0  0  0
  9 10  2  0  0  0
 10 11  1  0  0  0
 11 12  1  0  0  0
 12 13  2  0  0  0
 12 14  1  0  0  0
 28 23  1  0  0  0
 21 16  1  0  0  0
 14  1  1  0  0  0
 10  3  1  0  0  0
 11 15  1  0  0  0
M  END
> <minimizedAffinity>
42.62620

> <CNNscore>
0.4150384963

> <CNNaffinity>
5.6813683510

> <CNN_VS>
2.3579866886

> <CNNaffinity_variance>
0.2826975286

$$$$
[H]c1nc(C([H])([H])[H])c([H])c(-c2c([H])c([H])c([H])c(C3=Nc4c([H])c(Cl)c(Cl)c([H])c4N([H])C(=O)C3([H])[H])c2[H])c1[H]


 28 31  0  0  0  0  0  0  0  0999 V2000
   21.7697    7.1394   54.3958 C   0  0  0  0  0  0  0  0  0  0  0  0
   20.5729    6.7652   54.0355 N   0  0  0  0  0  0  0  0  0  0  0  0
   19.9737    5.5318   53.7222 C   0  0  0  0  0  0  0  0  0  0  0  0
   18.6131    5.4517   53.9009 C   0  0  0  0  0  0  0  0  0  0  0  0
   17.9383    4.2771   53.6163 C   0  0  0  0  0  0  0  0  0  0  0  0
   16.2046    4.1973   53.8509 Cl  0  0  0  0  0  0  0  0  0  0  0  0
   18.6273    3.1686   53.1479 C   0  0  0  0  0  0  0  0  0  0  0  0
   17.7720    1.6669   52.7829 Cl  0  0  0  0  0  0  0  0  0  0  0  0
   19.9874    3.2456   52.9684 C   0  0  0  0  0  0  0  0  0  0  0  0
   20.6598    4.4151   53.2517 C   0  0  0  0  0  0  0  0  0  0  0  0
   22.0766    4.2992   53.0004 N   0  0  0  0  0  0  0  0  0  0  0  0
   23.0423    5.2123   53.4982 C   0  0  0  0  0  0  0  0  0  0  0  0
   24.1590    5.1158   52.9325 O   0  0  0  0  0  0  0  0  0  0  0  0
   22.9046    6.2451   54.5798 C   0  0  0  0  0  0  0  0  0  0  0  0
   22.3837    3.4819   52.4126 H   0  0  0  0  0  0  0  0  0  0  0  0
   21.7955   10.7933   53.6096 C   0  0  0  0  0  0  0  0  0  0  0  0
   22.0994   11.3155   54.8538 C   0  0  0  0  0  0  0  0  0  0  0  0
   22.2905   10.4768   55.9300 C   0  0  0  0  0  0  0  0  0  0  0  0
   22.1934    9.0917   55.8392 C   0  0  0  0  0  0  0  0  0  0  0  0
   21.8922    8.5608   54.6083 C   0  0  0  0  0  0  0  0  0  0  0  0
   21.7013    9.4336   53.5249 C   0  0  0  0  0  0  0  0  0  0  0  0
   19.8754   11.6520   49.0696 C   0  0  0  0  0  0  0  0  0  0  0  0
   20.6597   12.0776   50.2606 C   0  0  0  0  0  0  0  0  0  0  0  0
   20.8532   11.2522   51.3493 C   0  0  0  0  0  0  0  0  0  0  0  0
   21.5893   11.6631   52.4579 C   0  0  0  0  0  0  0  0  0  0  0  0
   22.1071   12.9407   52.3932 C   0  0  0  0  0  0  0  0  0  0  0  0
   21.9075   13.7647   51.2934 C   0  0  0  0  0  0  0  0  0  0  0  0
   21.1829   13.3180   50.2382 N   0  0  0  0  0  0  0  0  0  0  0  0
 22 23  1  0  0  0
 23 24  2  0  0  0
 24 25  1  0  0  0
 25 26  2  0  0  0
 26 27  1  0  0  0
 27 28  2  0  0  0
 25 16  1  0  0  0
 16 17  2  0  0  0
 17 18  1  0  0  0
 18 19  2  0  0  0
 19 20  1  0  0  0
 20 21  2  0  0  0
 20  1  1  0  0  0
  1  2  2  0  0  0
  2  3  1  0  0  0
  3  4  2  0  0  0
  4  5  1  0  0  0
  5  6  1  0  0  0
  5  7  2  0  0  0
  7  8  1  0  0  0
  7  9  1  0  0  0
  9 10  2  0  0  0
 10 11  1  0  0  0
 11 12  1  0  0  0
 12 13  2  0  0  0
 12 14  1  0  0  0
 28 23  1  0  0  0
 21 16  1  0  0  0
 14  1  1  0  0  0
 10  3  1  0  0  0
 11 15  1  0  0  0
M  END
> <minimizedAffinity>
50.23647

> <CNNscore>
0.4056090415

> <CNNaffinity>
6.1352629662

> <CNN_VS>
2.4885182381

> <CNNaffinity_variance>
0.7815666199

$$$$
[H]c1nc(C([H])([H])[H])c([H])c(-c2c([H])c([H])c([H])c(C3=Nc4c([H])c(Cl)c(Cl)c([H])c4N([H])C(=O)C3([H])[H])c2[H])c1[H]


 28 31  0  0  0  0  0  0  0  0999 V2000
   24.3161    9.0711   54.4940 C   0  0  0  0  0  0  0  0  0  0  0  0
   23.7522    9.9022   53.6611 N   0  0  0  0  0  0  0  0  0  0  0  0
   22.5760   10.6733   53.6762 C   0  0  0  0  0  0  0  0  0  0  0  0
   22.5739   11.7982   52.8862 C   0  0  0  0  0  0  0  0  0  0  0  0
   21.4583   12.6163   52.8372 C   0  0  0  0  0  0  0  0  0  0  0  0
   21.4773   14.0444   51.8236 Cl  0  0  0  0  0  0  0  0  0  0  0  0
   20.3310   12.3100   53.5842 C   0  0  0  0  0  0  0  0  0  0  0  0
   18.9043   13.3498   53.5259 Cl  0  0  0  0  0  0  0  0  0  0  0  0
   20.3301   11.1862   54.3749 C   0  0  0  0  0  0  0  0  0  0  0  0
   21.4408   10.3713   54.4240 C   0  0  0  0  0  0  0  0  0  0  0  0
   21.2475    9.2458   55.3070 N   0  0  0  0  0  0  0  0  0  0  0  0
   22.3065    8.4385   55.7978 C   0  0  0  0  0  0  0  0  0  0  0  0
   21.9180    7.3526   56.2940 O   0  0  0  0  0  0  0  0  0  0  0  0
   23.7840    8.7077   55.8003 C   0  0  0  0  0  0  0  0  0  0  0  0
   20.2553    9.0343   55.5875 H   0  0  0  0  0  0  0  0  0  0  0  0
   27.3001    8.6010   52.2929 C   0  0  0  0  0  0  0  0  0  0  0  0
   27.9304    7.5564   52.9445 C   0  0  0  0  0  0  0  0  0  0  0  0
   27.3805    7.0198   54.0881 C   0  0  0  0  0  0  0  0  0  0  0  0
   26.1915    7.4792   54.6461 C   0  0  0  0  0  0  0  0  0  0  0  0
   25.5558    8.5166   54.0079 C   0  0  0  0  0  0  0  0  0  0  0  0
   26.1334    9.0487   52.8438 C   0  0  0  0  0  0  0  0  0  0  0  0
   28.8558    8.1794   47.5560 C   0  0  0  0  0  0  0  0  0  0  0  0
   28.6177    8.9780   48.7891 C   0  0  0  0  0  0  0  0  0  0  0  0
   28.0829    8.4243   49.9342 C   0  0  0  0  0  0  0  0  0  0  0  0
   27.8650    9.1832   51.0815 C   0  0  0  0  0  0  0  0  0  0  0  0
   28.2177   10.5146   50.9951 C   0  0  0  0  0  0  0  0  0  0  0  0
   28.7555   11.0636   49.8386 C   0  0  0  0  0  0  0  0  0  0  0  0
   28.9483   10.2826   48.7473 N   0  0  0  0  0  0  0  0  0  0  0  0
 22 23  1  0  0  0
 23 24  2  0  0  0
 24 25  1  0  0  0
 25 26  2  0  0  0
 26 27  1  0  0  0
 27 28  2  0  0  0
 25 16  1  0  0  0
 16 17  2  0  0  0
 17 18  1  0  0  0
 18 19  2  0  0  0
 19 20  1  0  0  0
 20 21  2  0  0  0
 20  1  1  0  0  0
  1  2  2  0  0  0
  2  3  1  0  0  0
  3  4  2  0  0  0
  4  5  1  0  0  0
  5  6  1  0  0  0
  5  7  2  0  0  0
  7  8  1  0  0  0
  7  9  1  0  0  0
  9 10  2  0  0  0
 10 11  1  0  0  0
 11 12  1  0  0  0
 12 13  2  0  0  0
 12 14  1  0  0  0
 28 23  1  0  0  0
 21 16  1  0  0  0
 14  1  1  0  0  0
 10  3  1  0  0  0
 11 15  1  0  0  0
M  END
> <minimizedAffinity>
61.05265

> <CNNscore>
0.4029746950

> <CNNaffinity>
5.6288614273

> <CNN_VS>
2.2682886124

> <CNNaffinity_variance>
0.3476457894

$$$$
[H]c1nc(C([H])([H])[H])c([H])c(-c2c([H])c([H])c([H])c(C3=Nc4c([H])c(Cl)c(Cl)c([H])c4N([H])C(=O)C3([H])[H])c2[H])c1[H]


 28 31  0  0  0  0  0  0  0  0999 V2000
   24.8990    7.9622   53.9941 C   0  0  0  0  0  0  0  0  0  0  0  0
   24.0589    8.2674   53.0437 N   0  0  0  0  0  0  0  0  0  0  0  0
   22.6815    8.0692   52.8388 C   0  0  0  0  0  0  0  0  0  0  0  0
   22.0546    8.9620   52.0024 C   0  0  0  0  0  0  0  0  0  0  0  0
   20.7004    8.8431   51.7412 C   0  0  0  0  0  0  0  0  0  0  0  0
   19.9221    9.9915   50.6723 Cl  0  0  0  0  0  0  0  0  0  0  0  0
   19.9618    7.8224   52.3201 C   0  0  0  0  0  0  0  0  0  0  0  0
   18.2335    7.6653   51.9907 Cl  0  0  0  0  0  0  0  0  0  0  0  0
   20.5856    6.9285   53.1566 C   0  0  0  0  0  0  0  0  0  0  0  0
   21.9341    7.0465   53.4171 C   0  0  0  0  0  0  0  0  0  0  0  0
   22.4038    6.0184   54.3151 N   0  0  0  0  0  0  0  0  0  0  0  0
   23.6436    6.0795   55.0030 C   0  0  0  0  0  0  0  0  0  0  0  0
   24.0008    4.9775   55.4873 O   0  0  0  0  0  0  0  0  0  0  0  0
   24.5533    7.2547   55.2195 C   0  0  0  0  0  0  0  0  0  0  0  0
   21.7713    5.1880   54.4497 H   0  0  0  0  0  0  0  0  0  0  0  0
   27.8485    9.2185   52.0725 C   0  0  0  0  0  0  0  0  0  0  0  0
   28.8052    9.2461   53.0711 C   0  0  0  0  0  0  0  0  0  0  0  0
   28.4812    8.8585   54.3529 C   0  0  0  0  0  0  0  0  0  0  0  0
   27.2092    8.4270   54.7164 C   0  0  0  0  0  0  0  0  0  0  0  0
   26.2501    8.3950   53.7332 C   0  0  0  0  0  0  0  0  0  0  0  0
   26.6016    8.7943   52.4336 C   0  0  0  0  0  0  0  0  0  0  0  0
   28.9867    8.0957   47.3313 C   0  0  0  0  0  0  0  0  0  0  0  0
   28.7214    9.0801   48.4155 C   0  0  0  0  0  0  0  0  0  0  0  0
   28.4169    8.6928   49.7044 C   0  0  0  0  0  0  0  0  0  0  0  0
   28.1705    9.6245   50.7099 C   0  0  0  0  0  0  0  0  0  0  0  0
   28.2514   10.9494   50.3319 C   0  0  0  0  0  0  0  0  0  0  0  0
   28.5586   11.3302   49.0324 C   0  0  0  0  0  0  0  0  0  0  0  0
   28.7902   10.3845   48.0890 N   0  0  0  0  0  0  0  0  0  0  0  0
 22 23  1  0  0  0
 23 24  2  0  0  0
 24 25  1  0  0  0
 25 26  2  0  0  0
 26 27  1  0  0  0
 27 28  2  0  0  0
 25 16  1  0  0  0
 16 17  2  0  0  0
 17 18  1  0  0  0
 18 19  2  0  0  0
 19 20  1  0  0  0
 20 21  2  0  0  0
 20  1  1  0  0  0
  1  2  2  0  0  0
  2  3  1  0  0  0
  3  4  2  0  0  0
  4  5  1  0  0  0
  5  6  1  0  0  0
  5  7  2  0  0  0
  7  8  1  0  0  0
  7  9  1  0  0  0
  9 10  2  0  0  0
 10 11  1  0  0  0
 11 12  1  0  0  0
 12 13  2  0  0  0
 12 14  1  0  0  0
 28 23  1  0  0  0
 21 16  1  0  0  0
 14  1  1  0  0  0
 10  3  1  0  0  0
 11 15  1  0  0  0
M  END
> <minimizedAffinity>
29.42745

> <CNNscore>
0.4008781016

> <CNNaffinity>
6.0451064110

> <CNN_VS>
2.4233508110

> <CNNaffinity_variance>
0.1349249482

$$$$
[H]OC(=O)[C@@]([H])(N([H])[H])[C@]1([H])[C@@]([H])(C(=O)O[H])[C@]1([H])C([H])([H])[H]


 16 16  0  0  0  0  0  0  0  0999 V2000
   22.3777    9.6444   55.5434 C   0  0  0  0  0  0  0  0  0  0  0  0
   22.9672    8.6562   54.5991 C   0  0  0  0  0  0  0  0  0  0  0  0
   22.3277    8.0136   53.4688 C   0  0  0  0  0  0  0  0  0  0  0  0
   22.4529    7.2174   54.7245 C   0  0  0  0  0  0  0  0  0  0  0  0
   20.9562    8.2483   52.9499 C   0  0  0  0  0  0  0  0  0  0  0  0
   20.2728    6.9263   53.0280 N   0  0  0  0  0  0  0  0  0  0  0  0
   19.5330    6.8811   52.3197 H   0  0  0  0  0  0  0  0  0  0  0  0
   19.9956    6.7154   53.9933 H   0  0  0  0  0  0  0  0  0  0  0  0
   20.8774    8.6740   51.5385 C   0  0  0  0  0  0  0  0  0  0  0  0
   20.8037    7.7845   50.4933 O   0  0  0  0  0  0  0  0  0  0  0  0
   20.8766    9.8938   51.2493 O   0  0  0  0  0  0  0  0  0  0  0  0
   20.1556    7.8058   49.7359 H   0  0  0  0  0  0  0  0  0  0  0  0
   23.4216    6.1112   54.8011 C   0  0  0  0  0  0  0  0  0  0  0  0
   24.2603    5.7728   53.7454 O   0  0  0  0  0  0  0  0  0  0  0  0
   23.5102    5.4371   55.8458 O   0  0  0  0  0  0  0  0  0  0  0  0
   23.9454    5.1787   52.9985 H   0  0  0  0  0  0  0  0  0  0  0  0
  1  2  1  0  0  0
  2  3  1  0  0  0
  3  5  1  0  0  0
  5  6  1  0  0  0
  5  9  1  0  0  0
  9 10  1  0  0  0
  9 11  2  0  0  0
  3  4  1  0  0  0
  4 13  1  0  0  0
 13 14  1  0  0  0
 13 15  2  0  0  0
  4  2  1  0  0  0
  6  7  1  0  0  0
  6  8  1  0  0  0
 10 12  1  0  0  0
 14 16  1  0  0  0
M  END
> <minimizedAffinity>
-6.52491

> <CNNscore>
0.9366784096

> <CNNaffinity>
5.5296115875

> <CNN_VS>
5.1794676781

> <CNNaffinity_variance>
0.2018038929

$$$$
[H]OC(=O)[C@@]([H])(N([H])[H])[C@]1([H])[C@@]([H])(C(=O)O[H])[C@]1([H])C([H])([H])[H]


 16 16  0  0  0  0  0  0  0  0999 V2000
   23.3784    6.1661   53.0427 C   0  0  0  0  0  0  0  0  0  0  0  0
   22.8953    6.9333   54.2233 C   0  0  0  0  0  0  0  0  0  0  0  0
   21.6912    7.7315   54.3345 C   0  0  0  0  0  0  0  0  0  0  0  0
   22.9738    8.4603   54.1103 C   0  0  0  0  0  0  0  0  0  0  0  0
   20.6247    7.9092   53.3164 C   0  0  0  0  0  0  0  0  0  0  0  0
   20.1401    6.5341   53.0078 N   0  0  0  0  0  0  0  0  0  0  0  0
   19.7581    6.5112   52.0568 H   0  0  0  0  0  0  0  0  0  0  0  0
   19.5285    6.1867   53.7551 H   0  0  0  0  0  0  0  0  0  0  0  0
   21.0649    8.4922   52.0335 C   0  0  0  0  0  0  0  0  0  0  0  0
   21.1191    7.7707   50.8650 O   0  0  0  0  0  0  0  0  0  0  0  0
   21.4114    9.6956   51.9762 O   0  0  0  0  0  0  0  0  0  0  0  0
   20.7477    8.0396   49.9795 H   0  0  0  0  0  0  0  0  0  0  0  0
   23.5828    9.2324   55.2061 C   0  0  0  0  0  0  0  0  0  0  0  0
   24.9458    9.2041   55.4778 O   0  0  0  0  0  0  0  0  0  0  0  0
   22.8656    9.9474   55.9327 O   0  0  0  0  0  0  0  0  0  0  0  0
   25.3516    8.4735   56.0361 H   0  0  0  0  0  0  0  0  0  0  0  0
  1  2  1  0  0  0
  2  3  1  0  0  0
  3  5  1  0  0  0
  5  6  1  0  0  0
  5  9  1  0  0  0
  9 10  1  0  0  0
  9 11  2  0  0  0
  3  4  1  0  0  0
  4 13  1  0  0  0
 13 14  1  0  0  0
 13 15  2  0  0  0
  4  2  1  0  0  0
  6  7  1  0  0  0
  6  8  1  0  0  0
 10 12  1  0  0  0
 14 16  1  0  0  0
M  END
> <minimizedAffinity>
-5.81555

> <CNNscore>
0.8424365520

> <CNNaffinity>
5.3140311241

> <CNN_VS>
4.4767341614

> <CNNaffinity_variance>
0.1225527972

$$$$
[H]OC(=O)[C@@]([H])(N([H])[H])[C@]1([H])[C@@]([H])(C(=O)O[H])[C@]1([H])C([H])([H])[H]


 16 16  0  0  0  0  0  0  0  0999 V2000
   20.6651    8.1033   51.6119 C   0  0  0  0  0  0  0  0  0  0  0  0
   21.7705    8.7606   52.3614 C   0  0  0  0  0  0  0  0  0  0  0  0
   22.7958    8.1316   53.1691 C   0  0  0  0  0  0  0  0  0  0  0  0
   21.6451    8.7510   53.8893 C   0  0  0  0  0  0  0  0  0  0  0  0
   23.0212    6.6784   53.3766 C   0  0  0  0  0  0  0  0  0  0  0  0
   21.6881    6.1197   53.7388 N   0  0  0  0  0  0  0  0  0  0  0  0
   21.8136    5.2766   54.3084 H   0  0  0  0  0  0  0  0  0  0  0  0
   21.0937    6.0259   52.9075 H   0  0  0  0  0  0  0  0  0  0  0  0
   23.9324    6.3309   54.4849 C   0  0  0  0  0  0  0  0  0  0  0  0
   25.1812    6.8870   54.6272 O   0  0  0  0  0  0  0  0  0  0  0  0
   23.5798    5.4942   55.3493 O   0  0  0  0  0  0  0  0  0  0  0  0
   25.5656    7.2874   55.4556 H   0  0  0  0  0  0  0  0  0  0  0  0
   21.8333   10.0069   54.6345 C   0  0  0  0  0  0  0  0  0  0  0  0
   21.3675   11.2321   54.1714 O   0  0  0  0  0  0  0  0  0  0  0  0
   22.4321    9.9944   55.7276 O   0  0  0  0  0  0  0  0  0  0  0  0
   21.8975   11.7774   53.5143 H   0  0  0  0  0  0  0  0  0  0  0  0
  1  2  1  0  0  0
  2  3  1  0  0  0
  3  5  1  0  0  0
  5  6  1  0  0  0
  5  9  1  0  0  0
  9 10  1  0  0  0
  9 11  2  0  0  0
  3  4  1  0  0  0
  4 13  1  0  0  0
 13 14  1  0  0  0
 13 15  2  0  0  0
  4  2  1  0  0  0
  6  7  1  0  0  0
  6  8  1  0  0  0
 10 12  1  0  0  0
 14 16  1  0  0  0
M  END
> <minimizedAffinity>
-7.37860

> <CNNscore>
0.8380668163

> <CNNaffinity>
5.1709594727

> <CNN_VS>
4.3336095810

> <CNNaffinity_variance>
0.2153140754

$$$$
[H]OC(=O)[C@@]([H])(N([H])[H])[C@]1([H])[C@@]([H])(C(=O)O[H])[C@]1([H])C([H])([H])[H]


 16 16  0  0  0  0  0  0  0  0999 V2000
   20.6721    8.1264   51.5759 C   0  0  0  0  0  0  0  0  0  0  0  0
   21.7788    8.7678   52.3372 C   0  0  0  0  0  0  0  0  0  0  0  0
   22.7924    8.1234   53.1476 C   0  0  0  0  0  0  0  0  0  0  0  0
   21.6429    8.7494   53.8642 C   0  0  0  0  0  0  0  0  0  0  0  0
   23.0022    6.6668   53.3469 C   0  0  0  0  0  0  0  0  0  0  0  0
   21.6599    6.1176   53.6896 N   0  0  0  0  0  0  0  0  0  0  0  0
   21.7712    5.2693   54.2543 H   0  0  0  0  0  0  0  0  0  0  0  0
   21.0744    6.0354   52.8508 H   0  0  0  0  0  0  0  0  0  0  0  0
   23.8973    6.3029   54.4631 C   0  0  0  0  0  0  0  0  0  0  0  0
   23.5352    5.4219   55.4538 O   0  0  0  0  0  0  0  0  0  0  0  0
   25.0440    6.8040   54.5378 O   0  0  0  0  0  0  0  0  0  0  0  0
   24.0664    4.6465   55.7866 H   0  0  0  0  0  0  0  0  0  0  0  0
   21.8382    9.9984   54.6189 C   0  0  0  0  0  0  0  0  0  0  0  0
   22.5847   10.0594   55.7900 O   0  0  0  0  0  0  0  0  0  0  0  0
   21.3219   11.0564   54.2094 O   0  0  0  0  0  0  0  0  0  0  0  0
   22.1812    9.8213   56.6791 H   0  0  0  0  0  0  0  0  0  0  0  0
  1  2  1  0  0  0
  2  3  1  0  0  0
  3  5  1  0  0  0
  5  6  1  0  0  0
  5  9  1  0  0  0
  9 10  1  0  0  0
  9 11  2  0  0  0
  3  4  1  0  0  0
  4 13  1  0  0  0
 13 14  1  0  0  0
 13 15  2  0  0  0
  4  2  1  0  0  0
  6  7  1  0  0  0
  6  8  1  0  0  0
 10 12  1  0  0  0
 14 16  1  0  0  0
M  END
> <minimizedAffinity>
-7.64443

> <CNNscore>
0.7989072204

> <CNNaffinity>
5.1806859970

> <CNN_VS>
4.1388874054

> <CNNaffinity_variance>
0.1014276743

$$$$
[H]OC(=O)[C@@]([H])(N([H])[H])[C@]1([H])[C@@]([H])(C(=O)O[H])[C@]1([H])C([H])([H])[H]


 16 16  0  0  0  0  0  0  0  0999 V2000
   21.9296    9.4922   55.2849 C   0  0  0  0  0  0  0  0  0  0  0  0
   21.1837    8.7202   54.2537 C   0  0  0  0  0  0  0  0  0  0  0  0
   21.4586    7.3818   53.7716 C   0  0  0  0  0  0  0  0  0  0  0  0
   21.9021    8.5196   52.9142 C   0  0  0  0  0  0  0  0  0  0  0  0
   22.5072    6.4446   54.2484 C   0  0  0  0  0  0  0  0  0  0  0  0
   22.3517    6.3982   55.7298 N   0  0  0  0  0  0  0  0  0  0  0  0
   23.2507    6.1601   56.1610 H   0  0  0  0  0  0  0  0  0  0  0  0
   21.5489    5.8162   55.9942 H   0  0  0  0  0  0  0  0  0  0  0  0
   23.8983    6.8661   53.9897 C   0  0  0  0  0  0  0  0  0  0  0  0
   24.5524    7.7963   54.7616 O   0  0  0  0  0  0  0  0  0  0  0  0
   24.5364    6.3720   53.0304 O   0  0  0  0  0  0  0  0  0  0  0  0
   25.4638    7.7098   55.1565 H   0  0  0  0  0  0  0  0  0  0  0  0
   21.1874    8.8202   51.6625 C   0  0  0  0  0  0  0  0  0  0  0  0
   20.7072    7.8284   50.8151 O   0  0  0  0  0  0  0  0  0  0  0  0
   20.9940   10.0056   51.3294 O   0  0  0  0  0  0  0  0  0  0  0  0
   21.3027    7.3903   50.1343 H   0  0  0  0  0  0  0  0  0  0  0  0
  1  2  1  0  0  0
  2  3  1  0  0  0
  3  5  1  0  0  0
  5  6  1  0  0  0
  5  9  1  0  0  0
  9 10  1  0  0  0
  9 11  2  0  0  0
  3  4  1  0  0  0
  4 13  1  0  0  0
 13 14  1  0  0  0
 13 15  2  0  0  0
  4  2  1  0  0  0
  6  7  1  0  0  0
  6  8  1  0  0  0
 10 12  1  0  0  0
 14 16  1  0  0  0
M  END
> <minimizedAffinity>
-7.55612

> <CNNscore>
0.7586686015

> <CNNaffinity>
5.0319166183

> <CNN_VS>
3.8175570965

> <CNNaffinity_variance>
0.3020377159

$$$$
[H]OC(=O)[C@@]([H])(N([H])[H])[C@]1([H])[C@@]([H])(C(=O)O[H])[C@]1([H])C([H])([H])[H]


 16 16  0  0  0  0  0  0  0  0999 V2000
   21.6202    7.5087   56.1975 C   0  0  0  0  0  0  0  0  0  0  0  0
   22.4186    8.3892   55.3014 C   0  0  0  0  0  0  0  0  0  0  0  0
   22.1619    8.7141   53.9129 C   0  0  0  0  0  0  0  0  0  0  0  0
   23.2037    7.6825   54.1902 C   0  0  0  0  0  0  0  0  0  0  0  0
   21.0012    8.2985   53.0848 C   0  0  0  0  0  0  0  0  0  0  0  0
   21.1349    6.8224   52.9298 N   0  0  0  0  0  0  0  0  0  0  0  0
   20.6793    6.5269   52.0603 H   0  0  0  0  0  0  0  0  0  0  0  0
   20.8439    6.3379   53.7864 H   0  0  0  0  0  0  0  0  0  0  0  0
   20.9651    8.8581   51.7191 C   0  0  0  0  0  0  0  0  0  0  0  0
   21.2074   10.1836   51.4486 O   0  0  0  0  0  0  0  0  0  0  0  0
   20.7038    8.1162   50.7429 O   0  0  0  0  0  0  0  0  0  0  0  0
   21.8238   10.5483   50.7549 H   0  0  0  0  0  0  0  0  0  0  0  0
   24.6276    8.0045   53.9988 C   0  0  0  0  0  0  0  0  0  0  0  0
   25.4945    8.2366   55.0604 O   0  0  0  0  0  0  0  0  0  0  0  0
   25.0963    8.0774   52.8461 O   0  0  0  0  0  0  0  0  0  0  0  0
   25.5558    9.1402   55.4962 H   0  0  0  0  0  0  0  0  0  0  0  0
  1  2  1  0  0  0
  2  3  1  0  0  0
  3  5  1  0  0  0
  5  6  1  0  0  0
  5  9  1  0  0  0
  9 10  1  0  0  0
  9 11  2  0  0  0
  3  4  1  0  0  0
  4 13  1  0  0  0
 13 14  1  0  0  0
 13 15  2  0  0  0
  4  2  1  0  0  0
  6  7  1  0  0  0
  6  8  1  0  0  0
 10 12  1  0  0  0
 14 16  1  0  0  0
M  END
> <minimizedAffinity>
-4.41995

> <CNNscore>
0.7567169666

> <CNNaffinity>
5.3663177490

> <CNN_VS>
4.0607838631

> <CNNaffinity_variance>
0.2009555548

$$$$
[H]OC(=O)[C@@]([H])(N([H])[H])[C@]1([H])[C@@]([H])(C(=O)O[H])[C@]1([H])C([H])([H])[H]


 16 16  0  0  0  0  0  0  0  0999 V2000
   21.7746   10.3228   55.0016 C   0  0  0  0  0  0  0  0  0  0  0  0
   21.2749    9.0838   54.3451 C   0  0  0  0  0  0  0  0  0  0  0  0
   22.0008    7.8557   54.0918 C   0  0  0  0  0  0  0  0  0  0  0  0
   21.8290    8.7949   52.9451 C   0  0  0  0  0  0  0  0  0  0  0  0
   23.3917    7.5259   54.4942 C   0  0  0  0  0  0  0  0  0  0  0  0
   24.2523    8.0213   53.3830 N   0  0  0  0  0  0  0  0  0  0  0  0
   25.1180    7.4730   53.3500 H   0  0  0  0  0  0  0  0  0  0  0  0
   24.3581    9.0409   53.4303 H   0  0  0  0  0  0  0  0  0  0  0  0
   23.6851    6.0860   54.6366 C   0  0  0  0  0  0  0  0  0  0  0  0
   23.5273    5.4054   55.8201 O   0  0  0  0  0  0  0  0  0  0  0  0
   24.0988    5.4287   53.6525 O   0  0  0  0  0  0  0  0  0  0  0  0
   23.0540    4.5376   55.9513 H   0  0  0  0  0  0  0  0  0  0  0  0
   20.8951    8.4637   51.8561 C   0  0  0  0  0  0  0  0  0  0  0  0
   20.2805    7.2218   51.7453 O   0  0  0  0  0  0  0  0  0  0  0  0
   20.6303    9.3168   50.9867 O   0  0  0  0  0  0  0  0  0  0  0  0
   20.7474    6.4454   51.3103 H   0  0  0  0  0  0  0  0  0  0  0  0
  1  2  1  0  0  0
  2  3  1  0  0  0
  3  5  1  0  0  0
  5  6  1  0  0  0
  5  9  1  0  0  0
  9 10  1  0  0  0
  9 11  2  0  0  0
  3  4  1  0  0  0
  4 13  1  0  0  0
 13 14  1  0  0  0
 13 15  2  0  0  0
  4  2  1  0  0  0
  6  7  1  0  0  0
  6  8  1  0  0  0
 10 12  1  0  0  0
 14 16  1  0  0  0
M  END
> <minimizedAffinity>
-6.98495

> <CNNscore>
0.6740300655

> <CNNaffinity>
5.1943945885

> <CNN_VS>
3.5011780262

> <CNNaffinity_variance>
0.0583056696

$$$$
[H]OC(=O)[C@@]([H])(N([H])[H])[C@]1([H])[C@@]([H])(C(=O)O[H])[C@]1([H])C([H])([H])[H]


 16 16  0  0  0  0  0  0  0  0999 V2000
   21.2998    8.4539   51.9868 C   0  0  0  0  0  0  0  0  0  0  0  0
   22.0739    7.4840   52.8089 C   0  0  0  0  0  0  0  0  0  0  0  0
   22.2011    7.4418   54.2516 C   0  0  0  0  0  0  0  0  0  0  0  0
   23.3362    8.0326   53.4842 C   0  0  0  0  0  0  0  0  0  0  0  0
   21.5288    8.3159   55.2463 C   0  0  0  0  0  0  0  0  0  0  0  0
   20.0941    8.3412   54.8442 N   0  0  0  0  0  0  0  0  0  0  0  0
   19.6641    9.2149   55.1647 H   0  0  0  0  0  0  0  0  0  0  0  0
   19.6229    7.4718   55.1186 H   0  0  0  0  0  0  0  0  0  0  0  0
   21.9806    9.7212   55.2622 C   0  0  0  0  0  0  0  0  0  0  0  0
   21.4031   10.7000   54.4893 O   0  0  0  0  0  0  0  0  0  0  0  0
   22.9314   10.0672   56.0024 O   0  0  0  0  0  0  0  0  0  0  0  0
   21.0969   11.5986   54.7945 H   0  0  0  0  0  0  0  0  0  0  0  0
   24.6017    7.2913   53.3543 C   0  0  0  0  0  0  0  0  0  0  0  0
   25.8374    7.8578   53.6450 O   0  0  0  0  0  0  0  0  0  0  0  0
   24.5879    6.1057   52.9695 O   0  0  0  0  0  0  0  0  0  0  0  0
   26.3278    8.4158   52.9681 H   0  0  0  0  0  0  0  0  0  0  0  0
  1  2  1  0  0  0
  2  3  1  0  0  0
  3  5  1  0  0  0
  5  6  1  0  0  0
  5  9  1  0  0  0
  9 10  1  0  0  0
  9 11  2  0  0  0
  3  4  1  0  0  0
  4 13  1  0  0  0
 13 14  1  0  0  0
 13 15  2  0  0  0
  4  2  1  0  0  0
  6  7  1  0  0  0
  6  8  1  0  0  0
 10 12  1  0  0  0
 14 16  1  0  0  0
M  END
> <minimizedAffinity>
-6.45241

> <CNNscore>
0.6732099652

> <CNNaffinity>
4.7608757019

> <CNN_VS>
3.2050690651

> <CNNaffinity_variance>
0.1530463248

$$$$
[H]OC(=O)[C@@]([H])(N([H])[H])[C@]1([H])[C@@]([H])(C(=O)O[H])[C@]1([H])C([H])([H])[H]


 16 16  0  0  0  0  0  0  0  0999 V2000
   20.1050    7.1634   52.7388 C   0  0  0  0  0  0  0  0  0  0  0  0
   21.1823    8.0921   52.3000 C   0  0  0  0  0  0  0  0  0  0  0  0
   22.4611    8.3362   52.9359 C   0  0  0  0  0  0  0  0  0  0  0  0
   21.3837    9.3432   53.1629 C   0  0  0  0  0  0  0  0  0  0  0  0
   23.0204    7.6611   54.1347 C   0  0  0  0  0  0  0  0  0  0  0  0
   23.3623    8.7590   55.0827 N   0  0  0  0  0  0  0  0  0  0  0  0
   24.1208    8.4535   55.7010 H   0  0  0  0  0  0  0  0  0  0  0  0
   22.5182    9.1227   55.5393 H   0  0  0  0  0  0  0  0  0  0  0  0
   24.2669    6.9026   53.9105 C   0  0  0  0  0  0  0  0  0  0  0  0
   24.4623    6.0937   52.8167 O   0  0  0  0  0  0  0  0  0  0  0  0
   25.2062    6.9790   54.7372 O   0  0  0  0  0  0  0  0  0  0  0  0
   25.2557    6.0874   52.2129 H   0  0  0  0  0  0  0  0  0  0  0  0
   21.4596   10.6616   52.5119 C   0  0  0  0  0  0  0  0  0  0  0  0
   21.6723   11.8383   53.2209 O   0  0  0  0  0  0  0  0  0  0  0  0
   21.3304   10.7498   51.2753 O   0  0  0  0  0  0  0  0  0  0  0  0
   20.9130   12.3247   53.6646 H   0  0  0  0  0  0  0  0  0  0  0  0
  1  2  1  0  0  0
  2  3  1  0  0  0
  3  5  1  0  0  0
  5  6  1  0  0  0
  5  9  1  0  0  0
  9 10  1  0  0  0
  9 11  2  0  0  0
  3  4  1  0  0  0
  4 13  1  0  0  0
 13 14  1  0  0  0
 13 15  2  0  0  0
  4  2  1  0  0  0
  6  7  1  0  0  0
  6  8  1  0  0  0
 10 12  1  0  0  0
 14 16  1  0  0  0
M  END
> <minimizedAffinity>
-4.19938

> <CNNscore>
0.6039672494

> <CNNaffinity>
4.7401390076

> <CNN_VS>
2.8628888130

> <CNNaffinity_variance>
0.1088687778

$$$$
[H]OC(=O)[C@@]1([H])C([H])([H])[C@]1([H])[C@](C(=O)O[H])(N([H])[H])C([H])([H])C1([H])c2c([H])c([H])c([H])c([H])c2Oc2c([H])c([H])c([H])c([H])c21


 30 33  0  0  0  0  0  0  0  0999 V2000
   20.3535    8.7768   54.3252 N   0  0  0  0  0  0  0  0  0  0  0  0
   21.5569    9.3223   53.7780 C   0  0  0  0  0  0  0  0  0  0  0  0
   19.7871    9.4800   54.8495 H   0  0  0  0  0  0  0  0  0  0  0  0
   19.7498    8.4187   53.5527 H   0  0  0  0  0  0  0  0  0  0  0  0
   21.8431    8.5880   52.4983 C   0  0  0  0  0  0  0  0  0  0  0  0
   23.1590    8.4774   52.0950 O   0  0  0  0  0  0  0  0  0  0  0  0
   20.9112    8.0880   51.8136 O   0  0  0  0  0  0  0  0  0  0  0  0
   23.8279    7.8245   52.4503 H   0  0  0  0  0  0  0  0  0  0  0  0
   21.1487   10.7488   53.3244 C   0  0  0  0  0  0  0  0  0  0  0  0
   21.8667   11.9016   53.8657 C   0  0  0  0  0  0  0  0  0  0  0  0
   22.0454   11.5113   52.4023 C   0  0  0  0  0  0  0  0  0  0  0  0
   21.4445   12.4757   51.4438 C   0  0  0  0  0  0  0  0  0  0  0  0
   20.9930   12.0417   50.2148 O   0  0  0  0  0  0  0  0  0  0  0  0
   21.3404   13.6846   51.7352 O   0  0  0  0  0  0  0  0  0  0  0  0
   20.3174   11.2890   50.1345 H   0  0  0  0  0  0  0  0  0  0  0  0
   22.7192    9.5107   54.6126 C   0  0  0  0  0  0  0  0  0  0  0  0
   23.5382    8.4858   55.2949 C   0  0  0  0  0  0  0  0  0  0  0  0
   22.9986    7.2028   54.6753 C   0  0  0  0  0  0  0  0  0  0  0  0
   21.6506    6.8981   54.8164 C   0  0  0  0  0  0  0  0  0  0  0  0
   21.0917    5.8090   54.1665 C   0  0  0  0  0  0  0  0  0  0  0  0
   21.8625    4.9999   53.3631 C   0  0  0  0  0  0  0  0  0  0  0  0
   23.1829    5.2908   53.2238 C   0  0  0  0  0  0  0  0  0  0  0  0
   23.7582    6.3982   53.8857 C   0  0  0  0  0  0  0  0  0  0  0  0
   25.1123    6.6169   53.7145 O   0  0  0  0  0  0  0  0  0  0  0  0
   25.7097    7.6797   54.3718 C   0  0  0  0  0  0  0  0  0  0  0  0
   27.0859    7.8675   54.2232 C   0  0  0  0  0  0  0  0  0  0  0  0
   27.7365    8.8804   54.8756 C   0  0  0  0  0  0  0  0  0  0  0  0
   27.0382    9.7245   55.6867 C   0  0  0  0  0  0  0  0  0  0  0  0
   25.6869    9.5226   55.8147 C   0  0  0  0  0  0  0  0  0  0  0  0
   24.9746    8.5162   55.1727 C   0  0  0  0  0  0  0  0  0  0  0  0
  1  2  1  0  0  0
  2 16  1  0  0  0
 16 17  1  0  0  0
 17 18  1  0  0  0
 18 19  2  0  0  0
 19 20  1  0  0  0
 20 21  2  0  0  0
 21 22  1  0  0  0
 22 23  2  0  0  0
 23 24  1  0  0  0
 24 25  1  0  0  0
 25 26  2  0  0  0
 26 27  1  0  0  0
 27 28  2  0  0  0
 28 29  1  0  0  0
 29 30  2  0  0  0
  2  9  1  0  0  0
  9 10  1  0  0  0
 10 11  1  0  0  0
 11 12  1  0  0  0
 12 13  1  0  0  0
 12 14  2  0  0  0
  2  5  1  0  0  0
  5  6  1  0  0  0
  5  7  2  0  0  0
 30 17  1  0  0  0
 11  9  1  0  0  0
 23 18  1  0  0  0
 30 25  1  0  0  0
  1  3  1  0  0  0
  1  4  1  0  0  0
 13 15  1  0  0  0
  6  8  1  0  0  0
M  END
> <minimizedAffinity>
9.92549

> <CNNscore>
0.7536356449

> <CNNaffinity>
6.3541440964

> <CNN_VS>
4.7887096405

> <CNNaffinity_variance>
0.5982440710

$$$$
[H]OC(=O)[C@@]1([H])C([H])([H])[C@]1([H])[C@](C(=O)O[H])(N([H])[H])C([H])([H])C1([H])c2c([H])c([H])c([H])c([H])c2Oc2c([H])c([H])c([H])c([H])c21


 30 33  0  0  0  0  0  0  0  0999 V2000
   22.6430    5.4561   52.0751 N   0  0  0  0  0  0  0  0  0  0  0  0
   22.7675    6.7117   52.7482 C   0  0  0  0  0  0  0  0  0  0  0  0
   22.5438    4.6490   52.7301 H   0  0  0  0  0  0  0  0  0  0  0  0
   21.7889    5.4647   51.4754 H   0  0  0  0  0  0  0  0  0  0  0  0
   22.1270    7.7553   51.8767 C   0  0  0  0  0  0  0  0  0  0  0  0
   20.8761    7.4871   51.3574 O   0  0  0  0  0  0  0  0  0  0  0  0
   22.7129    8.8424   51.6272 O   0  0  0  0  0  0  0  0  0  0  0  0
   20.0081    7.5704   51.8470 H   0  0  0  0  0  0  0  0  0  0  0  0
   21.8121    6.5810   53.9637 C   0  0  0  0  0  0  0  0  0  0  0  0
   21.1173    5.3148   54.1910 C   0  0  0  0  0  0  0  0  0  0  0  0
   22.2276    5.7555   55.1392 C   0  0  0  0  0  0  0  0  0  0  0  0
   21.7477    6.1346   56.4941 C   0  0  0  0  0  0  0  0  0  0  0  0
   21.5440    5.1651   57.4540 O   0  0  0  0  0  0  0  0  0  0  0  0
   21.5233    7.3282   56.7812 O   0  0  0  0  0  0  0  0  0  0  0  0
   22.2793    4.5171   57.7164 H   0  0  0  0  0  0  0  0  0  0  0  0
   24.0344    7.1187   53.3070 C   0  0  0  0  0  0  0  0  0  0  0  0
   24.5722    8.4868   53.4683 C   0  0  0  0  0  0  0  0  0  0  0  0
   23.4314    9.1776   54.2048 C   0  0  0  0  0  0  0  0  0  0  0  0
   22.1771    9.2323   53.6103 C   0  0  0  0  0  0  0  0  0  0  0  0
   21.0830    9.7390   54.2940 C   0  0  0  0  0  0  0  0  0  0  0  0
   21.2144   10.2024   55.5832 C   0  0  0  0  0  0  0  0  0  0  0  0
   22.4399   10.1546   56.1693 C   0  0  0  0  0  0  0  0  0  0  0  0
   23.5587    9.6414   55.4762 C   0  0  0  0  0  0  0  0  0  0  0  0
   24.7771    9.6469   56.1291 O   0  0  0  0  0  0  0  0  0  0  0  0
   25.8972    9.1740   55.4657 C   0  0  0  0  0  0  0  0  0  0  0  0
   27.1301    9.2212   56.1206 C   0  0  0  0  0  0  0  0  0  0  0  0
   28.2765    8.7994   55.5022 C   0  0  0  0  0  0  0  0  0  0  0  0
   28.2243    8.3246   54.2256 C   0  0  0  0  0  0  0  0  0  0  0  0
   27.0018    8.2845   53.6035 C   0  0  0  0  0  0  0  0  0  0  0  0
   25.8067    8.6933   54.1841 C   0  0  0  0  0  0  0  0  0  0  0  0
  1  2  1  0  0  0
  2 16  1  0  0  0
 16 17  1  0  0  0
 17 18  1  0  0  0
 18 19  2  0  0  0
 19 20  1  0  0  0
 20 21  2  0  0  0
 21 22  1  0  0  0
 22 23  2  0  0  0
 23 24  1  0  0  0
 24 25  1  0  0  0
 25 26  2  0  0  0
 26 27  1  0  0  0
 27 28  2  0  0  0
 28 29  1  0  0  0
 29 30  2  0  0  0
  2  9  1  0  0  0
  9 10  1  0  0  0
 10 11  1  0  0  0
 11 12  1  0  0  0
 12 13  1  0  0  0
 12 14  2  0  0  0
  2  5  1  0  0  0
  5  6  1  0  0  0
  5  7  2  0  0  0
 30 17  1  0  0  0
 11  9  1  0  0  0
 23 18  1  0  0  0
 30 25  1  0  0  0
  1  3  1  0  0  0
  1  4  1  0  0  0
 13 15  1  0  0  0
  6  8  1  0  0  0
M  END
> <minimizedAffinity>
10.01914

> <CNNscore>
0.7030206919

> <CNNaffinity>
6.3676085472

> <CNN_VS>
4.4765605927

> <CNNaffinity_variance>
0.3636941016

$$$$
[H]OC(=O)[C@@]1([H])C([H])([H])[C@]1([H])[C@](C(=O)O[H])(N([H])[H])C([H])([H])C1([H])c2c([H])c([H])c([H])c([H])c2Oc2c([H])c([H])c([H])c([H])c21


 30 33  0  0  0  0  0  0  0  0999 V2000
   20.9006   10.2605   56.6892 N   0  0  0  0  0  0  0  0  0  0  0  0
   21.6490    9.6222   55.6511 C   0  0  0  0  0  0  0  0  0  0  0  0
   20.7875   11.2877   56.5395 H   0  0  0  0  0  0  0  0  0  0  0  0
   19.9402    9.8537   56.7279 H   0  0  0  0  0  0  0  0  0  0  0  0
   21.1107    8.2271   55.5003 C   0  0  0  0  0  0  0  0  0  0  0  0
   20.0156    8.0401   54.6804 O   0  0  0  0  0  0  0  0  0  0  0  0
   21.6419    7.2569   56.1034 O   0  0  0  0  0  0  0  0  0  0  0  0
   20.0335    7.9862   53.6821 H   0  0  0  0  0  0  0  0  0  0  0  0
   21.1973   10.3545   54.3599 C   0  0  0  0  0  0  0  0  0  0  0  0
   21.9514   11.5198   53.9005 C   0  0  0  0  0  0  0  0  0  0  0  0
   22.0110   10.2149   53.1132 C   0  0  0  0  0  0  0  0  0  0  0  0
   21.3283   10.2753   51.7942 C   0  0  0  0  0  0  0  0  0  0  0  0
   21.3221   11.4492   51.0696 O   0  0  0  0  0  0  0  0  0  0  0  0
   20.7541    9.2712   51.3258 O   0  0  0  0  0  0  0  0  0  0  0  0
   22.1840   11.9277   50.8297 H   0  0  0  0  0  0  0  0  0  0  0  0
   23.0904    9.6936   55.6398 C   0  0  0  0  0  0  0  0  0  0  0  0
   24.0236    9.2868   54.5672 C   0  0  0  0  0  0  0  0  0  0  0  0
   25.3645    9.3579   55.2871 C   0  0  0  0  0  0  0  0  0  0  0  0
   25.7752   10.5667   55.8346 C   0  0  0  0  0  0  0  0  0  0  0  0
   26.9255   10.6496   56.6035 C   0  0  0  0  0  0  0  0  0  0  0  0
   27.6913    9.5314   56.8432 C   0  0  0  0  0  0  0  0  0  0  0  0
   27.2964    8.3463   56.3074 C   0  0  0  0  0  0  0  0  0  0  0  0
   26.1263    8.2567   55.5211 C   0  0  0  0  0  0  0  0  0  0  0  0
   25.8015    7.0222   54.9905 O   0  0  0  0  0  0  0  0  0  0  0  0
   24.6742    6.9088   54.1939 C   0  0  0  0  0  0  0  0  0  0  0  0
   24.3776    5.6654   53.6305 C   0  0  0  0  0  0  0  0  0  0  0  0
   23.2958    5.5012   52.8076 C   0  0  0  0  0  0  0  0  0  0  0  0
   22.4889    6.5632   52.5265 C   0  0  0  0  0  0  0  0  0  0  0  0
   22.7979    7.7739   53.0938 C   0  0  0  0  0  0  0  0  0  0  0  0
   23.8781    7.9967   53.9398 C   0  0  0  0  0  0  0  0  0  0  0  0
  1  2  1  0  0  0
  2 16  1  0  0  0
 16 17  1  0  0  0
 17 18  1  0  0  0
 18 19  2  0  0  0
 19 20  1  0  0  0
 20 21  2  0  0  0
 21 22  1  0  0  0
 22 23  2  0  0  0
 23 24  1  0  0  0
 24 25  1  0  0  0
 25 26  2  0  0  0
 26 27  1  0  0  0
 27 28  2  0  0  0
 28 29  1  0  0  0
 29 30  2  0  0  0
  2  9  1  0  0  0
  9 10  1  0  0  0
 10 11  1  0  0  0
 11 12  1  0  0  0
 12 13  1  0  0  0
 12 14  2  0  0  0
  2  5  1  0  0  0
  5  6  1  0  0  0
  5  7  2  0  0  0
 30 17  1  0  0  0
 11  9  1  0  0  0
 23 18  1  0  0  0
 30 25  1  0  0  0
  1  3  1  0  0  0
  1  4  1  0  0  0
 13 15  1  0  0  0
  6  8  1  0  0  0
M  END
> <minimizedAffinity>
15.78286

> <CNNscore>
0.6428479552

> <CNNaffinity>
6.3166689873

> <CNN_VS>
4.0606579781

> <CNNaffinity_variance>
0.3338174820

$$$$
[H]OC(=O)[C@@]1([H])C([H])([H])[C@]1([H])[C@](C(=O)O[H])(N([H])[H])C([H])([H])C1([H])c2c([H])c([H])c([H])c([H])c2Oc2c([H])c([H])c([H])c([H])c21


 30 33  0  0  0  0  0  0  0  0999 V2000
   21.1428    9.1260   55.9711 N   0  0  0  0  0  0  0  0  0  0  0  0
   21.7838    8.9948   54.6995 C   0  0  0  0  0  0  0  0  0  0  0  0
   21.0595   10.1177   56.2868 H   0  0  0  0  0  0  0  0  0  0  0  0
   20.1728    8.7450   55.9141 H   0  0  0  0  0  0  0  0  0  0  0  0
   21.1805    7.8023   54.0119 C   0  0  0  0  0  0  0  0  0  0  0  0
   20.9074    7.9020   52.6621 O   0  0  0  0  0  0  0  0  0  0  0  0
   20.9312    6.7432   54.6471 O   0  0  0  0  0  0  0  0  0  0  0  0
   21.5731    7.8112   51.9214 H   0  0  0  0  0  0  0  0  0  0  0  0
   21.2643   10.2132   53.8913 C   0  0  0  0  0  0  0  0  0  0  0  0
   21.7373   11.5524   54.2380 C   0  0  0  0  0  0  0  0  0  0  0  0
   22.1803   10.9025   52.9313 C   0  0  0  0  0  0  0  0  0  0  0  0
   21.6071   11.5399   51.7168 C   0  0  0  0  0  0  0  0  0  0  0  0
   21.9675   12.8263   51.3731 O   0  0  0  0  0  0  0  0  0  0  0  0
   20.7965   10.9243   50.9948 O   0  0  0  0  0  0  0  0  0  0  0  0
   22.9399   13.0893   51.2524 H   0  0  0  0  0  0  0  0  0  0  0  0
   23.2218    9.0597   54.5960 C   0  0  0  0  0  0  0  0  0  0  0  0
   24.2315    8.2012   55.2520 C   0  0  0  0  0  0  0  0  0  0  0  0
   24.1602    6.9410   54.3987 C   0  0  0  0  0  0  0  0  0  0  0  0
   22.9547    6.2580   54.2999 C   0  0  0  0  0  0  0  0  0  0  0  0
   22.8112    5.1811   53.4392 C   0  0  0  0  0  0  0  0  0  0  0  0
   23.8645    4.7610   52.6593 C   0  0  0  0  0  0  0  0  0  0  0  0
   25.0478    5.4232   52.7540 C   0  0  0  0  0  0  0  0  0  0  0  0
   25.2002    6.5198   53.6312 C   0  0  0  0  0  0  0  0  0  0  0  0
   26.4400    7.1282   53.6902 O   0  0  0  0  0  0  0  0  0  0  0  0
   26.6270    8.1895   54.5603 C   0  0  0  0  0  0  0  0  0  0  0  0
   27.8946    8.7710   54.6407 C   0  0  0  0  0  0  0  0  0  0  0  0
   28.1473    9.8004   55.5072 C   0  0  0  0  0  0  0  0  0  0  0  0
   27.1519   10.2723   56.3099 C   0  0  0  0  0  0  0  0  0  0  0  0
   25.9142    9.6879   56.2112 C   0  0  0  0  0  0  0  0  0  0  0  0
   25.5999    8.6458   55.3466 C   0  0  0  0  0  0  0  0  0  0  0  0
  1  2  1  0  0  0
  2 16  1  0  0  0
 16 17  1  0  0  0
 17 18  1  0  0  0
 18 19  2  0  0  0
 19 20  1  0  0  0
 20 21  2  0  0  0
 21 22  1  0  0  0
 22 23  2  0  0  0
 23 24  1  0  0  0
 24 25  1  0  0  0
 25 26  2  0  0  0
 26 27  1  0  0  0
 27 28  2  0  0  0
 28 29  1  0  0  0
 29 30  2  0  0  0
  2  9  1  0  0  0
  9 10  1  0  0  0
 10 11  1  0  0  0
 11 12  1  0  0  0
 12 13  1  0  0  0
 12 14  2  0  0  0
  2  5  1  0  0  0
  5  6  1  0  0  0
  5  7  2  0  0  0
 30 17  1  0  0  0
 11  9  1  0  0  0
 23 18  1  0  0  0
 30 25  1  0  0  0
  1  3  1  0  0  0
  1  4  1  0  0  0
 13 15  1  0  0  0
  6  8  1  0  0  0
M  END
> <minimizedAffinity>
16.67324

> <CNNscore>
0.6107082367

> <CNNaffinity>
5.9955391884

> <CNN_VS>
3.6615252495

> <CNNaffinity_variance>
0.2690424323

$$$$
[H]OC(=O)[C@@]1([H])C([H])([H])[C@]1([H])[C@](C(=O)O[H])(N([H])[H])C([H])([H])C1([H])c2c([H])c([H])c([H])c([H])c2Oc2c([H])c([H])c([H])c([H])c21


 30 33  0  0  0  0  0  0  0  0999 V2000
   23.4717   10.0546   53.2701 N   0  0  0  0  0  0  0  0  0  0  0  0
   22.6329    9.7025   54.3735 C   0  0  0  0  0  0  0  0  0  0  0  0
   23.7592    9.2312   52.6959 H   0  0  0  0  0  0  0  0  0  0  0  0
   22.9573   10.7018   52.6331 H   0  0  0  0  0  0  0  0  0  0  0  0
   21.6905   10.8499   54.6068 C   0  0  0  0  0  0  0  0  0  0  0  0
   21.0879   10.9521   55.8449 O   0  0  0  0  0  0  0  0  0  0  0  0
   21.4569   11.6935   53.7007 O   0  0  0  0  0  0  0  0  0  0  0  0
   21.5105   11.3189   56.6737 H   0  0  0  0  0  0  0  0  0  0  0  0
   21.7336    8.5691   53.8131 C   0  0  0  0  0  0  0  0  0  0  0  0
   20.2959    8.6037   54.0769 C   0  0  0  0  0  0  0  0  0  0  0  0
   20.8181    8.8567   52.6665 C   0  0  0  0  0  0  0  0  0  0  0  0
   20.5029    7.7693   51.7032 C   0  0  0  0  0  0  0  0  0  0  0  0
   21.0983    7.7509   50.4590 O   0  0  0  0  0  0  0  0  0  0  0  0
   19.6999    6.8626   52.0041 O   0  0  0  0  0  0  0  0  0  0  0  0
   22.1072    7.7746   50.3545 H   0  0  0  0  0  0  0  0  0  0  0  0
   23.2055    9.1651   55.5844 C   0  0  0  0  0  0  0  0  0  0  0  0
   24.2414    8.1195   55.7273 C   0  0  0  0  0  0  0  0  0  0  0  0
   23.7195    7.0428   54.7840 C   0  0  0  0  0  0  0  0  0  0  0  0
   22.4634    6.4949   55.0115 C   0  0  0  0  0  0  0  0  0  0  0  0
   21.8975    5.6055   54.1117 C   0  0  0  0  0  0  0  0  0  0  0  0
   22.5698    5.2423   52.9670 C   0  0  0  0  0  0  0  0  0  0  0  0
   23.8007    5.7725   52.7404 C   0  0  0  0  0  0  0  0  0  0  0  0
   24.3832    6.6776   53.6554 C   0  0  0  0  0  0  0  0  0  0  0  0
   25.6478    7.1566   53.3687 O   0  0  0  0  0  0  0  0  0  0  0  0
   26.2553    8.0253   54.2602 C   0  0  0  0  0  0  0  0  0  0  0  0
   27.5489    8.4717   53.9802 C   0  0  0  0  0  0  0  0  0  0  0  0
   28.2123    9.3041   54.8414 C   0  0  0  0  0  0  0  0  0  0  0  0
   27.6088    9.7090   55.9945 C   0  0  0  0  0  0  0  0  0  0  0  0
   26.3367    9.2604   56.2468 C   0  0  0  0  0  0  0  0  0  0  0  0
   25.6146    8.4205   55.4069 C   0  0  0  0  0  0  0  0  0  0  0  0
  1  2  1  0  0  0
  2 16  1  0  0  0
 16 17  1  0  0  0
 17 18  1  0  0  0
 18 19  2  0  0  0
 19 20  1  0  0  0
 20 21  2  0  0  0
 21 22  1  0  0  0
 22 23  2  0  0  0
 23 24  1  0  0  0
 24 25  1  0  0  0
 25 26  2  0  0  0
 26 27  1  0  0  0
 27 28  2  0  0  0
 28 29  1  0  0  0
 29 30  2  0  0  0
  2  9  1  0  0  0
  9 10  1  0  0  0
 10 11  1  0  0  0
 11 12  1  0  0  0
 12 13  1  0  0  0
 12 14  2  0  0  0
  2  5  1  0  0  0
  5  6  1  0  0  0
  5  7  2  0  0  0
 30 17  1  0  0  0
 11  9  1  0  0  0
 23 18  1  0  0  0
 30 25  1  0  0  0
  1  3  1  0  0  0
  1  4  1  0  0  0
 13 15  1  0  0  0
  6  8  1  0  0  0
M  END
> <minimizedAffinity>
10.47980

> <CNNscore>
0.6085087061

> <CNNaffinity>
6.2248210907

> <CNN_VS>
3.7878577709

> <CNNaffinity_variance>
0.1912640035

$$$$
[H]OC(=O)[C@@]1([H])C([H])([H])[C@]1([H])[C@](C(=O)O[H])(N([H])[H])C([H])([H])C1([H])c2c([H])c([H])c([H])c([H])c2Oc2c([H])c([H])c([H])c([H])c21


 30 33  0  0  0  0  0  0  0  0999 V2000
   22.5762    7.3283   55.1558 N   0  0  0  0  0  0  0  0  0  0  0  0
   23.2100    6.6368   54.0763 C   0  0  0  0  0  0  0  0  0  0  0  0
   21.8583    8.0156   54.8359 H   0  0  0  0  0  0  0  0  0  0  0  0
   22.0845    6.6419   55.7693 H   0  0  0  0  0  0  0  0  0  0  0  0
   23.5512    5.2567   54.5640 C   0  0  0  0  0  0  0  0  0  0  0  0
   23.5901    5.0424   55.9274 O   0  0  0  0  0  0  0  0  0  0  0  0
   23.7944    4.3229   53.7539 O   0  0  0  0  0  0  0  0  0  0  0  0
   22.7980    4.8998   56.5210 H   0  0  0  0  0  0  0  0  0  0  0  0
   22.0663    6.4149   53.0515 C   0  0  0  0  0  0  0  0  0  0  0  0
   20.7189    6.1245   53.5390 C   0  0  0  0  0  0  0  0  0  0  0  0
   21.0181    7.4675   52.8811 C   0  0  0  0  0  0  0  0  0  0  0  0
   20.3791    7.6421   51.5503 C   0  0  0  0  0  0  0  0  0  0  0  0
   21.1462    7.6169   50.4041 O   0  0  0  0  0  0  0  0  0  0  0  0
   19.1469    7.8131   51.4511 O   0  0  0  0  0  0  0  0  0  0  0  0
   21.7550    6.8336   50.1917 H   0  0  0  0  0  0  0  0  0  0  0  0
   24.2701    7.2672   53.3269 C   0  0  0  0  0  0  0  0  0  0  0  0
   24.8669    8.6057   53.5248 C   0  0  0  0  0  0  0  0  0  0  0  0
   23.6742    9.3968   54.0470 C   0  0  0  0  0  0  0  0  0  0  0  0
   22.5346    9.5016   53.2596 C   0  0  0  0  0  0  0  0  0  0  0  0
   21.3838   10.1038   53.7434 C   0  0  0  0  0  0  0  0  0  0  0  0
   21.3432   10.6149   55.0205 C   0  0  0  0  0  0  0  0  0  0  0  0
   22.4562   10.5185   55.7948 C   0  0  0  0  0  0  0  0  0  0  0  0
   23.6324    9.9077   55.3060 C   0  0  0  0  0  0  0  0  0  0  0  0
   24.7315    9.8678   56.1433 O   0  0  0  0  0  0  0  0  0  0  0  0
   25.9071    9.2985   55.6824 C   0  0  0  0  0  0  0  0  0  0  0  0
   27.0230    9.2993   56.5226 C   0  0  0  0  0  0  0  0  0  0  0  0
   28.2209    8.7814   56.1086 C   0  0  0  0  0  0  0  0  0  0  0  0
   28.3368    8.2546   54.8568 C   0  0  0  0  0  0  0  0  0  0  0  0
   27.2265    8.2618   54.0505 C   0  0  0  0  0  0  0  0  0  0  0  0
   25.9856    8.7680   54.4199 C   0  0  0  0  0  0  0  0  0  0  0  0
  1  2  1  0  0  0
  2 16  1  0  0  0
 16 17  1  0  0  0
 17 18  1  0  0  0
 18 19  2  0  0  0
 19 20  1  0  0  0
 20 21  2  0  0  0
 21 22  1  0  0  0
 22 23  2  0  0  0
 23 24  1  0  0  0
 24 25  1  0  0  0
 25 26  2  0  0  0
 26 27  1  0  0  0
 27 28  2  0  0  0
 28 29  1  0  0  0
 29 30  2  0  0  0
  2  9  1  0  0  0
  9 10  1  0  0  0
 10 11  1  0  0  0
 11 12  1  0  0  0
 12 13  1  0  0  0
 12 14  2  0  0  0
  2  5  1  0  0  0
  5  6  1  0  0  0
  5  7  2  0  0  0
 30 17  1  0  0  0
 11  9  1  0  0  0
 23 18  1  0  0  0
 30 25  1  0  0  0
  1  3  1  0  0  0
  1  4  1  0  0  0
 13 15  1  0  0  0
  6  8  1  0  0  0
M  END
> <minimizedAffinity>
5.14481

> <CNNscore>
0.5979545116

> <CNNaffinity>
6.4054007530

> <CNN_VS>
3.8301382065

> <CNNaffinity_variance>
0.3494305313

$$$$
[H]OC(=O)[C@@]1([H])C([H])([H])[C@]1([H])[C@](C(=O)O[H])(N([H])[H])C([H])([H])C1([H])c2c([H])c([H])c([H])c([H])c2Oc2c([H])c([H])c([H])c([H])c21


 30 33  0  0  0  0  0  0  0  0999 V2000
   20.1712    8.6164   53.4516 N   0  0  0  0  0  0  0  0  0  0  0  0
   21.3117    8.3395   52.6344 C   0  0  0  0  0  0  0  0  0  0  0  0
   20.3282    9.4031   54.1199 H   0  0  0  0  0  0  0  0  0  0  0  0
   19.3664    8.8907   52.8463 H   0  0  0  0  0  0  0  0  0  0  0  0
   20.8060    7.8545   51.3048 C   0  0  0  0  0  0  0  0  0  0  0  0
   19.4440    7.6882   51.1510 O   0  0  0  0  0  0  0  0  0  0  0  0
   21.6001    7.6069   50.3585 O   0  0  0  0  0  0  0  0  0  0  0  0
   18.7810    8.4160   50.9751 H   0  0  0  0  0  0  0  0  0  0  0  0
   21.9071    9.7408   52.3359 C   0  0  0  0  0  0  0  0  0  0  0  0
   21.9871   10.2007   50.9503 C   0  0  0  0  0  0  0  0  0  0  0  0
   20.9983   10.8502   51.9128 C   0  0  0  0  0  0  0  0  0  0  0  0
   21.3451   12.2482   52.2804 C   0  0  0  0  0  0  0  0  0  0  0  0
   21.6635   13.1645   51.2995 O   0  0  0  0  0  0  0  0  0  0  0  0
   21.3534   12.6112   53.4743 O   0  0  0  0  0  0  0  0  0  0  0  0
   21.0355   13.3501   50.5246 H   0  0  0  0  0  0  0  0  0  0  0  0
   22.4129    7.5655   53.1551 C   0  0  0  0  0  0  0  0  0  0  0  0
   23.3314    7.9022   54.2641 C   0  0  0  0  0  0  0  0  0  0  0  0
   22.9790    6.8300   55.2875 C   0  0  0  0  0  0  0  0  0  0  0  0
   21.6762    6.7508   55.7632 C   0  0  0  0  0  0  0  0  0  0  0  0
   21.2813    5.7173   56.5980 C   0  0  0  0  0  0  0  0  0  0  0  0
   22.1745    4.7414   56.9774 C   0  0  0  0  0  0  0  0  0  0  0  0
   23.4516    4.8152   56.5179 C   0  0  0  0  0  0  0  0  0  0  0  0
   23.8601    5.8676   55.6688 C   0  0  0  0  0  0  0  0  0  0  0  0
   25.1808    5.8888   55.2612 O   0  0  0  0  0  0  0  0  0  0  0  0
   25.6170    6.9228   54.4494 C   0  0  0  0  0  0  0  0  0  0  0  0
   26.9626    6.9559   54.0762 C   0  0  0  0  0  0  0  0  0  0  0  0
   27.4580    7.9717   53.3033 C   0  0  0  0  0  0  0  0  0  0  0  0
   26.6321    8.9727   52.8866 C   0  0  0  0  0  0  0  0  0  0  0  0
   25.3135    8.9174   53.2627 C   0  0  0  0  0  0  0  0  0  0  0  0
   24.7558    7.9089   54.0400 C   0  0  0  0  0  0  0  0  0  0  0  0
  1  2  1  0  0  0
  2 16  1  0  0  0
 16 17  1  0  0  0
 17 18  1  0  0  0
 18 19  2  0  0  0
 19 20  1  0  0  0
 20 21  2  0  0  0
 21 22  1  0  0  0
 22 23  2  0  0  0
 23 24  1  0  0  0
 24 25  1  0  0  0
 25 26  2  0  0  0
 26 27  1  0  0  0
 27 28  2  0  0  0
 28 29  1  0  0  0
 29 30  2  0  0  0
  2  9  1  0  0  0
  9 10  1  0  0  0
 10 11  1  0  0  0
 11 12  1  0  0  0
 12 13  1  0  0  0
 12 14  2  0  0  0
  2  5  1  0  0  0
  5  6  1  0  0  0
  5  7  2  0  0  0
 30 17  1  0  0  0
 11  9  1  0  0  0
 23 18  1  0  0  0
 30 25  1  0  0  0
  1  3  1  0  0  0
  1  4  1  0  0  0
 13 15  1  0  0  0
  6  8  1  0  0  0
M  END
> <minimizedAffinity>
29.59470

> <CNNscore>
0.5681737065

> <CNNaffinity>
6.0679550171

> <CNN_VS>
3.4476525784

> <CNNaffinity_variance>
0.8262420893

$$$$
[H]OC(=O)[C@@]1([H])C([H])([H])[C@]1([H])[C@](C(=O)O[H])(N([H])[H])C([H])([H])C1([H])c2c([H])c([H])c([H])c([H])c2Oc2c([H])c([H])c([H])c([H])c21


 30 33  0  0  0  0  0  0  0  0999 V2000
   22.3050    6.2619   51.1064 N   0  0  0  0  0  0  0  0  0  0  0  0
   22.1774    7.1458   52.2234 C   0  0  0  0  0  0  0  0  0  0  0  0
   22.3265    5.2550   51.3820 H   0  0  0  0  0  0  0  0  0  0  0  0
   21.4867    6.3831   50.4700 H   0  0  0  0  0  0  0  0  0  0  0  0
   21.3947    8.3433   51.7629 C   0  0  0  0  0  0  0  0  0  0  0  0
   20.3450    8.1351   50.8904 O   0  0  0  0  0  0  0  0  0  0  0  0
   21.6867    9.5026   52.1605 O   0  0  0  0  0  0  0  0  0  0  0  0
   19.4312    7.8139   51.1391 H   0  0  0  0  0  0  0  0  0  0  0  0
   21.2147    6.3984   53.1837 C   0  0  0  0  0  0  0  0  0  0  0  0
   19.8976    6.9700   53.4597 C   0  0  0  0  0  0  0  0  0  0  0  0
   20.0169    5.6989   52.6255 C   0  0  0  0  0  0  0  0  0  0  0  0
   19.5085    4.4802   53.3083 C   0  0  0  0  0  0  0  0  0  0  0  0
   18.2793    4.4977   53.9340 O   0  0  0  0  0  0  0  0  0  0  0  0
   20.1823    3.4299   53.3255 O   0  0  0  0  0  0  0  0  0  0  0  0
   17.4370    4.7710   53.4388 H   0  0  0  0  0  0  0  0  0  0  0  0
   23.3288    7.4779   53.0276 C   0  0  0  0  0  0  0  0  0  0  0  0
   23.4108    7.6386   54.4953 C   0  0  0  0  0  0  0  0  0  0  0  0
   24.8924    7.9376   54.6866 C   0  0  0  0  0  0  0  0  0  0  0  0
   25.8311    7.0057   54.2622 C   0  0  0  0  0  0  0  0  0  0  0  0
   27.1875    7.2877   54.3020 C   0  0  0  0  0  0  0  0  0  0  0  0
   27.6383    8.5026   54.7655 C   0  0  0  0  0  0  0  0  0  0  0  0
   26.7249    9.4175   55.1854 C   0  0  0  0  0  0  0  0  0  0  0  0
   25.3414    9.1344   55.1492 C   0  0  0  0  0  0  0  0  0  0  0  0
   24.4743   10.1051   55.6147 O   0  0  0  0  0  0  0  0  0  0  0  0
   23.1137    9.8462   55.6159 C   0  0  0  0  0  0  0  0  0  0  0  0
   22.2499   10.8185   56.1255 C   0  0  0  0  0  0  0  0  0  0  0  0
   20.8988   10.6045   56.1834 C   0  0  0  0  0  0  0  0  0  0  0  0
   20.3783    9.4256   55.7396 C   0  0  0  0  0  0  0  0  0  0  0  0
   21.2457    8.4867   55.2402 C   0  0  0  0  0  0  0  0  0  0  0  0
   22.6230    8.6522   55.1520 C   0  0  0  0  0  0  0  0  0  0  0  0
  1  2  1  0  0  0
  2 16  1  0  0  0
 16 17  1  0  0  0
 17 18  1  0  0  0
 18 19  2  0  0  0
 19 20  1  0  0  0
 20 21  2  0  0  0
 21 22  1  0  0  0
 22 23  2  0  0  0
 23 24  1  0  0  0
 24 25  1  0  0  0
 25 26  2  0  0  0
 26 27  1  0  0  0
 27 28  2  0  0  0
 28 29  1  0  0  0
 29 30  2  0  0  0
  2  9  1  0  0  0
  9 10  1  0  0  0
 10 11  1  0  0  0
 11 12  1  0  0  0
 12 13  1  0  0  0
 12 14  2  0  0  0
  2  5  1  0  0  0
  5  6  1  0  0  0
  5  7  2  0  0  0
 30 17  1  0  0  0
 11  9  1  0  0  0
 23 18  1  0  0  0
 30 25  1  0  0  0
  1  3  1  0  0  0
  1  4  1  0  0  0
 13 15  1  0  0  0
  6  8  1  0  0  0
M  END
> <minimizedAffinity>
17.46231

> <CNNscore>
0.5654318929

> <CNNaffinity>
6.3350458145

> <CNN_VS>
3.5820369720

> <CNNaffinity_variance>
0.8325911760

$$$$
[H]OC(=O)[C@@]1([H])C([H])([H])[C@]1([H])[C@](C(=O)O[H])(N([H])[H])C([H])([H])C1([H])c2c([H])c([H])c([H])c([H])c2Oc2c([H])c([H])c([H])c([H])c21


 30 33  0  0  0  0  0  0  0  0999 V2000
   23.1694    5.7895   51.5181 N   0  0  0  0  0  0  0  0  0  0  0  0
   22.5821    6.4523   52.6409 C   0  0  0  0  0  0  0  0  0  0  0  0
   23.5052    4.8263   51.7413 H   0  0  0  0  0  0  0  0  0  0  0  0
   22.4595    5.6931   50.7590 H   0  0  0  0  0  0  0  0  0  0  0  0
   21.5010    7.3550   52.1162 C   0  0  0  0  0  0  0  0  0  0  0  0
   21.8287    8.2411   51.1092 O   0  0  0  0  0  0  0  0  0  0  0  0
   20.3308    7.3053   52.5803 O   0  0  0  0  0  0  0  0  0  0  0  0
   21.9146    8.0187   50.1381 H   0  0  0  0  0  0  0  0  0  0  0  0
   21.8192    5.3242   53.3843 C   0  0  0  0  0  0  0  0  0  0  0  0
   21.1534    5.6282   54.6500 C   0  0  0  0  0  0  0  0  0  0  0  0
   20.3241    5.3374   53.4035 C   0  0  0  0  0  0  0  0  0  0  0  0
   19.5908    4.0454   53.4557 C   0  0  0  0  0  0  0  0  0  0  0  0
   18.4122    3.9452   54.1654 O   0  0  0  0  0  0  0  0  0  0  0  0
   20.0280    3.0386   52.8619 O   0  0  0  0  0  0  0  0  0  0  0  0
   17.6321    4.5689   53.9870 H   0  0  0  0  0  0  0  0  0  0  0  0
   23.4166    7.0675   53.6449 C   0  0  0  0  0  0  0  0  0  0  0  0
   24.0595    8.3989   53.6176 C   0  0  0  0  0  0  0  0  0  0  0  0
   23.0301    9.2492   54.3514 C   0  0  0  0  0  0  0  0  0  0  0  0
   21.7404    9.3391   53.8429 C   0  0  0  0  0  0  0  0  0  0  0  0
   20.7406    9.9977   54.5412 C   0  0  0  0  0  0  0  0  0  0  0  0
   21.0032   10.5811   55.7597 C   0  0  0  0  0  0  0  0  0  0  0  0
   22.2641   10.4996   56.2610 C   0  0  0  0  0  0  0  0  0  0  0  0
   23.2874    9.8316   55.5525 C   0  0  0  0  0  0  0  0  0  0  0  0
   24.5500    9.8103   56.1147 O   0  0  0  0  0  0  0  0  0  0  0  0
   25.5797    9.1853   55.4310 C   0  0  0  0  0  0  0  0  0  0  0  0
   26.8598    9.2045   55.9896 C   0  0  0  0  0  0  0  0  0  0  0  0
   27.9227    8.6328   55.3432 C   0  0  0  0  0  0  0  0  0  0  0  0
   27.7390    8.0331   54.1330 C   0  0  0  0  0  0  0  0  0  0  0  0
   26.4722    8.0237   53.6053 C   0  0  0  0  0  0  0  0  0  0  0  0
   25.3571    8.5823   54.2192 C   0  0  0  0  0  0  0  0  0  0  0  0
  1  2  1  0  0  0
  2 16  1  0  0  0
 16 17  1  0  0  0
 17 18  1  0  0  0
 18 19  2  0  0  0
 19 20  1  0  0  0
 20 21  2  0  0  0
 21 22  1  0  0  0
 22 23  2  0  0  0
 23 24  1  0  0  0
 24 25  1  0  0  0
 25 26  2  0  0  0
 26 27  1  0  0  0
 27 28  2  0  0  0
 28 29  1  0  0  0
 29 30  2  0  0  0
  2  9  1  0  0  0
  9 10  1  0  0  0
 10 11  1  0  0  0
 11 12  1  0  0  0
 12 13  1  0  0  0
 12 14  2  0  0  0
  2  5  1  0  0  0
  5  6  1  0  0  0
  5  7  2  0  0  0
 30 17  1  0  0  0
 11  9  1  0  0  0
 23 18  1  0  0  0
 30 25  1  0  0  0
  1  3  1  0  0  0
  1  4  1  0  0  0
 13 15  1  0  0  0
  6  8  1  0  0  0
M  END
> <minimizedAffinity>
13.12507

> <CNNscore>
0.5537942648

> <CNNaffinity>
6.4417867661

> <CNN_VS>
3.5674245358

> <CNNaffinity_variance>
0.5513339639

$$$$
[H]OC(=O)[C@@]1(F)[C@]2([H])C([H])([H])[C@@]([H])(OC([H])([H])c3c([H])c([H])c4c([H])c([H])c([H])c([H])c4c3[H])[C@](C(=O)O[H])(N([H])[H])[C@]12[H]


 30 33  0  0  0  0  0  0  0  0999 V2000
   19.7534    7.8257   53.7728 N   0  0  0  0  0  0  0  0  0  0  0  0
   21.1570    7.8959   53.9037 C   0  0  0  0  0  0  0  0  0  0  0  0
   21.7720    9.1880   53.4690 C   0  0  0  0  0  0  0  0  0  0  0  0
   22.4610    8.9760   52.1813 C   0  0  0  0  0  0  0  0  0  0  0  0
   22.3453    7.5117   51.8302 C   0  0  0  0  0  0  0  0  0  0  0  0
   21.7961    6.8098   53.0603 C   0  0  0  0  0  0  0  0  0  0  0  0
   21.2272    9.8185   52.2326 C   0  0  0  0  0  0  0  0  0  0  0  0
   20.1191    9.2203   51.6666 F   0  0  0  0  0  0  0  0  0  0  0  0
   19.1821    8.1693   54.5345 H   0  0  0  0  0  0  0  0  0  0  0  0
   19.3629    7.1534   53.1267 H   0  0  0  0  0  0  0  0  0  0  0  0
   21.3743   11.2585   51.9977 C   0  0  0  0  0  0  0  0  0  0  0  0
   21.3284   11.7518   50.7076 O   0  0  0  0  0  0  0  0  0  0  0  0
   21.5415   12.0352   52.9768 O   0  0  0  0  0  0  0  0  0  0  0  0
   22.0259   12.3558   50.3036 H   0  0  0  0  0  0  0  0  0  0  0  0
   21.5041    7.5935   55.3343 C   0  0  0  0  0  0  0  0  0  0  0  0
   21.7573    6.2960   55.7625 O   0  0  0  0  0  0  0  0  0  0  0  0
   21.5787    8.5066   56.2002 O   0  0  0  0  0  0  0  0  0  0  0  0
   22.7087    5.9286   55.6482 H   0  0  0  0  0  0  0  0  0  0  0  0
   22.7793    6.1317   53.7320 O   0  0  0  0  0  0  0  0  0  0  0  0
   24.0490    6.2613   53.2009 C   0  0  0  0  0  0  0  0  0  0  0  0
   24.9103    7.1812   53.9828 C   0  0  0  0  0  0  0  0  0  0  0  0
   24.2902    7.9805   54.9490 C   0  0  0  0  0  0  0  0  0  0  0  0
   25.0747    8.8285   55.6875 C   0  0  0  0  0  0  0  0  0  0  0  0
   26.4363    8.9159   55.5090 C   0  0  0  0  0  0  0  0  0  0  0  0
   27.1572    9.7821   56.2795 C   0  0  0  0  0  0  0  0  0  0  0  0
   28.5250    9.8566   56.0863 C   0  0  0  0  0  0  0  0  0  0  0  0
   29.1255    9.0507   55.1173 C   0  0  0  0  0  0  0  0  0  0  0  0
   28.3996    8.1824   54.3456 C   0  0  0  0  0  0  0  0  0  0  0  0
   27.0338    8.1139   54.5447 C   0  0  0  0  0  0  0  0  0  0  0  0
   26.2659    7.2562   53.7927 C   0  0  0  0  0  0  0  0  0  0  0  0
  1  2  1  0  0  0
  2  3  1  0  0  0
  3  4  1  0  0  0
  4  5  1  0  0  0
  5  6  1  0  0  0
  6 19  1  0  0  0
 19 20  1  0  0  0
 20 21  1  0  0  0
 21 22  2  0  0  0
 22 23  1  0  0  0
 23 24  2  0  0  0
 24 25  1  0  0  0
 25 26  2  0  0  0
 26 27  1  0  0  0
 27 28  2  0  0  0
 28 29  1  0  0  0
 29 30  2  0  0  0
  4  7  1  0  0  0
  7  8  1  0  0  0
  7 11  1  0  0  0
 11 12  1  0  0  0
 11 13  2  0  0  0
  2 15  1  0  0  0
 15 16  1  0  0  0
 15 17  2  0  0  0
  6  2  1  0  0  0
 30 21  1  0  0  0
  7  3  1  0  0  0
 29 24  1  0  0  0
  1  9  1  0  0  0
  1 10  1  0  0  0
 12 14  1  0  0  0
 16 18  1  0  0  0
M  END
> <minimizedAffinity>
5.77822

> <CNNscore>
0.7802190781

> <CNNaffinity>
6.2482981682

> <CNN_VS>
4.8750414848

> <CNNaffinity_variance>
0.3308738172

$$$$
[H]OC(=O)[C@@]1(F)[C@]2([H])C([H])([H])[C@@]([H])(OC([H])([H])c3c([H])c([H])c4c([H])c([H])c([H])c([H])c4c3[H])[C@](C(=O)O[H])(N([H])[H])[C@]12[H]


 30 33  0  0  0  0  0  0  0  0999 V2000
   19.9946    8.3091   54.2487 N   0  0  0  0  0  0  0  0  0  0  0  0
   21.4023    8.4092   54.2663 C   0  0  0  0  0  0  0  0  0  0  0  0
   21.9629    9.6092   53.5720 C   0  0  0  0  0  0  0  0  0  0  0  0
   22.5661    9.1801   52.2952 C   0  0  0  0  0  0  0  0  0  0  0  0
   22.4530    7.6763   52.2126 C   0  0  0  0  0  0  0  0  0  0  0  0
   22.0018    7.1964   53.5813 C   0  0  0  0  0  0  0  0  0  0  0  0
   21.3237   10.0114   52.2863 C   0  0  0  0  0  0  0  0  0  0  0  0
   20.1904    9.3173   51.9121 F   0  0  0  0  0  0  0  0  0  0  0  0
   19.4706    8.7768   54.9776 H   0  0  0  0  0  0  0  0  0  0  0  0
   19.5730    7.5322   53.7582 H   0  0  0  0  0  0  0  0  0  0  0  0
   21.4285   11.3893   51.7954 C   0  0  0  0  0  0  0  0  0  0  0  0
   21.1652   11.6667   50.4674 O   0  0  0  0  0  0  0  0  0  0  0  0
   21.7584   12.3103   52.5909 O   0  0  0  0  0  0  0  0  0  0  0  0
   21.7842   12.1773   49.8587 H   0  0  0  0  0  0  0  0  0  0  0  0
   21.8518    8.3628   55.6997 C   0  0  0  0  0  0  0  0  0  0  0  0
   21.6103    7.2542   56.5020 O   0  0  0  0  0  0  0  0  0  0  0  0
   22.4653    9.3289   56.2283 O   0  0  0  0  0  0  0  0  0  0  0  0
   22.2783    6.4761   56.4612 H   0  0  0  0  0  0  0  0  0  0  0  0
   23.0406    6.6515   54.2895 O   0  0  0  0  0  0  0  0  0  0  0  0
   24.1903    6.4180   53.5584 C   0  0  0  0  0  0  0  0  0  0  0  0
   25.3222    7.2828   53.9711 C   0  0  0  0  0  0  0  0  0  0  0  0
   26.2525    7.6398   52.9892 C   0  0  0  0  0  0  0  0  0  0  0  0
   27.2990    8.4477   53.3528 C   0  0  0  0  0  0  0  0  0  0  0  0
   27.4595    8.9119   54.6383 C   0  0  0  0  0  0  0  0  0  0  0  0
   28.5251    9.7132   54.9313 C   0  0  0  0  0  0  0  0  0  0  0  0
   28.6706   10.1707   56.2288 C   0  0  0  0  0  0  0  0  0  0  0  0
   27.7316    9.8035   57.1945 C   0  0  0  0  0  0  0  0  0  0  0  0
   26.6632    8.9992   56.8975 C   0  0  0  0  0  0  0  0  0  0  0  0
   26.5251    8.5464   55.5993 C   0  0  0  0  0  0  0  0  0  0  0  0
   25.4678    7.7370   55.2563 C   0  0  0  0  0  0  0  0  0  0  0  0
  1  2  1  0  0  0
  2  3  1  0  0  0
  3  4  1  0  0  0
  4  5  1  0  0  0
  5  6  1  0  0  0
  6 19  1  0  0  0
 19 20  1  0  0  0
 20 21  1  0  0  0
 21 22  2  0  0  0
 22 23  1  0  0  0
 23 24  2  0  0  0
 24 25  1  0  0  0
 25 26  2  0  0  0
 26 27  1  0  0  0
 27 28  2  0  0  0
 28 29  1  0  0  0
 29 30  2  0  0  0
  4  7  1  0  0  0
  7  8  1  0  0  0
  7 11  1  0  0  0
 11 12  1  0  0  0
 11 13  2  0  0  0
  2 15  1  0  0  0
 15 16  1  0  0  0
 15 17  2  0  0  0
  6  2  1  0  0  0
 30 21  1  0  0  0
  7  3  1  0  0  0
 29 24  1  0  0  0
  1  9  1  0  0  0
  1 10  1  0  0  0
 12 14  1  0  0  0
 16 18  1  0  0  0
M  END
> <minimizedAffinity>
8.02201

> <CNNscore>
0.7586556077

> <CNNaffinity>
6.3152108192

> <CNN_VS>
4.7910699844

> <CNNaffinity_variance>
0.3304587901

$$$$
[H]OC(=O)[C@@]1(F)[C@]2([H])C([H])([H])[C@@]([H])(OC([H])([H])c3c([H])c([H])c4c([H])c([H])c([H])c([H])c4c3[H])[C@](C(=O)O[H])(N([H])[H])[C@]12[H]


 30 33  0  0  0  0  0  0  0  0999 V2000
   20.1394    7.0339   52.3084 N   0  0  0  0  0  0  0  0  0  0  0  0
   21.1353    7.8898   52.8258 C   0  0  0  0  0  0  0  0  0  0  0  0
   22.4805    7.2624   53.0085 C   0  0  0  0  0  0  0  0  0  0  0  0
   22.7091    7.0410   54.4496 C   0  0  0  0  0  0  0  0  0  0  0  0
   21.5240    7.6040   55.1978 C   0  0  0  0  0  0  0  0  0  0  0  0
   20.7066    8.3939   54.1902 C   0  0  0  0  0  0  0  0  0  0  0  0
   22.5149    5.8701   53.5408 C   0  0  0  0  0  0  0  0  0  0  0  0
   21.2990    5.2357   53.7001 F   0  0  0  0  0  0  0  0  0  0  0  0
   20.0572    6.9450   51.3035 H   0  0  0  0  0  0  0  0  0  0  0  0
   19.3426    6.8147   52.8906 H   0  0  0  0  0  0  0  0  0  0  0  0
   23.6692    5.0005   53.2925 C   0  0  0  0  0  0  0  0  0  0  0  0
   23.8825    3.8966   54.0961 O   0  0  0  0  0  0  0  0  0  0  0  0
   24.4584    5.2682   52.3462 O   0  0  0  0  0  0  0  0  0  0  0  0
   24.7516    3.6903   54.5614 H   0  0  0  0  0  0  0  0  0  0  0  0
   21.2240    9.0922   51.9286 C   0  0  0  0  0  0  0  0  0  0  0  0
   20.2897    9.3219   50.9259 O   0  0  0  0  0  0  0  0  0  0  0  0
   22.1503    9.9383   52.0521 O   0  0  0  0  0  0  0  0  0  0  0  0
   19.4211    9.8062   51.1794 H   0  0  0  0  0  0  0  0  0  0  0  0
   20.8971    9.7429   54.3369 O   0  0  0  0  0  0  0  0  0  0  0  0
   21.5593   10.1198   55.4903 C   0  0  0  0  0  0  0  0  0  0  0  0
   23.0036    9.7844   55.4622 C   0  0  0  0  0  0  0  0  0  0  0  0
   23.7323    9.9715   56.6416 C   0  0  0  0  0  0  0  0  0  0  0  0
   25.0666    9.6558   56.6345 C   0  0  0  0  0  0  0  0  0  0  0  0
   25.7023    9.1669   55.5162 C   0  0  0  0  0  0  0  0  0  0  0  0
   27.0340    8.8732   55.5792 C   0  0  0  0  0  0  0  0  0  0  0  0
   27.6565    8.3825   54.4454 C   0  0  0  0  0  0  0  0  0  0  0  0
   26.9123    8.2026   53.2780 C   0  0  0  0  0  0  0  0  0  0  0  0
   25.5761    8.4982   53.2178 C   0  0  0  0  0  0  0  0  0  0  0  0
   24.9616    8.9879   54.3545 C   0  0  0  0  0  0  0  0  0  0  0  0
   23.6221    9.2980   54.3395 C   0  0  0  0  0  0  0  0  0  0  0  0
  1  2  1  0  0  0
  2  3  1  0  0  0
  3  4  1  0  0  0
  4  5  1  0  0  0
  5  6  1  0  0  0
  6 19  1  0  0  0
 19 20  1  0  0  0
 20 21  1  0  0  0
 21 22  2  0  0  0
 22 23  1  0  0  0
 23 24  2  0  0  0
 24 25  1  0  0  0
 25 26  2  0  0  0
 26 27  1  0  0  0
 27 28  2  0  0  0
 28 29  1  0  0  0
 29 30  2  0  0  0
  4  7  1  0  0  0
  7  8  1  0  0  0
  7 11  1  0  0  0
 11 12  1  0  0  0
 11 13  2  0  0  0
  2 15  1  0  0  0
 15 16  1  0  0  0
 15 17  2  0  0  0
  6  2  1  0  0  0
 30 21  1  0  0  0
  7  3  1  0  0  0
 29 24  1  0  0  0
  1  9  1  0  0  0
  1 10  1  0  0  0
 12 14  1  0  0  0
 16 18  1  0  0  0
M  END
> <minimizedAffinity>
10.59481

> <CNNscore>
0.7232176661

> <CNNaffinity>
6.3735494614

> <CNN_VS>
4.6094636917

> <CNNaffinity_variance>
0.5493357778

$$$$
[H]OC(=O)[C@@]1(F)[C@]2([H])C([H])([H])[C@@]([H])(OC([H])([H])c3c([H])c([H])c4c([H])c([H])c([H])c([H])c4c3[H])[C@](C(=O)O[H])(N([H])[H])[C@]12[H]


 30 33  0  0  0  0  0  0  0  0999 V2000
   19.8229    8.0960   51.5271 N   0  0  0  0  0  0  0  0  0  0  0  0
   20.7316    8.0563   52.6064 C   0  0  0  0  0  0  0  0  0  0  0  0
   21.1996    9.3909   53.0926 C   0  0  0  0  0  0  0  0  0  0  0  0
   22.5935    9.5941   52.6526 C   0  0  0  0  0  0  0  0  0  0  0  0
   23.0415    8.3396   51.9409 C   0  0  0  0  0  0  0  0  0  0  0  0
   21.9726    7.2899   52.1916 C   0  0  0  0  0  0  0  0  0  0  0  0
   21.5002   10.4238   52.0602 C   0  0  0  0  0  0  0  0  0  0  0  0
   21.2004   10.1000   50.7519 F   0  0  0  0  0  0  0  0  0  0  0  0
   18.8361    8.1883   51.7331 H   0  0  0  0  0  0  0  0  0  0  0  0
   20.1078    7.6980   50.6427 H   0  0  0  0  0  0  0  0  0  0  0  0
   21.4687   11.8510   52.3956 C   0  0  0  0  0  0  0  0  0  0  0  0
   21.7227   12.7921   51.4161 O   0  0  0  0  0  0  0  0  0  0  0  0
   21.2096   12.2073   53.5771 O   0  0  0  0  0  0  0  0  0  0  0  0
   22.3977   13.5348   51.5011 H   0  0  0  0  0  0  0  0  0  0  0  0
   20.0931    7.2755   53.7206 C   0  0  0  0  0  0  0  0  0  0  0  0
   19.6100    5.9878   53.5223 O   0  0  0  0  0  0  0  0  0  0  0  0
   19.9717    7.7602   54.8780 O   0  0  0  0  0  0  0  0  0  0  0  0
   20.2719    5.2077   53.6043 H   0  0  0  0  0  0  0  0  0  0  0  0
   22.3721    6.3830   53.1378 O   0  0  0  0  0  0  0  0  0  0  0  0
   23.7193    6.0734   53.1217 C   0  0  0  0  0  0  0  0  0  0  0  0
   24.5361    7.0094   53.9317 C   0  0  0  0  0  0  0  0  0  0  0  0
   23.8812    7.7400   54.9288 C   0  0  0  0  0  0  0  0  0  0  0  0
   24.6248    8.6019   55.6932 C   0  0  0  0  0  0  0  0  0  0  0  0
   25.9786    8.7677   55.5112 C   0  0  0  0  0  0  0  0  0  0  0  0
   26.6579    9.6432   56.3084 C   0  0  0  0  0  0  0  0  0  0  0  0
   28.0186    9.7970   56.1113 C   0  0  0  0  0  0  0  0  0  0  0  0
   28.6542    9.0589   55.1111 C   0  0  0  0  0  0  0  0  0  0  0  0
   27.9699    8.1811   54.3126 C   0  0  0  0  0  0  0  0  0  0  0  0
   26.6111    8.0332   54.5158 C   0  0  0  0  0  0  0  0  0  0  0  0
   25.8845    7.1630   53.7376 C   0  0  0  0  0  0  0  0  0  0  0  0
  1  2  1  0  0  0
  2  3  1  0  0  0
  3  4  1  0  0  0
  4  5  1  0  0  0
  5  6  1  0  0  0
  6 19  1  0  0  0
 19 20  1  0  0  0
 20 21  1  0  0  0
 21 22  2  0  0  0
 22 23  1  0  0  0
 23 24  2  0  0  0
 24 25  1  0  0  0
 25 26  2  0  0  0
 26 27  1  0  0  0
 27 28  2  0  0  0
 28 29  1  0  0  0
 29 30  2  0  0  0
  4  7  1  0  0  0
  7  8  1  0  0  0
  7 11  1  0  0  0
 11 12  1  0  0  0
 11 13  2  0  0  0
  2 15  1  0  0  0
 15 16  1  0  0  0
 15 17  2  0  0  0
  6  2  1  0  0  0
 30 21  1  0  0  0
  7  3  1  0  0  0
 29 24  1  0  0  0
  1  9  1  0  0  0
  1 10  1  0  0  0
 12 14  1  0  0  0
 16 18  1  0  0  0
M  END
> <minimizedAffinity>
9.34974

> <CNNscore>
0.6451019049

> <CNNaffinity>
6.0040845871

> <CNN_VS>
3.8732464314

> <CNNaffinity_variance>
0.3403802812

$$$$
[H]OC(=O)[C@@]1(F)[C@]2([H])C([H])([H])[C@@]([H])(OC([H])([H])c3c([H])c([H])c4c([H])c([H])c([H])c([H])c4c3[H])[C@](C(=O)O[H])(N([H])[H])[C@]12[H]


 30 33  0  0  0  0  0  0  0  0999 V2000
   20.8171    6.7238   53.9252 N   0  0  0  0  0  0  0  0  0  0  0  0
   22.1126    7.1288   54.3119 C   0  0  0  0  0  0  0  0  0  0  0  0
   22.2489    8.5772   54.6582 C   0  0  0  0  0  0  0  0  0  0  0  0
   22.9664    9.2611   53.5647 C   0  0  0  0  0  0  0  0  0  0  0  0
   23.3566    8.2184   52.5443 C   0  0  0  0  0  0  0  0  0  0  0  0
   23.0824    6.8646   53.1764 C   0  0  0  0  0  0  0  0  0  0  0  0
   21.5192    9.5535   53.7993 C   0  0  0  0  0  0  0  0  0  0  0  0
   20.6806    9.0283   52.8364 F   0  0  0  0  0  0  0  0  0  0  0  0
   20.1643    6.4478   54.6480 H   0  0  0  0  0  0  0  0  0  0  0  0
   20.6781    6.3911   52.9809 H   0  0  0  0  0  0  0  0  0  0  0  0
   21.1656   10.8825   54.3083 C   0  0  0  0  0  0  0  0  0  0  0  0
   20.8234   11.0396   55.6380 O   0  0  0  0  0  0  0  0  0  0  0  0
   21.1769   11.8719   53.5267 O   0  0  0  0  0  0  0  0  0  0  0  0
   19.9856   11.4961   55.9604 H   0  0  0  0  0  0  0  0  0  0  0  0
   22.5451    6.2618   55.4607 C   0  0  0  0  0  0  0  0  0  0  0  0
   21.8861    6.2931   56.6837 O   0  0  0  0  0  0  0  0  0  0  0  0
   23.5229    5.4729   55.3578 O   0  0  0  0  0  0  0  0  0  0  0  0
   21.0522    5.7055   56.7961 H   0  0  0  0  0  0  0  0  0  0  0  0
   24.2393    6.2654   53.6007 O   0  0  0  0  0  0  0  0  0  0  0  0
   25.3895    6.6947   52.9653 C   0  0  0  0  0  0  0  0  0  0  0  0
   26.2639    7.5096   53.8433 C   0  0  0  0  0  0  0  0  0  0  0  0
   27.6066    7.6413   53.4734 C   0  0  0  0  0  0  0  0  0  0  0  0
   28.4253    8.4002   54.2694 C   0  0  0  0  0  0  0  0  0  0  0  0
   27.9717    9.0282   55.4067 C   0  0  0  0  0  0  0  0  0  0  0  0
   28.8419    9.7689   56.1535 C   0  0  0  0  0  0  0  0  0  0  0  0
   28.3683   10.3933   57.2936 C   0  0  0  0  0  0  0  0  0  0  0  0
   27.0251   10.2499   57.6460 C   0  0  0  0  0  0  0  0  0  0  0  0
   26.1542    9.5059   56.8947 C   0  0  0  0  0  0  0  0  0  0  0  0
   26.6350    8.8855   55.7574 C   0  0  0  0  0  0  0  0  0  0  0  0
   25.7962    8.1289   54.9734 C   0  0  0  0  0  0  0  0  0  0  0  0
  1  2  1  0  0  0
  2  3  1  0  0  0
  3  4  1  0  0  0
  4  5  1  0  0  0
  5  6  1  0  0  0
  6 19  1  0  0  0
 19 20  1  0  0  0
 20 21  1  0  0  0
 21 22  2  0  0  0
 22 23  1  0  0  0
 23 24  2  0  0  0
 24 25  1  0  0  0
 25 26  2  0  0  0
 26 27  1  0  0  0
 27 28  2  0  0  0
 28 29  1  0  0  0
 29 30  2  0  0  0
  4  7  1  0  0  0
  7  8  1  0  0  0
  7 11  1  0  0  0
 11 12  1  0  0  0
 11 13  2  0  0  0
  2 15  1  0  0  0
 15 16  1  0  0  0
 15 17  2  0  0  0
  6  2  1  0  0  0
 30 21  1  0  0  0
  7  3  1  0  0  0
 29 24  1  0  0  0
  1  9  1  0  0  0
  1 10  1  0  0  0
 12 14  1  0  0  0
 16 18  1  0  0  0
M  END
> <minimizedAffinity>
10.47091

> <CNNscore>
0.6391955614

> <CNNaffinity>
6.2455935478

> <CNN_VS>
3.9921557903

> <CNNaffinity_variance>
0.2649664581

$$$$
[H]OC(=O)[C@@]1(F)[C@]2([H])C([H])([H])[C@@]([H])(OC([H])([H])c3c([H])c([H])c4c([H])c([H])c([H])c([H])c4c3[H])[C@](C(=O)O[H])(N([H])[H])[C@]12[H]


 30 33  0  0  0  0  0  0  0  0999 V2000
   21.3682    8.2663   51.0714 N   0  0  0  0  0  0  0  0  0  0  0  0
   21.1400    8.3184   52.4632 C   0  0  0  0  0  0  0  0  0  0  0  0
   20.8911    9.6856   53.0158 C   0  0  0  0  0  0  0  0  0  0  0  0
   22.0890   10.1225   53.7588 C   0  0  0  0  0  0  0  0  0  0  0  0
   23.0843    8.9867   53.7409 C   0  0  0  0  0  0  0  0  0  0  0  0
   22.3526    7.7736   53.1928 C   0  0  0  0  0  0  0  0  0  0  0  0
   21.7236   10.7989   52.4768 C   0  0  0  0  0  0  0  0  0  0  0  0
   22.5643   10.4931   51.4252 F   0  0  0  0  0  0  0  0  0  0  0  0
   20.5679    8.1949   50.4557 H   0  0  0  0  0  0  0  0  0  0  0  0
   22.2732    7.9583   50.7427 H   0  0  0  0  0  0  0  0  0  0  0  0
   21.2561   12.1870   52.5471 C   0  0  0  0  0  0  0  0  0  0  0  0
   21.3837   13.0110   51.4450 O   0  0  0  0  0  0  0  0  0  0  0  0
   20.7407   12.6172   53.6145 O   0  0  0  0  0  0  0  0  0  0  0  0
   21.8110   13.9229   51.4620 H   0  0  0  0  0  0  0  0  0  0  0  0
   19.9950    7.3977   52.7794 C   0  0  0  0  0  0  0  0  0  0  0  0
   19.2843    7.5028   53.9688 O   0  0  0  0  0  0  0  0  0  0  0  0
   19.6362    6.4945   51.9764 O   0  0  0  0  0  0  0  0  0  0  0  0
   18.5111    8.1765   54.0093 H   0  0  0  0  0  0  0  0  0  0  0  0
   22.0167    6.8969   54.1909 O   0  0  0  0  0  0  0  0  0  0  0  0
   23.0827    6.2469   54.7841 C   0  0  0  0  0  0  0  0  0  0  0  0
   24.3752    6.9410   54.5666 C   0  0  0  0  0  0  0  0  0  0  0  0
   24.9174    6.9054   53.2775 C   0  0  0  0  0  0  0  0  0  0  0  0
   26.1067    7.5515   53.0579 C   0  0  0  0  0  0  0  0  0  0  0  0
   26.7743    8.2252   54.0549 C   0  0  0  0  0  0  0  0  0  0  0  0
   27.9549    8.8471   53.7665 C   0  0  0  0  0  0  0  0  0  0  0  0
   28.6123    9.5197   54.7811 C   0  0  0  0  0  0  0  0  0  0  0  0
   28.0550    9.5439   56.0609 C   0  0  0  0  0  0  0  0  0  0  0  0
   26.8702    8.9189   56.3474 C   0  0  0  0  0  0  0  0  0  0  0  0
   26.2198    8.2493   55.3285 C   0  0  0  0  0  0  0  0  0  0  0  0
   25.0279    7.6080   55.5708 C   0  0  0  0  0  0  0  0  0  0  0  0
  1  2  1  0  0  0
  2  3  1  0  0  0
  3  4  1  0  0  0
  4  5  1  0  0  0
  5  6  1  0  0  0
  6 19  1  0  0  0
 19 20  1  0  0  0
 20 21  1  0  0  0
 21 22  2  0  0  0
 22 23  1  0  0  0
 23 24  2  0  0  0
 24 25  1  0  0  0
 25 26  2  0  0  0
 26 27  1  0  0  0
 27 28  2  0  0  0
 28 29  1  0  0  0
 29 30  2  0  0  0
  4  7  1  0  0  0
  7  8  1  0  0  0
  7 11  1  0  0  0
 11 12  1  0  0  0
 11 13  2  0  0  0
  2 15  1  0  0  0
 15 16  1  0  0  0
 15 17  2  0  0  0
  6  2  1  0  0  0
 30 21  1  0  0  0
  7  3  1  0  0  0
 29 24  1  0  0  0
  1  9  1  0  0  0
  1 10  1  0  0  0
 12 14  1  0  0  0
 16 18  1  0  0  0
M  END
> <minimizedAffinity>
12.49850

> <CNNscore>
0.6278271675

> <CNNaffinity>
6.1251640320

> <CNN_VS>
3.8455443382

> <CNNaffinity_variance>
0.5084496737

$$$$
[H]OC(=O)[C@@]1(F)[C@]2([H])C([H])([H])[C@@]([H])(OC([H])([H])c3c([H])c([H])c4c([H])c([H])c([H])c([H])c4c3[H])[C@](C(=O)O[H])(N([H])[H])[C@]12[H]


 30 33  0  0  0  0  0  0  0  0999 V2000
   20.5829    7.9115   54.5360 N   0  0  0  0  0  0  0  0  0  0  0  0
   21.2278    7.4130   53.3838 C   0  0  0  0  0  0  0  0  0  0  0  0
   20.6860    6.1209   52.8610 C   0  0  0  0  0  0  0  0  0  0  0  0
   21.6402    5.0417   53.1818 C   0  0  0  0  0  0  0  0  0  0  0  0
   22.8396    5.6689   53.8519 C   0  0  0  0  0  0  0  0  0  0  0  0
   22.6930    7.1722   53.6915 C   0  0  0  0  0  0  0  0  0  0  0  0
   20.3114    5.0845   53.8653 C   0  0  0  0  0  0  0  0  0  0  0  0
   20.3789    5.4539   55.1940 F   0  0  0  0  0  0  0  0  0  0  0  0
   19.7612    8.4899   54.4143 H   0  0  0  0  0  0  0  0  0  0  0  0
   21.1146    7.9827   55.3929 H   0  0  0  0  0  0  0  0  0  0  0  0
   19.3404    4.0364   53.5351 C   0  0  0  0  0  0  0  0  0  0  0  0
   19.7326    2.9532   52.7717 O   0  0  0  0  0  0  0  0  0  0  0  0
   18.1541    4.1330   53.9515 O   0  0  0  0  0  0  0  0  0  0  0  0
   19.2555    2.6382   51.9425 H   0  0  0  0  0  0  0  0  0  0  0  0
   21.1773    8.4802   52.3268 C   0  0  0  0  0  0  0  0  0  0  0  0
   21.1403    8.1631   50.9744 O   0  0  0  0  0  0  0  0  0  0  0  0
   21.1667    9.7043   52.6280 O   0  0  0  0  0  0  0  0  0  0  0  0
   20.2267    7.9622   50.5522 H   0  0  0  0  0  0  0  0  0  0  0  0
   23.5227    7.6558   52.7140 O   0  0  0  0  0  0  0  0  0  0  0  0
   24.0787    8.8939   52.9761 C   0  0  0  0  0  0  0  0  0  0  0  0
   25.3343    8.8082   53.7606 C   0  0  0  0  0  0  0  0  0  0  0  0
   26.4945    8.4223   53.0809 C   0  0  0  0  0  0  0  0  0  0  0  0
   27.6656    8.3486   53.7903 C   0  0  0  0  0  0  0  0  0  0  0  0
   27.7329    8.6390   55.1337 C   0  0  0  0  0  0  0  0  0  0  0  0
   28.9325    8.5449   55.7785 C   0  0  0  0  0  0  0  0  0  0  0  0
   28.9815    8.8407   57.1290 C   0  0  0  0  0  0  0  0  0  0  0  0
   27.8129    9.2240   57.7897 C   0  0  0  0  0  0  0  0  0  0  0  0
   26.6105    9.3174   57.1401 C   0  0  0  0  0  0  0  0  0  0  0  0
   26.5700    9.0204   55.7911 C   0  0  0  0  0  0  0  0  0  0  0  0
   25.3846    9.1009   55.0990 C   0  0  0  0  0  0  0  0  0  0  0  0
  1  2  1  0  0  0
  2  3  1  0  0  0
  3  4  1  0  0  0
  4  5  1  0  0  0
  5  6  1  0  0  0
  6 19  1  0  0  0
 19 20  1  0  0  0
 20 21  1  0  0  0
 21 22  2  0  0  0
 22 23  1  0  0  0
 23 24  2  0  0  0
 24 25  1  0  0  0
 25 26  2  0  0  0
 26 27  1  0  0  0
 27 28  2  0  0  0
 28 29  1  0  0  0
 29 30  2  0  0  0
  4  7  1  0  0  0
  7  8  1  0  0  0
  7 11  1  0  0  0
 11 12  1  0  0  0
 11 13  2  0  0  0
  2 15  1  0  0  0
 15 16  1  0  0  0
 15 17  2  0  0  0
  6  2  1  0  0  0
 30 21  1  0  0  0
  7  3  1  0  0  0
 29 24  1  0  0  0
  1  9  1  0  0  0
  1 10  1  0  0  0
 12 14  1  0  0  0
 16 18  1  0  0  0
M  END
> <minimizedAffinity>
16.77255

> <CNNscore>
0.5465610623

> <CNNaffinity>
5.7547750473

> <CNN_VS>
3.1453359127

> <CNNaffinity_variance>
0.3166424632

$$$$
[H]OC(=O)[C@@]1(F)[C@]2([H])C([H])([H])[C@@]([H])(OC([H])([H])c3c([H])c([H])c4c([H])c([H])c([H])c([H])c4c3[H])[C@](C(=O)O[H])(N([H])[H])[C@]12[H]


 30 33  0  0  0  0  0  0  0  0999 V2000
   22.8820    8.0917   52.0713 N   0  0  0  0  0  0  0  0  0  0  0  0
   23.3600    7.6135   53.3102 C   0  0  0  0  0  0  0  0  0  0  0  0
   22.5555    8.0226   54.5026 C   0  0  0  0  0  0  0  0  0  0  0  0
   23.3014    9.0562   55.2464 C   0  0  0  0  0  0  0  0  0  0  0  0
   24.6313    9.2524   54.5579 C   0  0  0  0  0  0  0  0  0  0  0  0
   24.7662    8.1319   53.5412 C   0  0  0  0  0  0  0  0  0  0  0  0
   22.0421    9.4222   54.5289 C   0  0  0  0  0  0  0  0  0  0  0  0
   22.2469   10.1805   53.3935 F   0  0  0  0  0  0  0  0  0  0  0  0
   22.1806    7.5478   51.5847 H   0  0  0  0  0  0  0  0  0  0  0  0
   23.4607    8.7337   51.5471 H   0  0  0  0  0  0  0  0  0  0  0  0
   20.8733    9.7773   55.3403 C   0  0  0  0  0  0  0  0  0  0  0  0
   20.7637   11.0507   55.8658 O   0  0  0  0  0  0  0  0  0  0  0  0
   19.9771    8.9158   55.5517 O   0  0  0  0  0  0  0  0  0  0  0  0
   20.5858   11.2531   56.8362 H   0  0  0  0  0  0  0  0  0  0  0  0
   23.4599    6.1165   53.2211 C   0  0  0  0  0  0  0  0  0  0  0  0
   24.1509    5.4940   52.1887 O   0  0  0  0  0  0  0  0  0  0  0  0
   22.9199    5.3690   54.0806 O   0  0  0  0  0  0  0  0  0  0  0  0
   25.1641    5.3697   52.2943 H   0  0  0  0  0  0  0  0  0  0  0  0
   25.6216    7.1558   53.9808 O   0  0  0  0  0  0  0  0  0  0  0  0
   26.9631    7.4118   53.7672 C   0  0  0  0  0  0  0  0  0  0  0  0
   27.5150    8.4188   54.7057 C   0  0  0  0  0  0  0  0  0  0  0  0
   28.0618    9.5826   54.1547 C   0  0  0  0  0  0  0  0  0  0  0  0
   28.5665   10.5279   55.0101 C   0  0  0  0  0  0  0  0  0  0  0  0
   28.5516   10.3682   56.3768 C   0  0  0  0  0  0  0  0  0  0  0  0
   29.0714   11.3500   57.1702 C   0  0  0  0  0  0  0  0  0  0  0  0
   29.0478   11.1724   58.5420 C   0  0  0  0  0  0  0  0  0  0  0  0
   28.4978   10.0042   59.0727 C   0  0  0  0  0  0  0  0  0  0  0  0
   27.9769    9.0206   58.2741 C   0  0  0  0  0  0  0  0  0  0  0  0
   28.0042    9.2056   56.9049 C   0  0  0  0  0  0  0  0  0  0  0  0
   27.4924    8.2444   56.0653 C   0  0  0  0  0  0  0  0  0  0  0  0
  1  2  1  0  0  0
  2  3  1  0  0  0
  3  4  1  0  0  0
  4  5  1  0  0  0
  5  6  1  0  0  0
  6 19  1  0  0  0
 19 20  1  0  0  0
 20 21  1  0  0  0
 21 22  2  0  0  0
 22 23  1  0  0  0
 23 24  2  0  0  0
 24 25  1  0  0  0
 25 26  2  0  0  0
 26 27  1  0  0  0
 27 28  2  0  0  0
 28 29  1  0  0  0
 29 30  2  0  0  0
  4  7  1  0  0  0
  7  8  1  0  0  0
  7 11  1  0  0  0
 11 12  1  0  0  0
 11 13  2  0  0  0
  2 15  1  0  0  0
 15 16  1  0  0  0
 15 17  2  0  0  0
  6  2  1  0  0  0
 30 21  1  0  0  0
  7  3  1  0  0  0
 29 24  1  0  0  0
  1  9  1  0  0  0
  1 10  1  0  0  0
 12 14  1  0  0  0
 16 18  1  0  0  0
M  END
> <minimizedAffinity>
15.27592

> <CNNscore>
0.5288578272

> <CNNaffinity>
6.0741176605

> <CNN_VS>
3.2123446465

> <CNNaffinity_variance>
0.4386864305

$$$$
[H]OC(=O)[C@@]1(F)[C@]2([H])C([H])([H])[C@@]([H])(OC([H])([H])c3c([H])c([H])c4c([H])c([H])c([H])c([H])c4c3[H])[C@](C(=O)O[H])(N([H])[H])[C@]12[H]


 30 33  0  0  0  0  0  0  0  0999 V2000
   21.1854    9.9760   51.9948 N   0  0  0  0  0  0  0  0  0  0  0  0
   21.4020    8.8244   52.7815 C   0  0  0  0  0  0  0  0  0  0  0  0
   21.0170    8.9559   54.2205 C   0  0  0  0  0  0  0  0  0  0  0  0
   22.2448    9.0612   55.0326 C   0  0  0  0  0  0  0  0  0  0  0  0
   23.4273    8.9195   54.1038 C   0  0  0  0  0  0  0  0  0  0  0  0
   22.8766    8.4710   52.7611 C   0  0  0  0  0  0  0  0  0  0  0  0
   21.3418   10.2447   54.8963 C   0  0  0  0  0  0  0  0  0  0  0  0
   21.8558   11.2504   54.1021 F   0  0  0  0  0  0  0  0  0  0  0  0
   20.2741   10.1054   51.5734 H   0  0  0  0  0  0  0  0  0  0  0  0
   21.9868   10.4416   51.5913 H   0  0  0  0  0  0  0  0  0  0  0  0
   20.5990   10.6764   56.0848 C   0  0  0  0  0  0  0  0  0  0  0  0
   21.2856   11.0872   57.2116 O   0  0  0  0  0  0  0  0  0  0  0  0
   19.3382   10.6691   56.0678 O   0  0  0  0  0  0  0  0  0  0  0  0
   21.1243   10.7288   58.1390 H   0  0  0  0  0  0  0  0  0  0  0  0
   20.6737    7.6791   52.1360 C   0  0  0  0  0  0  0  0  0  0  0  0
   20.2894    6.5592   52.8634 O   0  0  0  0  0  0  0  0  0  0  0  0
   20.3839    7.6916   50.9092 O   0  0  0  0  0  0  0  0  0  0  0  0
   19.3981    6.5976   53.3707 H   0  0  0  0  0  0  0  0  0  0  0  0
   23.0950    7.1348   52.5502 O   0  0  0  0  0  0  0  0  0  0  0  0
   23.8767    6.5105   53.5042 C   0  0  0  0  0  0  0  0  0  0  0  0
   25.0939    7.2843   53.8492 C   0  0  0  0  0  0  0  0  0  0  0  0
   25.9926    7.5677   52.8152 C   0  0  0  0  0  0  0  0  0  0  0  0
   27.1176    8.2914   53.1163 C   0  0  0  0  0  0  0  0  0  0  0  0
   27.3858    8.7415   54.3887 C   0  0  0  0  0  0  0  0  0  0  0  0
   28.5254    9.4572   54.6182 C   0  0  0  0  0  0  0  0  0  0  0  0
   28.7787    9.9017   55.9035 C   0  0  0  0  0  0  0  0  0  0  0  0
   27.8697    9.6088   56.9219 C   0  0  0  0  0  0  0  0  0  0  0  0
   26.7270    8.8903   56.6886 C   0  0  0  0  0  0  0  0  0  0  0  0
   26.4812    8.4499   55.4021 C   0  0  0  0  0  0  0  0  0  0  0  0
   25.3464    7.7255   55.1223 C   0  0  0  0  0  0  0  0  0  0  0  0
  1  2  1  0  0  0
  2  3  1  0  0  0
  3  4  1  0  0  0
  4  5  1  0  0  0
  5  6  1  0  0  0
  6 19  1  0  0  0
 19 20  1  0  0  0
 20 21  1  0  0  0
 21 22  2  0  0  0
 22 23  1  0  0  0
 23 24  2  0  0  0
 24 25  1  0  0  0
 25 26  2  0  0  0
 26 27  1  0  0  0
 27 28  2  0  0  0
 28 29  1  0  0  0
 29 30  2  0  0  0
  4  7  1  0  0  0
  7  8  1  0  0  0
  7 11  1  0  0  0
 11 12  1  0  0  0
 11 13  2  0  0  0
  2 15  1  0  0  0
 15 16  1  0  0  0
 15 17  2  0  0  0
  6  2  1  0  0  0
 30 21  1  0  0  0
  7  3  1  0  0  0
 29 24  1  0  0  0
  1  9  1  0  0  0
  1 10  1  0  0  0
 12 14  1  0  0  0
 16 18  1  0  0  0
M  END
> <minimizedAffinity>
11.04050

> <CNNscore>
0.4955318272

> <CNNaffinity>
6.1350679398

> <CNN_VS>
3.0401213169

> <CNNaffinity_variance>
0.2096920460

$$$$
